@<TRIPOS>MOLECULE
CD_guest-s16_fast_vm2_rndm.mol2 : feprocess host+ligand conformer 1
         139         145           2
SMALL
USER_CHARGES
 
@<TRIPOS>ATOM
       1    C1      16.285196   15.214461   20.578654 C.3        1 MOL1         0.2972
       2    H1      15.234823   15.080226   20.290308 H          1 MOL1         0.0751
       3    O1      16.580595   16.601379   20.854820 O.3        1 MOL1        -0.3740
       4    C2      16.643944   14.336806   21.808921 C.3        1 MOL1         0.1003
       5    H2      16.495205   13.292002   21.506222 H          1 MOL1         0.0783
       6    O2      15.801142   14.610731   22.937973 O.3        1 MOL1        -0.5519
       7    H3      15.980421   15.546274   23.209871 H          1 MOL1         0.3769
       8    C3      18.133526   14.507307   22.195422 C.3        1 MOL1         0.1053
       9    H4      18.275896   15.532621   22.564386 H          1 MOL1         0.0783
      10    O3      18.448900   13.567216   23.227689 O.3        1 MOL1        -0.5519
      11    H5      17.668466   13.576660   23.827643 H          1 MOL1         0.3769
      12    C4      19.066004   14.295274   20.971848 C.3        1 MOL1         0.1018
      13    H6      19.131113   13.221733   20.753689 H          1 MOL1         0.0783
      14    C5      18.561936   15.038597   19.703398 C.3        1 MOL1         0.1043
      15    H7      18.710322   16.112955   19.854219 H          1 MOL1         0.0783
      16    O4      17.148989   14.787869   19.502534 O.3        1 MOL1        -0.3740
      17    C6      19.331492   14.663146   18.412869 C.3        1 MOL1         0.0138
      18    H8      20.323205   15.133565   18.449850 H          1 MOL1         0.0794
      19    H9      18.801107   15.095154   17.553917 H          1 MOL1         0.0794
      20    O5      19.475334   13.247877   18.241631 O.3        1 MOL1        -0.5486
      21    H10     20.167158   12.944796   18.868463 H          1 MOL1         0.3769
      22    C7      14.884621   20.266814   21.792336 C.3        1 MOL1         0.2972
      23    H11     14.234593   21.096108   22.099656 H          1 MOL1         0.0751
      24    O6      16.080362   20.743896   21.143447 O.3        1 MOL1        -0.3740
      25    C8      15.271691   19.397230   23.018740 C.3        1 MOL1         0.1003
      26    H12     14.336875   19.001323   23.436649 H          1 MOL1         0.0783
      27    O7      15.948279   20.160578   24.030327 O.3        1 MOL1        -0.5519
      28    H13     15.853609   21.114521   23.791586 H          1 MOL1         0.3769
      29    C9      16.150460   18.197078   22.596735 C.3        1 MOL1         0.1053
      30    H14     17.118553   18.590935   22.265582 H          1 MOL1         0.0783
      31    O8      16.342824   17.342814   23.728628 O.3        1 MOL1        -0.5519
      32    H15     16.586639   17.955671   24.458806 H          1 MOL1         0.3769
      33    C10     15.522237   17.400874   21.424572 C.3        1 MOL1         0.1018
      34    H16     14.705982   16.782254   21.820033 H          1 MOL1         0.0783
      35    C11     14.979842   18.325044   20.296689 C.3        1 MOL1         0.1043
      36    H17     15.838802   18.748024   19.759610 H          1 MOL1         0.0783
      37    O9      14.193803   19.405663   20.862381 O.3        1 MOL1        -0.3740
      38    C12     14.111029   17.583215   19.252703 C.3        1 MOL1         0.0138
      39    H18     14.766505   16.944438   18.645412 H          1 MOL1         0.0794
      40    H19     13.664569   18.326293   18.578362 H          1 MOL1         0.0794
      41    O10     13.088172   16.787115   19.864510 O.3        1 MOL1        -0.5486
      42    H20     12.527919   16.418783   19.146753 H          1 MOL1         0.3769
      43    C13     18.434156   24.078586   20.664957 C.3        1 MOL1         0.2972
      44    H21     18.887401   25.054054   20.446846 H          1 MOL1         0.0751
      45    O11     19.449717   23.071632   20.891471 O.3        1 MOL1        -0.3740
      46    C14     17.463197   24.176904   21.873127 C.3        1 MOL1         0.1003
      47    H22     16.652643   24.853635   21.572169 H          1 MOL1         0.0783
      48    O12     18.094547   24.716210   23.043354 O.3        1 MOL1        -0.5519
      49    H23     18.769302   24.052016   23.333393 H          1 MOL1         0.3769
      50    C15     16.832266   22.799210   22.182509 C.3        1 MOL1         0.1053
      51    H24     17.632439   22.130614   22.528075 H          1 MOL1         0.0783
      52    O13     15.853543   22.959581   23.215496 O.3        1 MOL1        -0.5519
      53    H25     16.250133   23.605860   23.843325 H          1 MOL1         0.3769
      54    C16     16.184789   22.166548   20.920183 C.3        1 MOL1         0.1018
      55    H26     15.200276   22.620121   20.745861 H          1 MOL1         0.0783
      56    C17     17.051504   22.331066   19.638725 C.3        1 MOL1         0.1043
      57    H27     17.861773   21.600764   19.691388 H          1 MOL1         0.0783
      58    O14     17.632296   23.656007   19.544419 O.3        1 MOL1        -0.3740
      59    C18     16.268299   22.041111   18.336969 C.3        1 MOL1         0.0138
      60    H28     15.984020   20.980120   18.332693 H          1 MOL1         0.0794
      61    H29     16.937490   22.204807   17.481672 H          1 MOL1         0.0794
      62    O15     15.097303   22.859367   18.218189 O.3        1 MOL1        -0.5486
      63    H30     14.671144   22.646771   17.359401 H          1 MOL1         0.3769
      64    C19     23.395376   22.571834   22.135716 C.3        1 MOL1         0.2972
      65    H31     24.411965   22.693706   22.531115 H          1 MOL1         0.0751
      66    O16     23.242756   21.321377   21.437559 O.3        1 MOL1        -0.3740
      67    C20     22.354790   22.635788   23.283508 C.3        1 MOL1         0.1003
      68    H32     22.450264   23.624779   23.750533 H          1 MOL1         0.0783
      69    O17     22.591871   21.622689   24.274689 O.3        1 MOL1        -0.5519
      70    H33     23.497973   21.262867   24.114948 H          1 MOL1         0.3769
      71    C21     20.916791   22.500633   22.731547 C.3        1 MOL1         0.1053
      72    H34     20.805334   21.483309   22.338207 H          1 MOL1         0.0783
      73    O18     19.994617   22.704268   23.805541 O.3        1 MOL1        -0.5519
      74    H35     20.345040   22.148465   24.538133 H          1 MOL1         0.3769
      75    C22     20.645955   23.506213   21.581091 C.3        1 MOL1         0.1018
      76    H36     20.525365   24.506140   22.018055 H          1 MOL1         0.0783
      77    C23     21.801364   23.539266   20.539059 C.3        1 MOL1         0.1043
      78    H37     21.768932   22.608575   19.959543 H          1 MOL1         0.0783
      79    O19     23.085489   23.634165   21.208706 O.3        1 MOL1        -0.3740
      80    C24     21.688658   24.707020   19.529869 C.3        1 MOL1         0.0138
      81    H38     20.847941   24.502772   18.853130 H          1 MOL1         0.0794
      82    H39     22.600766   24.730526   18.918554 H          1 MOL1         0.0794
      83    O20     21.492058   25.968633   20.180691 O.3        1 MOL1        -0.5486
      84    H40     21.513138   26.666756   19.490176 H          1 MOL1         0.3769
      85    C25     25.116355   17.665168   20.961283 C.3        1 MOL1         0.2972
      86    H41     25.786005   16.824106   20.739911 H          1 MOL1         0.0751
      87    O21     23.755802   17.221070   21.158905 O.3        1 MOL1        -0.3740
      88    C26     25.596320   18.456015   22.207502 C.3        1 MOL1         0.1003
      89    H42     26.577585   18.880208   21.957337 H          1 MOL1         0.0783
      90    O22     25.743164   17.613499   23.359575 O.3        1 MOL1        -0.5519
      91    H43     24.847787   17.242048   23.563269 H          1 MOL1         0.3769
      92    C27     24.636171   19.634097   22.508008 C.3        1 MOL1         0.1053
      93    H44     23.662127   19.216145   22.799375 H          1 MOL1         0.0783
      94    O23     25.175852   20.408005   23.585124 O.3        1 MOL1        -0.5519
      95    H45     25.542781   19.745498   24.214221 H          1 MOL1         0.3769
      96    C28     24.427739   20.523415   21.250125 C.3        1 MOL1         0.1018
      97    H46     25.315696   21.150233   21.098903 H          1 MOL1         0.0783
      98    C29     24.166717   19.686870   19.967126 C.3        1 MOL1         0.1043
      99    H47     23.160712   19.264909   20.047342 H          1 MOL1         0.0783
     100    O24     25.119314   18.600382   19.861275 O.3        1 MOL1        -0.3740
     101    C30     24.194429   20.516436   18.659737 C.3        1 MOL1         0.0138
     102    H48     23.281218   21.125198   18.612909 H          1 MOL1         0.0794
     103    H49     24.163020   19.823848   17.808237 H          1 MOL1         0.0794
     104    O25     25.346752   21.362677   18.563807 O.3        1 MOL1        -0.5486
     105    H50     25.209401   22.118260   19.174787 H          1 MOL1         0.3769
     106    C31     21.323089   13.962347   21.883560 C.3        1 MOL1         0.2972
     107    H51     20.879107   12.988162   22.125713 H          1 MOL1         0.0751
     108    O26     20.359635   14.852036   21.281741 O.3        1 MOL1        -0.3740
     109    C32     21.905543   14.621642   23.160442 C.3        1 MOL1         0.1003
     110    H52     22.697421   13.959416   23.534203 H          1 MOL1         0.0783
     111    O27     20.910647   14.785668   24.183633 O.3        1 MOL1        -0.5519
     112    H53     20.078938   14.365239   23.854405 H          1 MOL1         0.3769
     113    C33     22.542869   15.987778   22.825784 C.3        1 MOL1         0.1053
     114    H54     21.736169   16.659080   22.513582 H          1 MOL1         0.0783
     115    O28     23.171718   16.506046   24.001157 O.3        1 MOL1        -0.5519
     116    H55     22.509082   16.364510   24.715037 H          1 MOL1         0.3769
     117    C34     23.561360   15.882620   21.661916 C.3        1 MOL1         0.1018
     118    H56     24.492793   15.447628   22.047893 H          1 MOL1         0.0783
     119    C35     23.024905   15.029620   20.475056 C.3        1 MOL1         0.1043
     120    H57     22.264510   15.622567   19.950440 H          1 MOL1         0.0783
     121    O29     22.414964   13.801751   20.953228 O.3        1 MOL1        -0.3740
     122    C36     24.114000   14.666543   19.437597 C.3        1 MOL1         0.0138
     123    H58     24.393975   15.578886   18.893642 H          1 MOL1         0.0794
     124    H59     23.682734   13.969947   18.706202 H          1 MOL1         0.0794
     125    O30     25.274933   14.091224   20.050214 O.3        1 MOL1        -0.5486
     126    H60     25.885415   13.815804   19.331732 H          1 MOL1         0.3769
     127    C1      19.989975   18.341600   21.192809 C.3        1 MOL1        -0.1693
     128    H1      20.769641   18.537179   21.940335 H          1 MOL1         0.0829
     129    H2      19.418416   17.461536   21.504654 H          1 MOL1         0.0829
     130    C2      20.472780   18.387112   19.702861 C.3        1 MOL1        -0.1768
     131    H3      21.472345   17.989476   19.505849 H          1 MOL1         0.0829
     132    H4      19.777589   17.960526   18.970011 H          1 MOL1         0.0829
     133    C3      20.354117   19.932796   19.871763 C.3        1 MOL1         0.1211
     134    H5      21.202450   20.385255   20.394962 H          1 MOL1         0.0786
     135    C4      19.152721   19.597776   20.803962 C.3        1 MOL1        -0.1768
     136    H6      18.946505   20.308798   21.610225 H          1 MOL1         0.0829
     137    H7      18.216269   19.372786   20.279812 H          1 MOL1         0.0829
     138    O1      20.042846   20.673713   18.716269 O.3        1 MOL1        -0.5515
     139    H8      19.782360   21.568573   19.020079 H          1 MOL1         0.3773
@<TRIPOS>BOND
    1     1     2    1
    2     1     3    1
    3     1     4    1
    4     4     5    1
    5     4     6    1
    6     6     7    1
    7     4     8    1
    8     8     9    1
    9     8    10    1
   10    10    11    1
   11     8    12    1
   12    12    13    1
   13    12    14    1
   14    14    15    1
   15     1    16    1
   16    14    16    1
   17    14    17    1
   18    17    18    1
   19    17    19    1
   20    17    20    1
   21    20    21    1
   22    22    23    1
   23    22    24    1
   24    22    25    1
   25    25    26    1
   26    25    27    1
   27    27    28    1
   28    25    29    1
   29    29    30    1
   30    29    31    1
   31    31    32    1
   32     3    33    1
   33    29    33    1
   34    33    34    1
   35    33    35    1
   36    35    36    1
   37    22    37    1
   38    35    37    1
   39    35    38    1
   40    38    39    1
   41    38    40    1
   42    38    41    1
   43    41    42    1
   44    43    44    1
   45    43    45    1
   46    43    46    1
   47    46    47    1
   48    46    48    1
   49    48    49    1
   50    46    50    1
   51    50    51    1
   52    50    52    1
   53    52    53    1
   54    24    54    1
   55    50    54    1
   56    54    55    1
   57    54    56    1
   58    56    57    1
   59    43    58    1
   60    56    58    1
   61    56    59    1
   62    59    60    1
   63    59    61    1
   64    59    62    1
   65    62    63    1
   66    64    65    1
   67    64    66    1
   68    64    67    1
   69    67    68    1
   70    67    69    1
   71    69    70    1
   72    67    71    1
   73    71    72    1
   74    71    73    1
   75    73    74    1
   76    45    75    1
   77    71    75    1
   78    75    76    1
   79    75    77    1
   80    77    78    1
   81    64    79    1
   82    77    79    1
   83    77    80    1
   84    80    81    1
   85    80    82    1
   86    80    83    1
   87    83    84    1
   88    85    86    1
   89    85    87    1
   90    85    88    1
   91    88    89    1
   92    88    90    1
   93    90    91    1
   94    88    92    1
   95    92    93    1
   96    92    94    1
   97    94    95    1
   98    66    96    1
   99    92    96    1
  100    96    97    1
  101    96    98    1
  102    98    99    1
  103    85   100    1
  104    98   100    1
  105    98   101    1
  106   101   102    1
  107   101   103    1
  108   101   104    1
  109   104   105    1
  110   106   107    1
  111    12   108    1
  112   106   108    1
  113   106   109    1
  114   109   110    1
  115   109   111    1
  116   111   112    1
  117   109   113    1
  118   113   114    1
  119   113   115    1
  120   115   116    1
  121    87   117    1
  122   113   117    1
  123   117   118    1
  124   117   119    1
  125   119   120    1
  126   106   121    1
  127   119   121    1
  128   119   122    1
  129   122   123    1
  130   122   124    1
  131   122   125    1
  132   125   126    1
  133   127   128    1
  134   127   129    1
  135   127   130    1
  136   130   131    1
  137   130   132    1
  138   130   133    1
  139   133   134    1
  140   127   135    1
  141   133   135    1
  142   135   136    1
  143   135   137    1
  144   133   138    1
  145   138   139    1
@<TRIPOS>SUBSTRUCTURE
       1 MOL1            1 RESIDUE      1      MOL     
       2 MOL1          139 RESIDUE      1      MOL     
@<SCITEGIC>MOL_PROPERTY
feprocess Rank
SciTegic.value.IntegerValue
1

@<SCITEGIC>MOL_PROPERTY
Conf_Id
SciTegic.value.IntegerValue
341

@<SCITEGIC>MOL_PROPERTY
Probability
SciTegic.value.DoubleValue
19.31

@<SCITEGIC>MOL_PROPERTY
G
SciTegic.value.DoubleValue
545.030

@<SCITEGIC>MOL_PROPERTY
E
SciTegic.value.DoubleValue
365.725

@<SCITEGIC>MOL_PROPERTY
-TS
SciTegic.value.DoubleValue
179.305

@<SCITEGIC>MOL_PROPERTY
U+W
SciTegic.value.DoubleValue
243.214

@<SCITEGIC>MOL_PROPERTY
U
SciTegic.value.DoubleValue
281.676

@<SCITEGIC>MOL_PROPERTY
W
SciTegic.value.DoubleValue
-38.462

@<SCITEGIC>MOL_PROPERTY
W(PB)
SciTegic.value.DoubleValue
-44.563

@<SCITEGIC>MOL_PROPERTY
W(SA)
SciTegic.value.DoubleValue
6.101

@<SCITEGIC>MOL_PROPERTY
Valence
SciTegic.value.DoubleValue
149.448

@<SCITEGIC>MOL_PROPERTY
Coulomb
SciTegic.value.DoubleValue
150.455

@<SCITEGIC>MOL_PROPERTY
VdW
SciTegic.value.DoubleValue
-18.228

@<SCITEGIC>MOL_PROPERTY
VdW6
SciTegic.value.DoubleValue
-168.866

@<SCITEGIC>MOL_PROPERTY
VdW12
SciTegic.value.DoubleValue
150.638

@<SCITEGIC>MOL_PROPERTY
Bond
SciTegic.value.DoubleValue
4.913

@<SCITEGIC>MOL_PROPERTY
Angle
SciTegic.value.DoubleValue
13.775

@<SCITEGIC>MOL_PROPERTY
Pdih
SciTegic.value.DoubleValue
130.761

@<SCITEGIC>MOL_PROPERTY
Idih
SciTegic.value.DoubleValue
0.000

@<SCITEGIC>MOL_PROPERTY
Tether
SciTegic.value.DoubleValue
0.000

@<TRIPOS>MOLECULE
CD_guest-s16_fast_vm2_rndm.mol2 : feprocess host+ligand conformer 2
         139         145           2
SMALL
USER_CHARGES
 
@<TRIPOS>ATOM
       1    C1      16.456402   15.481230   20.402026 C.3        1 MOL1         0.2972
       2    H1      15.484509   15.333647   19.913688 H          1 MOL1         0.0751
       3    O1      16.538797   16.765772   21.048359 O.3        1 MOL1        -0.3740
       4    C2      16.699338   14.396848   21.486045 C.3        1 MOL1         0.1003
       5    H2      16.655322   13.419618   20.987976 H          1 MOL1         0.0783
       6    O2      15.689643   14.450298   22.506995 O.3        1 MOL1        -0.5519
       7    H3      15.584740   15.399889   22.770597 H          1 MOL1         0.3769
       8    C3      18.108547   14.550705   22.111662 C.3        1 MOL1         0.1053
       9    H4      18.138793   15.500396   22.663327 H          1 MOL1         0.0783
      10    O3      18.360639   13.461883   23.006427 O.3        1 MOL1        -0.5519
      11    H5      17.529232   13.357965   23.521547 H          1 MOL1         0.3769
      12    C4      19.188739   14.599195   21.003328 C.3        1 MOL1         0.1018
      13    H6      19.251921   13.614566   20.521265 H          1 MOL1         0.0783
      14    C5      18.851549   15.665106   19.928636 C.3        1 MOL1         0.1043
      15    H7      18.877623   16.655389   20.399921 H          1 MOL1         0.0783
      16    O4      17.519852   15.399983   19.425723 O.3        1 MOL1        -0.3740
      17    C6      19.838543   15.708991   18.733371 C.3        1 MOL1         0.0138
      18    H8      20.637139   16.422069   18.973844 H          1 MOL1         0.0794
      19    H9      19.311770   16.111270   17.858016 H          1 MOL1         0.0794
      20    O5      20.408953   14.430429   18.422155 O.3        1 MOL1        -0.5486
      21    H10     20.984983   14.176457   19.179846 H          1 MOL1         0.3769
      22    C7      14.525428   20.359406   21.416771 C.3        1 MOL1         0.2972
      23    H11     13.802170   21.184430   21.440307 H          1 MOL1         0.0751
      24    O6      15.876923   20.818027   21.606560 O.3        1 MOL1        -0.3740
      25    C8      14.224784   19.332387   22.536570 C.3        1 MOL1         0.1003
      26    H12     13.227683   18.915190   22.344545 H          1 MOL1         0.0783
      27    O7      14.233088   19.960644   23.828678 O.3        1 MOL1        -0.5519
      28    H13     14.976285   20.615563   23.835762 H          1 MOL1         0.3769
      29    C9      15.246890   18.170292   22.491242 C.3        1 MOL1         0.1053
      30    H14     16.235663   18.572367   22.747488 H          1 MOL1         0.0783
      31    O8      14.872847   17.167554   23.441872 O.3        1 MOL1        -0.5519
      32    H15     14.655247   17.664556   24.261936 H          1 MOL1         0.3769
      33    C10     15.329926   17.547454   21.075835 C.3        1 MOL1         0.1018
      34    H16     14.436341   16.928021   20.922023 H          1 MOL1         0.0783
      35    C11     15.438404   18.617145   19.951239 C.3        1 MOL1         0.1043
      36    H17     16.443605   19.056968   19.993323 H          1 MOL1         0.0783
      37    O9      14.454909   19.662257   20.155448 O.3        1 MOL1        -0.3740
      38    C12     15.247051   18.043278   18.526577 C.3        1 MOL1         0.0138
      39    H18     16.133666   17.449399   18.267130 H          1 MOL1         0.0794
      40    H19     15.197262   18.879503   17.816464 H          1 MOL1         0.0794
      41    O10     14.070304   17.231312   18.423059 O.3        1 MOL1        -0.5486
      42    H20     13.978077   16.959535   17.483869 H          1 MOL1         0.3769
      43    C13     18.412113   24.026875   21.762883 C.3        1 MOL1         0.2972
      44    H21     18.915056   25.001923   21.804036 H          1 MOL1         0.0751
      45    O11     19.354803   22.949608   21.598195 O.3        1 MOL1        -0.3740
      46    C14     17.624277   23.787992   23.071771 C.3        1 MOL1         0.1003
      47    H22     16.856144   24.568741   23.146340 H          1 MOL1         0.0783
      48    O12     18.499566   23.867584   24.208566 O.3        1 MOL1        -0.5519
      49    H23     19.424240   23.853288   23.858740 H          1 MOL1         0.3769
      50    C15     16.917275   22.415753   23.030162 C.3        1 MOL1         0.1053
      51    H24     17.693817   21.643159   23.038823 H          1 MOL1         0.0783
      52    O13     16.086058   22.267004   24.184901 O.3        1 MOL1        -0.5519
      53    H25     16.642954   22.573233   24.935517 H          1 MOL1         0.3769
      54    C16     16.076980   22.236755   21.741548 C.3        1 MOL1         0.1018
      55    H26     15.133154   22.785297   21.857925 H          1 MOL1         0.0783
      56    C17     16.814114   22.704894   20.454403 C.3        1 MOL1         0.1043
      57    H27     17.565047   21.944369   20.211037 H          1 MOL1         0.0783
      58    O14     17.482642   23.976664   20.661092 O.3        1 MOL1        -0.3740
      59    C18     15.880895   22.834565   19.227361 C.3        1 MOL1         0.0138
      60    H28     15.550679   21.829559   18.932278 H          1 MOL1         0.0794
      61    H29     16.457376   23.247917   18.388825 H          1 MOL1         0.0794
      62    O15     14.741418   23.658562   19.503422 O.3        1 MOL1        -0.5486
      63    H30     14.218372   23.730557   18.675368 H          1 MOL1         0.3769
      64    C19     23.400721   22.474206   20.613687 C.3        1 MOL1         0.2972
      65    H31     24.399536   22.633122   20.187050 H          1 MOL1         0.0751
      66    O16     23.285614   21.180863   21.236798 O.3        1 MOL1        -0.3740
      67    C20     23.088844   23.539450   21.698872 C.3        1 MOL1         0.1003
      68    H32     23.159650   24.525156   21.220964 H          1 MOL1         0.0783
      69    O17     24.035411   23.470115   22.777832 O.3        1 MOL1        -0.5519
      70    H33     24.135948   22.515445   23.023585 H          1 MOL1         0.3769
      71    C21     21.645112   23.371741   22.236534 C.3        1 MOL1         0.1053
      72    H34     21.585387   22.416859   22.776861 H          1 MOL1         0.0783
      73    O18     21.332722   24.450938   23.123780 O.3        1 MOL1        -0.5519
      74    H35     22.129025   24.552273   23.692196 H          1 MOL1         0.3769
      75    C22     20.633933   23.330366   21.065084 C.3        1 MOL1         0.1018
      76    H36     20.599210   24.320789   20.591780 H          1 MOL1         0.0783
      77    C23     21.040724   22.282164   19.996383 C.3        1 MOL1         0.1043
      78    H37     21.000129   21.282849   20.446895 H          1 MOL1         0.0783
      79    O19     22.396561   22.565972   19.577125 O.3        1 MOL1        -0.3740
      80    C24     20.124444   22.250288   18.745598 C.3        1 MOL1         0.0138
      81    H38     19.310035   21.539296   18.932716 H          1 MOL1         0.0794
      82    H39     20.700890   21.853214   17.899460 H          1 MOL1         0.0794
      83    O20     19.576736   23.532426   18.410769 O.3        1 MOL1        -0.5486
      84    H40     18.939357   23.775525   19.121884 H          1 MOL1         0.3769
      85    C25     25.238409   17.568152   21.631706 C.3        1 MOL1         0.2972
      86    H41     25.948468   16.732323   21.672388 H          1 MOL1         0.0751
      87    O21     23.870530   17.122815   21.744038 O.3        1 MOL1        -0.3740
      88    C26     25.508836   18.574395   22.778040 C.3        1 MOL1         0.1003
      89    H42     26.514735   18.986472   22.624331 H          1 MOL1         0.0783
      90    O22     25.456785   17.932651   24.061894 O.3        1 MOL1        -0.5519
      91    H43     24.689806   17.305712   24.054274 H          1 MOL1         0.3769
      92    C27     24.499451   19.744939   22.711154 C.3        1 MOL1         0.1053
      93    H44     23.497448   19.346349   22.917184 H          1 MOL1         0.0783
      94    O23     24.836944   20.726887   23.696289 O.3        1 MOL1        -0.5519
      95    H45     25.026434   20.212374   24.512687 H          1 MOL1         0.3769
      96    C28     24.489914   20.395999   21.305813 C.3        1 MOL1         0.1018
      97    H46     25.390447   21.017630   21.213913 H          1 MOL1         0.0783
      98    C29     24.439659   19.355695   20.148712 C.3        1 MOL1         0.1043
      99    H47     23.427551   18.935828   20.107820 H          1 MOL1         0.0783
     100    O24     25.385346   18.283798   20.387863 O.3        1 MOL1        -0.3740
     101    C30     24.735905   19.960931   18.755446 C.3        1 MOL1         0.0138
     102    H48     23.878336   20.576431   18.452569 H          1 MOL1         0.0794
     103    H49     24.819327   19.141466   18.029118 H          1 MOL1         0.0794
     104    O25     25.930145   20.753788   18.751254 O.3        1 MOL1        -0.5486
     105    H50     26.090155   21.045458   17.827238 H          1 MOL1         0.3769
     106    C31     21.353066   13.896764   21.870376 C.3        1 MOL1         0.2972
     107    H51     20.841119   12.926543   21.913673 H          1 MOL1         0.0751
     108    O26     20.433355   14.974177   21.612977 O.3        1 MOL1        -0.3740
     109    C32     22.055047   14.186432   23.216284 C.3        1 MOL1         0.1003
     110    H52     22.825878   13.419139   23.365387 H          1 MOL1         0.0783
     111    O27     21.110559   14.134747   24.297841 O.3        1 MOL1        -0.5519
     112    H53     20.210805   14.143017   23.888999 H          1 MOL1         0.3769
     113    C33     22.745366   15.567269   23.167265 C.3        1 MOL1         0.1053
     114    H54     21.961174   16.327823   23.091380 H          1 MOL1         0.0783
     115    O28     23.491059   15.772477   24.369762 O.3        1 MOL1        -0.5519
     116    H55     22.889700   15.477083   25.090068 H          1 MOL1         0.3769
     117    C34     23.669571   15.707189   21.931854 C.3        1 MOL1         0.1018
     118    H56     24.606982   15.174306   22.138510 H          1 MOL1         0.0783
     119    C35     23.032382   15.170462   20.617151 C.3        1 MOL1         0.1043
     120    H57     22.296542   15.908884   20.280775 H          1 MOL1         0.0783
     121    O29     22.355628   13.904556   20.832830 O.3        1 MOL1        -0.3740
     122    C36     24.054793   14.995014   19.469640 C.3        1 MOL1         0.0138
     123    H58     24.396091   15.989691   19.152264 H          1 MOL1         0.0794
     124    H59     23.545498   14.535633   18.611787 H          1 MOL1         0.0794
     125    O30     25.178734   14.199884   19.867467 O.3        1 MOL1        -0.5486
     126    H60     25.759377   14.091691   19.082851 H          1 MOL1         0.3769
     127    C1      19.107299   19.403977   23.527511 C.3        1 MOL1        -0.1693
     128    H1      19.467737   20.339725   23.975004 H          1 MOL1         0.0829
     129    H2      18.165003   19.123846   24.012001 H          1 MOL1         0.0829
     130    C2      20.184408   18.277163   23.416841 C.3        1 MOL1        -0.1768
     131    H3      19.777295   17.269200   23.270237 H          1 MOL1         0.0829
     132    H4      20.932022   18.245517   24.216754 H          1 MOL1         0.0829
     133    C3      20.618787   18.999247   22.106425 C.3        1 MOL1         0.1211
     134    H5      21.275995   19.861487   22.276307 H          1 MOL1         0.0786
     135    C4      19.115052   19.378619   21.963249 C.3        1 MOL1        -0.1768
     136    H6      18.487419   18.601084   21.515801 H          1 MOL1         0.0829
     137    H7      18.907838   20.325999   21.459282 H          1 MOL1         0.0829
     138    O1      21.136562   18.170809   21.092332 O.3        1 MOL1        -0.5515
     139    H8      22.007067   17.842218   21.403716 H          1 MOL1         0.3773
@<TRIPOS>BOND
    1     1     2    1
    2     1     3    1
    3     1     4    1
    4     4     5    1
    5     4     6    1
    6     6     7    1
    7     4     8    1
    8     8     9    1
    9     8    10    1
   10    10    11    1
   11     8    12    1
   12    12    13    1
   13    12    14    1
   14    14    15    1
   15     1    16    1
   16    14    16    1
   17    14    17    1
   18    17    18    1
   19    17    19    1
   20    17    20    1
   21    20    21    1
   22    22    23    1
   23    22    24    1
   24    22    25    1
   25    25    26    1
   26    25    27    1
   27    27    28    1
   28    25    29    1
   29    29    30    1
   30    29    31    1
   31    31    32    1
   32     3    33    1
   33    29    33    1
   34    33    34    1
   35    33    35    1
   36    35    36    1
   37    22    37    1
   38    35    37    1
   39    35    38    1
   40    38    39    1
   41    38    40    1
   42    38    41    1
   43    41    42    1
   44    43    44    1
   45    43    45    1
   46    43    46    1
   47    46    47    1
   48    46    48    1
   49    48    49    1
   50    46    50    1
   51    50    51    1
   52    50    52    1
   53    52    53    1
   54    24    54    1
   55    50    54    1
   56    54    55    1
   57    54    56    1
   58    56    57    1
   59    43    58    1
   60    56    58    1
   61    56    59    1
   62    59    60    1
   63    59    61    1
   64    59    62    1
   65    62    63    1
   66    64    65    1
   67    64    66    1
   68    64    67    1
   69    67    68    1
   70    67    69    1
   71    69    70    1
   72    67    71    1
   73    71    72    1
   74    71    73    1
   75    73    74    1
   76    45    75    1
   77    71    75    1
   78    75    76    1
   79    75    77    1
   80    77    78    1
   81    64    79    1
   82    77    79    1
   83    77    80    1
   84    80    81    1
   85    80    82    1
   86    80    83    1
   87    83    84    1
   88    85    86    1
   89    85    87    1
   90    85    88    1
   91    88    89    1
   92    88    90    1
   93    90    91    1
   94    88    92    1
   95    92    93    1
   96    92    94    1
   97    94    95    1
   98    66    96    1
   99    92    96    1
  100    96    97    1
  101    96    98    1
  102    98    99    1
  103    85   100    1
  104    98   100    1
  105    98   101    1
  106   101   102    1
  107   101   103    1
  108   101   104    1
  109   104   105    1
  110   106   107    1
  111    12   108    1
  112   106   108    1
  113   106   109    1
  114   109   110    1
  115   109   111    1
  116   111   112    1
  117   109   113    1
  118   113   114    1
  119   113   115    1
  120   115   116    1
  121    87   117    1
  122   113   117    1
  123   117   118    1
  124   117   119    1
  125   119   120    1
  126   106   121    1
  127   119   121    1
  128   119   122    1
  129   122   123    1
  130   122   124    1
  131   122   125    1
  132   125   126    1
  133   127   128    1
  134   127   129    1
  135   127   130    1
  136   130   131    1
  137   130   132    1
  138   130   133    1
  139   133   134    1
  140   127   135    1
  141   133   135    1
  142   135   136    1
  143   135   137    1
  144   133   138    1
  145   138   139    1
@<TRIPOS>SUBSTRUCTURE
       1 MOL1            1 RESIDUE      1      MOL     
       2 MOL1          139 RESIDUE      1      MOL     
@<SCITEGIC>MOL_PROPERTY
feprocess Rank
SciTegic.value.IntegerValue
2

@<SCITEGIC>MOL_PROPERTY
Conf_Id
SciTegic.value.IntegerValue
987

@<SCITEGIC>MOL_PROPERTY
Probability
SciTegic.value.DoubleValue
11.39

@<SCITEGIC>MOL_PROPERTY
G
SciTegic.value.DoubleValue
545.345

@<SCITEGIC>MOL_PROPERTY
E
SciTegic.value.DoubleValue
366.411

@<SCITEGIC>MOL_PROPERTY
-TS
SciTegic.value.DoubleValue
178.934

@<SCITEGIC>MOL_PROPERTY
U+W
SciTegic.value.DoubleValue
243.899

@<SCITEGIC>MOL_PROPERTY
U
SciTegic.value.DoubleValue
279.379

@<SCITEGIC>MOL_PROPERTY
W
SciTegic.value.DoubleValue
-35.479

@<SCITEGIC>MOL_PROPERTY
W(PB)
SciTegic.value.DoubleValue
-41.502

@<SCITEGIC>MOL_PROPERTY
W(SA)
SciTegic.value.DoubleValue
6.023

@<SCITEGIC>MOL_PROPERTY
Valence
SciTegic.value.DoubleValue
152.508

@<SCITEGIC>MOL_PROPERTY
Coulomb
SciTegic.value.DoubleValue
149.357

@<SCITEGIC>MOL_PROPERTY
VdW
SciTegic.value.DoubleValue
-22.486

@<SCITEGIC>MOL_PROPERTY
VdW6
SciTegic.value.DoubleValue
-168.197

@<SCITEGIC>MOL_PROPERTY
VdW12
SciTegic.value.DoubleValue
145.711

@<SCITEGIC>MOL_PROPERTY
Bond
SciTegic.value.DoubleValue
4.415

@<SCITEGIC>MOL_PROPERTY
Angle
SciTegic.value.DoubleValue
11.142

@<SCITEGIC>MOL_PROPERTY
Pdih
SciTegic.value.DoubleValue
136.951

@<SCITEGIC>MOL_PROPERTY
Idih
SciTegic.value.DoubleValue
0.000

@<SCITEGIC>MOL_PROPERTY
Tether
SciTegic.value.DoubleValue
0.000

@<TRIPOS>MOLECULE
CD_guest-s16_fast_vm2_rndm.mol2 : feprocess host+ligand conformer 3
         139         145           2
SMALL
USER_CHARGES
 
@<TRIPOS>ATOM
       1    C1      16.279939   15.278119   21.718403 C.3        1 MOL1         0.2972
       2    H1      15.204878   15.200055   21.926236 H          1 MOL1         0.0751
       3    O1      16.653096   16.614605   21.331251 O.3        1 MOL1        -0.3740
       4    C2      17.094308   14.893307   22.975091 C.3        1 MOL1         0.1003
       5    H2      16.856402   13.849045   23.216157 H          1 MOL1         0.0783
       6    O2      16.749678   15.733456   24.090211 O.3        1 MOL1        -0.5519
       7    H3      15.994680   16.303185   23.802761 H          1 MOL1         0.3769
       8    C3      18.608145   14.995042   22.686831 C.3        1 MOL1         0.1053
       9    H4      18.841102   16.053029   22.529083 H          1 MOL1         0.0783
      10    O3      19.331204   14.510213   23.821241 O.3        1 MOL1        -0.5519
      11    H5      18.876967   14.915993   24.593984 H          1 MOL1         0.3769
      12    C4      19.022466   14.232497   21.401935 C.3        1 MOL1         0.1018
      13    H6      19.103319   13.161769   21.631461 H          1 MOL1         0.0783
      14    C5      18.038876   14.462610   20.216851 C.3        1 MOL1         0.1043
      15    H7      18.223866   15.469948   19.822956 H          1 MOL1         0.0783
      16    O4      16.657725   14.380692   20.653877 O.3        1 MOL1        -0.3740
      17    C6      18.244819   13.473936   19.044707 C.3        1 MOL1         0.0138
      18    H8      19.195126   13.714619   18.549178 H          1 MOL1         0.0794
      19    H9      17.444647   13.630560   18.308844 H          1 MOL1         0.0794
      20    O5      18.258238   12.110200   19.484445 O.3        1 MOL1        -0.5486
      21    H10     18.313696   11.540136   18.686455 H          1 MOL1         0.3769
      22    C7      14.844014   20.318703   20.699203 C.3        1 MOL1         0.2972
      23    H11     14.178358   21.133100   20.385172 H          1 MOL1         0.0751
      24    O6      16.092674   20.815237   21.215473 O.3        1 MOL1        -0.3740
      25    C8      14.189344   19.455266   21.810270 C.3        1 MOL1         0.1003
      26    H12     13.269778   19.025382   21.392351 H          1 MOL1         0.0783
      27    O7      13.856043   20.250482   22.959080 O.3        1 MOL1        -0.5519
      28    H13     14.659165   20.780859   23.196602 H          1 MOL1         0.3769
      29    C9      15.123494   18.286439   22.214902 C.3        1 MOL1         0.1053
      30    H14     16.015680   18.714485   22.690725 H          1 MOL1         0.0783
      31    O8      14.445086   17.432387   23.142384 O.3        1 MOL1        -0.5519
      32    H15     13.988688   18.044984   23.762753 H          1 MOL1         0.3769
      33    C10     15.569958   17.485023   20.963309 C.3        1 MOL1         0.1018
      34    H16     14.710928   16.920810   20.577160 H          1 MOL1         0.0783
      35    C11     16.110726   18.410013   19.842032 C.3        1 MOL1         0.1043
      36    H17     17.046964   18.863272   20.190889 H          1 MOL1         0.0783
      37    O9      15.140501   19.452880   19.579521 O.3        1 MOL1        -0.3740
      38    C12     16.439972   17.672702   18.518154 C.3        1 MOL1         0.0138
      39    H18     17.457466   17.267714   18.593570 H          1 MOL1         0.0794
      40    H19     16.447831   18.405651   17.700489 H          1 MOL1         0.0794
      41    O10     15.525239   16.609914   18.221523 O.3        1 MOL1        -0.5486
      42    H20     15.682704   15.897668   18.880913 H          1 MOL1         0.3769
      43    C13     18.423563   24.128106   21.785449 C.3        1 MOL1         0.2972
      44    H21     18.875230   25.118756   21.926033 H          1 MOL1         0.0751
      45    O11     19.425412   23.099702   21.665949 O.3        1 MOL1        -0.3740
      46    C14     17.522164   23.784758   22.994479 C.3        1 MOL1         0.1003
      47    H22     16.711883   24.524575   23.028181 H          1 MOL1         0.0783
      48    O12     18.279429   23.851769   24.212958 O.3        1 MOL1        -0.5519
      49    H23     19.219329   23.671926   23.970933 H          1 MOL1         0.3769
      50    C15     16.887966   22.385592   22.819622 C.3        1 MOL1         0.1053
      51    H24     17.691845   21.642181   22.885353 H          1 MOL1         0.0783
      52    O13     15.937467   22.153386   23.864148 O.3        1 MOL1        -0.5519
      53    H25     16.436242   22.310477   24.696439 H          1 MOL1         0.3769
      54    C16     16.197332   22.232735   21.440845 C.3        1 MOL1         0.1018
      55    H26     15.214640   22.720605   21.485605 H          1 MOL1         0.0783
      56    C17     17.035134   22.805950   20.261608 C.3        1 MOL1         0.1043
      57    H27     17.848524   22.096876   20.068424 H          1 MOL1         0.0783
      58    O14     17.607667   24.097124   20.596536 O.3        1 MOL1        -0.3740
      59    C18     16.234877   22.950175   18.945200 C.3        1 MOL1         0.0138
      60    H28     16.023821   21.946222   18.552827 H          1 MOL1         0.0794
      61    H29     16.864544   23.462829   18.205529 H          1 MOL1         0.0794
      62    O15     15.007871   23.664963   19.136476 O.3        1 MOL1        -0.5486
      63    H30     14.589856   23.780688   18.255289 H          1 MOL1         0.3769
      64    C19     23.504447   22.613281   20.931258 C.3        1 MOL1         0.2972
      65    H31     24.544288   22.748625   20.606702 H          1 MOL1         0.0751
      66    O16     23.258565   21.266065   21.380002 O.3        1 MOL1        -0.3740
      67    C20     23.146004   23.588528   22.085103 C.3        1 MOL1         0.1003
      68    H32     23.281364   24.608371   21.702117 H          1 MOL1         0.0783
      69    O17     24.004143   23.399641   23.221032 O.3        1 MOL1        -0.5519
      70    H33     23.956992   22.442197   23.472275 H          1 MOL1         0.3769
      71    C21     21.660492   23.427526   22.494609 C.3        1 MOL1         0.1053
      72    H34     21.532624   22.429329   22.935546 H          1 MOL1         0.0783
      73    O18     21.314313   24.428830   23.456727 O.3        1 MOL1        -0.5519
      74    H35     22.061733   24.441175   24.095351 H          1 MOL1         0.3769
      75    C22     20.733249   23.537324   21.258123 C.3        1 MOL1         0.1018
      76    H36     20.728978   24.579725   20.913036 H          1 MOL1         0.0783
      77    C23     21.203032   22.619655   20.095585 C.3        1 MOL1         0.1043
      78    H37     21.080076   21.573962   20.406031 H          1 MOL1         0.0783
      79    O19     22.603729   22.880815   19.833073 O.3        1 MOL1        -0.3740
      80    C24     20.412551   22.791316   18.771545 C.3        1 MOL1         0.0138
      81    H38     19.581078   22.076201   18.767560 H          1 MOL1         0.0794
      82    H39     21.067929   22.513466   17.935309 H          1 MOL1         0.0794
      83    O20     19.906722   24.118250   18.577332 O.3        1 MOL1        -0.5486
      84    H40     19.171206   24.248371   19.220650 H          1 MOL1         0.3769
      85    C25     24.994174   17.595589   22.007667 C.3        1 MOL1         0.2972
      86    H41     25.643121   16.728987   22.189351 H          1 MOL1         0.0751
      87    O21     23.642248   17.196052   21.715510 O.3        1 MOL1        -0.3740
      88    C26     24.963280   18.501127   23.260564 C.3        1 MOL1         0.1003
      89    H42     25.984991   18.861781   23.437157 H          1 MOL1         0.0783
      90    O22     24.514638   17.756738   24.404621 O.3        1 MOL1        -0.5519
      91    H43     24.031163   16.967371   24.058772 H          1 MOL1         0.3769
      92    C27     24.053200   19.727493   23.022923 C.3        1 MOL1         0.1053
      93    H44     23.021047   19.368476   22.939150 H          1 MOL1         0.0783
      94    O23     24.160020   20.620196   24.136013 O.3        1 MOL1        -0.5519
      95    H45     24.083085   20.043230   24.928711 H          1 MOL1         0.3769
      96    C28     24.411384   20.467477   21.709760 C.3        1 MOL1         0.1018
      97    H46     25.304471   21.081729   21.886205 H          1 MOL1         0.0783
      98    C29     24.646037   19.503132   20.510353 C.3        1 MOL1         0.1043
      99    H47     23.664804   19.127891   20.195052 H          1 MOL1         0.0783
     100    O24     25.478078   18.378007   20.896663 O.3        1 MOL1        -0.3740
     101    C30     25.288308   20.186471   19.279576 C.3        1 MOL1         0.0138
     102    H48     24.545964   20.856450   18.825042 H          1 MOL1         0.0794
     103    H49     25.529066   19.415114   18.535625 H          1 MOL1         0.0794
     104    O25     26.463998   20.928051   19.627243 O.3        1 MOL1        -0.5486
     105    H50     26.862316   21.263181   18.794357 H          1 MOL1         0.3769
     106    C31     21.355452   13.898033   20.655056 C.3        1 MOL1         0.2972
     107    H51     20.973137   12.941400   20.276204 H          1 MOL1         0.0751
     108    O26     20.282074   14.801825   20.992485 O.3        1 MOL1        -0.3740
     109    C32     22.268756   13.693473   21.895277 C.3        1 MOL1         0.1003
     110    H52     23.133525   13.103674   21.564353 H          1 MOL1         0.0783
     111    O27     21.601570   12.979607   22.946045 O.3        1 MOL1        -0.5519
     112    H53     20.825257   13.528139   23.224159 H          1 MOL1         0.3769
     113    C33     22.793194   15.058898   22.404351 C.3        1 MOL1         0.1053
     114    H54     21.936040   15.644754   22.762306 H          1 MOL1         0.0783
     115    O28     23.721492   14.857390   23.475096 O.3        1 MOL1        -0.5519
     116    H55     23.311478   14.169499   24.045542 H          1 MOL1         0.3769
     117    C34     23.473897   15.844655   21.256249 C.3        1 MOL1         0.1018
     118    H56     24.433493   15.363629   21.025448 H          1 MOL1         0.0783
     119    C35     22.604434   15.889853   19.968709 C.3        1 MOL1         0.1043
     120    H57     21.728432   16.518655   20.167567 H          1 MOL1         0.0783
     121    O29     22.161797   14.547064   19.644576 O.3        1 MOL1        -0.3740
     122    C36     23.313090   16.500247   18.730367 C.3        1 MOL1         0.0138
     123    H58     23.101188   17.576376   18.705314 H          1 MOL1         0.0794
     124    H59     22.865668   16.070344   17.824273 H          1 MOL1         0.0794
     125    O30     24.731211   16.293409   18.723543 O.3        1 MOL1        -0.5486
     126    H60     25.115306   16.887470   19.409809 H          1 MOL1         0.3769
     127    C1      20.420015   18.512499   21.810679 C.3        1 MOL1        -0.1693
     128    H1      19.970237   17.716420   21.203717 H          1 MOL1         0.0829
     129    H2      21.404341   18.756758   21.397488 H          1 MOL1         0.0829
     130    C2      20.350794   18.280268   23.357938 C.3        1 MOL1        -0.1768
     131    H3      21.032922   18.899640   23.952558 H          1 MOL1         0.0829
     132    H4      20.434767   17.244539   23.700888 H          1 MOL1         0.0829
     133    C3      18.905072   18.851241   23.244775 C.3        1 MOL1         0.1211
     134    H5      18.159211   18.118506   22.914541 H          1 MOL1         0.0786
     135    C4      19.479198   19.726897   22.091931 C.3        1 MOL1        -0.1768
     136    H6      19.992180   20.632548   22.433548 H          1 MOL1         0.0829
     137    H7      18.778109   19.995693   21.296526 H          1 MOL1         0.0829
     138    O1      18.440593   19.556465   24.370886 O.3        1 MOL1        -0.5515
     139    H8      18.234471   18.894722   25.061605 H          1 MOL1         0.3773
@<TRIPOS>BOND
    1     1     2    1
    2     1     3    1
    3     1     4    1
    4     4     5    1
    5     4     6    1
    6     6     7    1
    7     4     8    1
    8     8     9    1
    9     8    10    1
   10    10    11    1
   11     8    12    1
   12    12    13    1
   13    12    14    1
   14    14    15    1
   15     1    16    1
   16    14    16    1
   17    14    17    1
   18    17    18    1
   19    17    19    1
   20    17    20    1
   21    20    21    1
   22    22    23    1
   23    22    24    1
   24    22    25    1
   25    25    26    1
   26    25    27    1
   27    27    28    1
   28    25    29    1
   29    29    30    1
   30    29    31    1
   31    31    32    1
   32     3    33    1
   33    29    33    1
   34    33    34    1
   35    33    35    1
   36    35    36    1
   37    22    37    1
   38    35    37    1
   39    35    38    1
   40    38    39    1
   41    38    40    1
   42    38    41    1
   43    41    42    1
   44    43    44    1
   45    43    45    1
   46    43    46    1
   47    46    47    1
   48    46    48    1
   49    48    49    1
   50    46    50    1
   51    50    51    1
   52    50    52    1
   53    52    53    1
   54    24    54    1
   55    50    54    1
   56    54    55    1
   57    54    56    1
   58    56    57    1
   59    43    58    1
   60    56    58    1
   61    56    59    1
   62    59    60    1
   63    59    61    1
   64    59    62    1
   65    62    63    1
   66    64    65    1
   67    64    66    1
   68    64    67    1
   69    67    68    1
   70    67    69    1
   71    69    70    1
   72    67    71    1
   73    71    72    1
   74    71    73    1
   75    73    74    1
   76    45    75    1
   77    71    75    1
   78    75    76    1
   79    75    77    1
   80    77    78    1
   81    64    79    1
   82    77    79    1
   83    77    80    1
   84    80    81    1
   85    80    82    1
   86    80    83    1
   87    83    84    1
   88    85    86    1
   89    85    87    1
   90    85    88    1
   91    88    89    1
   92    88    90    1
   93    90    91    1
   94    88    92    1
   95    92    93    1
   96    92    94    1
   97    94    95    1
   98    66    96    1
   99    92    96    1
  100    96    97    1
  101    96    98    1
  102    98    99    1
  103    85   100    1
  104    98   100    1
  105    98   101    1
  106   101   102    1
  107   101   103    1
  108   101   104    1
  109   104   105    1
  110   106   107    1
  111    12   108    1
  112   106   108    1
  113   106   109    1
  114   109   110    1
  115   109   111    1
  116   111   112    1
  117   109   113    1
  118   113   114    1
  119   113   115    1
  120   115   116    1
  121    87   117    1
  122   113   117    1
  123   117   118    1
  124   117   119    1
  125   119   120    1
  126   106   121    1
  127   119   121    1
  128   119   122    1
  129   122   123    1
  130   122   124    1
  131   122   125    1
  132   125   126    1
  133   127   128    1
  134   127   129    1
  135   127   130    1
  136   130   131    1
  137   130   132    1
  138   130   133    1
  139   133   134    1
  140   127   135    1
  141   133   135    1
  142   135   136    1
  143   135   137    1
  144   133   138    1
  145   138   139    1
@<TRIPOS>SUBSTRUCTURE
       1 MOL1            1 RESIDUE      1      MOL     
       2 MOL1          139 RESIDUE      1      MOL     
@<SCITEGIC>MOL_PROPERTY
feprocess Rank
SciTegic.value.IntegerValue
3

@<SCITEGIC>MOL_PROPERTY
Conf_Id
SciTegic.value.IntegerValue
597

@<SCITEGIC>MOL_PROPERTY
Probability
SciTegic.value.DoubleValue
9.08

@<SCITEGIC>MOL_PROPERTY
G
SciTegic.value.DoubleValue
545.480

@<SCITEGIC>MOL_PROPERTY
E
SciTegic.value.DoubleValue
368.220

@<SCITEGIC>MOL_PROPERTY
-TS
SciTegic.value.DoubleValue
177.260

@<SCITEGIC>MOL_PROPERTY
U+W
SciTegic.value.DoubleValue
245.708

@<SCITEGIC>MOL_PROPERTY
U
SciTegic.value.DoubleValue
283.007

@<SCITEGIC>MOL_PROPERTY
W
SciTegic.value.DoubleValue
-37.298

@<SCITEGIC>MOL_PROPERTY
W(PB)
SciTegic.value.DoubleValue
-43.282

@<SCITEGIC>MOL_PROPERTY
W(SA)
SciTegic.value.DoubleValue
5.983

@<SCITEGIC>MOL_PROPERTY
Valence
SciTegic.value.DoubleValue
152.350

@<SCITEGIC>MOL_PROPERTY
Coulomb
SciTegic.value.DoubleValue
151.635

@<SCITEGIC>MOL_PROPERTY
VdW
SciTegic.value.DoubleValue
-20.978

@<SCITEGIC>MOL_PROPERTY
VdW6
SciTegic.value.DoubleValue
-167.551

@<SCITEGIC>MOL_PROPERTY
VdW12
SciTegic.value.DoubleValue
146.573

@<SCITEGIC>MOL_PROPERTY
Bond
SciTegic.value.DoubleValue
4.569

@<SCITEGIC>MOL_PROPERTY
Angle
SciTegic.value.DoubleValue
12.337

@<SCITEGIC>MOL_PROPERTY
Pdih
SciTegic.value.DoubleValue
135.444

@<SCITEGIC>MOL_PROPERTY
Idih
SciTegic.value.DoubleValue
0.000

@<SCITEGIC>MOL_PROPERTY
Tether
SciTegic.value.DoubleValue
0.000

@<TRIPOS>MOLECULE
CD_guest-s16_fast_vm2_rndm.mol2 : feprocess host+ligand conformer 4
         139         145           2
SMALL
USER_CHARGES
 
@<TRIPOS>ATOM
       1    C1      16.233495   15.198333   21.559406 C.3        1 MOL1         0.2972
       2    H1      15.136535   15.161817   21.534023 H          1 MOL1         0.0751
       3    O1      16.726609   16.537091   21.363561 O.3        1 MOL1        -0.3740
       4    C2      16.748125   14.699099   22.928619 C.3        1 MOL1         0.1003
       5    H2      16.453701   13.646927   23.035321 H          1 MOL1         0.0783
       6    O2      16.169861   15.470089   23.994223 O.3        1 MOL1        -0.5519
       7    H3      15.765438   16.269801   23.577738 H          1 MOL1         0.3769
       8    C3      18.289677   14.780731   22.977259 C.3        1 MOL1         0.1053
       9    H4      18.566123   15.839718   22.943433 H          1 MOL1         0.0783
      10    O3      18.764011   14.204973   24.197219 O.3        1 MOL1        -0.5519
      11    H5      18.168441   14.565527   24.892112 H          1 MOL1         0.3769
      12    C4      18.943780   14.075759   21.763060 C.3        1 MOL1         0.1018
      13    H6      18.931280   12.992767   21.942979 H          1 MOL1         0.0783
      14    C5      18.246127   14.397883   20.409569 C.3        1 MOL1         0.1043
      15    H7      18.544120   15.410379   20.116595 H          1 MOL1         0.0783
      16    O4      16.800536   14.356183   20.534232 O.3        1 MOL1        -0.3740
      17    C6      18.670110   13.450815   19.262305 C.3        1 MOL1         0.0138
      18    H8      19.720932   13.652629   19.014288 H          1 MOL1         0.0794
      19    H9      18.073268   13.688156   18.371369 H          1 MOL1         0.0794
      20    O5      18.510915   12.071460   19.616913 O.3        1 MOL1        -0.5486
      21    H10     18.753972   11.532598   18.832691 H          1 MOL1         0.3769
      22    C7      15.277345   20.267695   20.127038 C.3        1 MOL1         0.2972
      23    H11     14.707459   21.054336   19.615949 H          1 MOL1         0.0751
      24    O6      16.402928   20.810141   20.843512 O.3        1 MOL1        -0.3740
      25    C8      14.382183   19.492511   21.133329 C.3        1 MOL1         0.1003
      26    H12     13.557896   19.050040   20.559035 H          1 MOL1         0.0783
      27    O7      13.834807   20.363554   22.135387 O.3        1 MOL1        -0.5519
      28    H13     14.592962   20.840437   22.559457 H          1 MOL1         0.3769
      29    C9      15.174461   18.336383   21.793935 C.3        1 MOL1         0.1053
      30    H14     15.975366   18.772130   22.407403 H          1 MOL1         0.0783
      31    O8      14.298471   17.559838   22.618297 O.3        1 MOL1        -0.5519
      32    H15     13.755309   18.219006   23.105874 H          1 MOL1         0.3769
      33    C10     15.824522   17.442892   20.709207 C.3        1 MOL1         0.1018
      34    H16     15.033833   16.907919   20.166547 H          1 MOL1         0.0783
      35    C11     16.647474   18.283519   19.698066 C.3        1 MOL1         0.1043
      36    H17     17.491611   18.739843   20.230548 H          1 MOL1         0.0783
      37    O9      15.790004   19.321412   19.161111 O.3        1 MOL1        -0.3740
      38    C12     17.246336   17.469786   18.521688 C.3        1 MOL1         0.0138
      39    H18     18.244704   17.123513   18.817483 H          1 MOL1         0.0794
      40    H19     17.388533   18.143058   17.666075 H          1 MOL1         0.0794
      41    O10     16.438549   16.348252   18.138789 O.3        1 MOL1        -0.5486
      42    H20     16.458069   15.706571   18.886042 H          1 MOL1         0.3769
      43    C13     18.351834   24.288842   21.827166 C.3        1 MOL1         0.2972
      44    H21     18.692499   25.307723   22.050137 H          1 MOL1         0.0751
      45    O11     19.439071   23.344671   21.807026 O.3        1 MOL1        -0.3740
      46    C14     17.334674   23.815070   22.892816 C.3        1 MOL1         0.1003
      47    H22     16.457755   24.472621   22.830739 H          1 MOL1         0.0783
      48    O12     17.895669   23.898070   24.212723 O.3        1 MOL1        -0.5519
      49    H23     18.869543   23.740008   24.129997 H          1 MOL1         0.3769
      50    C15     16.872134   22.370786   22.590562 C.3        1 MOL1         0.1053
      51    H24     17.732725   21.704687   22.725965 H          1 MOL1         0.0783
      52    O13     15.834613   22.004519   23.505453 O.3        1 MOL1        -0.5519
      53    H25     16.161035   22.297143   24.385829 H          1 MOL1         0.3769
      54    C16     16.372889   22.221163   21.130949 C.3        1 MOL1         0.1018
      55    H26     15.356995   22.633392   21.067737 H          1 MOL1         0.0783
      56    C17     17.301717   22.915742   20.091084 C.3        1 MOL1         0.1043
      57    H27     18.202905   22.298219   19.980044 H          1 MOL1         0.0783
      58    O14     17.690888   24.237731   20.546514 O.3        1 MOL1        -0.3740
      59    C18     16.668666   23.050075   18.685343 C.3        1 MOL1         0.0138
      60    H28     16.619478   22.052517   18.228142 H          1 MOL1         0.0794
      61    H29     17.332020   23.662371   18.059894 H          1 MOL1         0.0794
      62    O15     15.357962   23.627480   18.734785 O.3        1 MOL1        -0.5486
      63    H30     15.054669   23.758099   17.809771 H          1 MOL1         0.3769
      64    C19     23.513975   22.797078   21.850881 C.3        1 MOL1         0.2972
      65    H31     24.608143   22.886515   21.853842 H          1 MOL1         0.0751
      66    O16     23.093738   21.421580   21.758866 O.3        1 MOL1        -0.3740
      67    C20     22.937144   23.391856   23.157344 C.3        1 MOL1         0.1003
      68    H32     23.208713   24.455090   23.187634 H          1 MOL1         0.0783
      69    O17     23.492461   22.724926   24.302309 O.3        1 MOL1        -0.5519
      70    H33     23.888860   21.879419   23.976529 H          1 MOL1         0.3769
      71    C21     21.395679   23.287381   23.166418 C.3        1 MOL1         0.1053
      72    H34     21.133234   22.223925   23.221611 H          1 MOL1         0.0783
      73    O18     20.875123   23.967484   24.311902 O.3        1 MOL1        -0.5519
      74    H35     21.452622   23.684303   25.056169 H          1 MOL1         0.3769
      75    C22     20.775286   23.871218   21.872778 C.3        1 MOL1         0.1018
      76    H36     20.794636   24.966913   21.931141 H          1 MOL1         0.0783
      77    C23     21.504682   23.395763   20.584931 C.3        1 MOL1         0.1043
      78    H37     21.248216   22.341869   20.431208 H          1 MOL1         0.0783
      79    O19     22.943127   23.513077   20.734846 O.3        1 MOL1        -0.3740
      80    C24     21.074015   24.149915   19.303055 C.3        1 MOL1         0.0138
      81    H38     20.057611   23.833764   19.033060 H          1 MOL1         0.0794
      82    H39     21.735755   23.844553   18.481531 H          1 MOL1         0.0794
      83    O20     21.112581   25.573120   19.459747 O.3        1 MOL1        -0.5486
      84    H40     20.276843   25.845288   19.895156 H          1 MOL1         0.3769
      85    C25     24.724963   17.687186   20.774000 C.3        1 MOL1         0.2972
      86    H41     25.374517   16.906192   20.358043 H          1 MOL1         0.0751
      87    O21     23.529456   17.133347   21.354905 O.3        1 MOL1        -0.3740
      88    C26     25.458735   18.475973   21.891341 C.3        1 MOL1         0.1003
      89    H42     26.366194   18.906069   21.448010 H          1 MOL1         0.0783
      90    O22     25.828528   17.608084   22.975556 O.3        1 MOL1        -0.5519
      91    H43     25.040719   17.045428   23.186341 H          1 MOL1         0.3769
      92    C27     24.581381   19.642741   22.411452 C.3        1 MOL1         0.1053
      93    H44     23.708801   19.216516   22.925529 H          1 MOL1         0.0783
      94    O23     25.337616   20.445332   23.324326 O.3        1 MOL1        -0.5519
      95    H45     25.798517   19.802324   23.908525 H          1 MOL1         0.3769
      96    C28     24.073888   20.509803   21.234099 C.3        1 MOL1         0.1018
      97    H46     24.928403   21.038105   20.790537 H          1 MOL1         0.0783
      98    C29     23.398677   19.643532   20.137844 C.3        1 MOL1         0.1043
      99    H47     22.500433   19.175843   20.559357 H          1 MOL1         0.0783
     100    O24     24.333458   18.614237   19.735924 O.3        1 MOL1        -0.3740
     101    C30     22.949788   20.427743   18.877570 C.3        1 MOL1         0.0138
     102    H48     21.923788   20.781769   19.036841 H          1 MOL1         0.0794
     103    H49     22.914206   19.732456   18.028320 H          1 MOL1         0.0794
     104    O25     23.800305   21.539260   18.567992 O.3        1 MOL1        -0.5486
     105    H50     23.639271   22.231249   19.251157 H          1 MOL1         0.3769
     106    C31     21.351634   13.638796   21.599348 C.3        1 MOL1         0.2972
     107    H51     20.977126   12.607259   21.609913 H          1 MOL1         0.0751
     108    O26     20.282373   14.604195   21.674978 O.3        1 MOL1        -0.3740
     109    C32     22.302261   13.888898   22.796507 C.3        1 MOL1         0.1003
     110    H52     23.163855   13.218626   22.679780 H          1 MOL1         0.0783
     111    O27     21.652357   13.605946   24.045928 O.3        1 MOL1        -0.5519
     112    H53     20.726230   13.952778   23.988410 H          1 MOL1         0.3769
     113    C33     22.823908   15.345325   22.771381 C.3        1 MOL1         0.1053
     114    H54     21.973273   16.015639   22.950110 H          1 MOL1         0.0783
     115    O28     23.800325   15.525097   23.802534 O.3        1 MOL1        -0.5519
     116    H55     23.410013   15.100030   24.598748 H          1 MOL1         0.3769
     117    C34     23.445993   15.697154   21.397217 C.3        1 MOL1         0.1018
     118    H56     24.437057   15.227334   21.343373 H          1 MOL1         0.0783
     119    C35     22.572162   15.239483   20.192656 C.3        1 MOL1         0.1043
     120    H57     21.706900   15.909423   20.121529 H          1 MOL1         0.0783
     121    O29     22.103445   13.882857   20.392841 O.3        1 MOL1        -0.3740
     122    C36     23.306047   15.300971   18.831382 C.3        1 MOL1         0.0138
     123    H58     23.423873   16.354546   18.545056 H          1 MOL1         0.0794
     124    H59     22.670980   14.827762   18.070590 H          1 MOL1         0.0794
     125    O30     24.588445   14.662094   18.876997 O.3        1 MOL1        -0.5486
     126    H60     24.961177   14.678205   17.968541 H          1 MOL1         0.3769
     127    C1      19.857048   19.799838   23.602063 C.3        1 MOL1        -0.1693
     128    H1      20.835002   19.934107   24.083017 H          1 MOL1         0.0829
     129    H2      19.134880   20.466660   24.086506 H          1 MOL1         0.0829
     130    C2      19.410775   18.311486   23.431403 C.3        1 MOL1        -0.1768
     131    H3      18.338350   18.175452   23.243433 H          1 MOL1         0.0829
     132    H4      19.723645   17.620500   24.221635 H          1 MOL1         0.0829
     133    C3      20.298064   18.328836   22.150686 C.3        1 MOL1         0.1211
     134    H5      21.366316   18.180855   22.352792 H          1 MOL1         0.0786
     135    C4      19.887137   19.825821   22.038083 C.3        1 MOL1        -0.1768
     136    H6      18.916692   19.996978   21.560005 H          1 MOL1         0.0829
     137    H7      20.624480   20.486473   21.578243 H          1 MOL1         0.0829
     138    O1      19.871681   17.501885   21.093850 O.3        1 MOL1        -0.5515
     139    H8      20.005035   16.573293   21.381314 H          1 MOL1         0.3773
@<TRIPOS>BOND
    1     1     2    1
    2     1     3    1
    3     1     4    1
    4     4     5    1
    5     4     6    1
    6     6     7    1
    7     4     8    1
    8     8     9    1
    9     8    10    1
   10    10    11    1
   11     8    12    1
   12    12    13    1
   13    12    14    1
   14    14    15    1
   15     1    16    1
   16    14    16    1
   17    14    17    1
   18    17    18    1
   19    17    19    1
   20    17    20    1
   21    20    21    1
   22    22    23    1
   23    22    24    1
   24    22    25    1
   25    25    26    1
   26    25    27    1
   27    27    28    1
   28    25    29    1
   29    29    30    1
   30    29    31    1
   31    31    32    1
   32     3    33    1
   33    29    33    1
   34    33    34    1
   35    33    35    1
   36    35    36    1
   37    22    37    1
   38    35    37    1
   39    35    38    1
   40    38    39    1
   41    38    40    1
   42    38    41    1
   43    41    42    1
   44    43    44    1
   45    43    45    1
   46    43    46    1
   47    46    47    1
   48    46    48    1
   49    48    49    1
   50    46    50    1
   51    50    51    1
   52    50    52    1
   53    52    53    1
   54    24    54    1
   55    50    54    1
   56    54    55    1
   57    54    56    1
   58    56    57    1
   59    43    58    1
   60    56    58    1
   61    56    59    1
   62    59    60    1
   63    59    61    1
   64    59    62    1
   65    62    63    1
   66    64    65    1
   67    64    66    1
   68    64    67    1
   69    67    68    1
   70    67    69    1
   71    69    70    1
   72    67    71    1
   73    71    72    1
   74    71    73    1
   75    73    74    1
   76    45    75    1
   77    71    75    1
   78    75    76    1
   79    75    77    1
   80    77    78    1
   81    64    79    1
   82    77    79    1
   83    77    80    1
   84    80    81    1
   85    80    82    1
   86    80    83    1
   87    83    84    1
   88    85    86    1
   89    85    87    1
   90    85    88    1
   91    88    89    1
   92    88    90    1
   93    90    91    1
   94    88    92    1
   95    92    93    1
   96    92    94    1
   97    94    95    1
   98    66    96    1
   99    92    96    1
  100    96    97    1
  101    96    98    1
  102    98    99    1
  103    85   100    1
  104    98   100    1
  105    98   101    1
  106   101   102    1
  107   101   103    1
  108   101   104    1
  109   104   105    1
  110   106   107    1
  111    12   108    1
  112   106   108    1
  113   106   109    1
  114   109   110    1
  115   109   111    1
  116   111   112    1
  117   109   113    1
  118   113   114    1
  119   113   115    1
  120   115   116    1
  121    87   117    1
  122   113   117    1
  123   117   118    1
  124   117   119    1
  125   119   120    1
  126   106   121    1
  127   119   121    1
  128   119   122    1
  129   122   123    1
  130   122   124    1
  131   122   125    1
  132   125   126    1
  133   127   128    1
  134   127   129    1
  135   127   130    1
  136   130   131    1
  137   130   132    1
  138   130   133    1
  139   133   134    1
  140   127   135    1
  141   133   135    1
  142   135   136    1
  143   135   137    1
  144   133   138    1
  145   138   139    1
@<TRIPOS>SUBSTRUCTURE
       1 MOL1            1 RESIDUE      1      MOL     
       2 MOL1          139 RESIDUE      1      MOL     
@<SCITEGIC>MOL_PROPERTY
feprocess Rank
SciTegic.value.IntegerValue
4

@<SCITEGIC>MOL_PROPERTY
Conf_Id
SciTegic.value.IntegerValue
712

@<SCITEGIC>MOL_PROPERTY
Probability
SciTegic.value.DoubleValue
6.33

@<SCITEGIC>MOL_PROPERTY
G
SciTegic.value.DoubleValue
545.695

@<SCITEGIC>MOL_PROPERTY
E
SciTegic.value.DoubleValue
367.731

@<SCITEGIC>MOL_PROPERTY
-TS
SciTegic.value.DoubleValue
177.964

@<SCITEGIC>MOL_PROPERTY
U+W
SciTegic.value.DoubleValue
245.220

@<SCITEGIC>MOL_PROPERTY
U
SciTegic.value.DoubleValue
281.296

@<SCITEGIC>MOL_PROPERTY
W
SciTegic.value.DoubleValue
-36.077

@<SCITEGIC>MOL_PROPERTY
W(PB)
SciTegic.value.DoubleValue
-42.073

@<SCITEGIC>MOL_PROPERTY
W(SA)
SciTegic.value.DoubleValue
5.996

@<SCITEGIC>MOL_PROPERTY
Valence
SciTegic.value.DoubleValue
153.312

@<SCITEGIC>MOL_PROPERTY
Coulomb
SciTegic.value.DoubleValue
150.629

@<SCITEGIC>MOL_PROPERTY
VdW
SciTegic.value.DoubleValue
-22.644

@<SCITEGIC>MOL_PROPERTY
VdW6
SciTegic.value.DoubleValue
-168.662

@<SCITEGIC>MOL_PROPERTY
VdW12
SciTegic.value.DoubleValue
146.017

@<SCITEGIC>MOL_PROPERTY
Bond
SciTegic.value.DoubleValue
4.454

@<SCITEGIC>MOL_PROPERTY
Angle
SciTegic.value.DoubleValue
11.523

@<SCITEGIC>MOL_PROPERTY
Pdih
SciTegic.value.DoubleValue
137.335

@<SCITEGIC>MOL_PROPERTY
Idih
SciTegic.value.DoubleValue
0.000

@<SCITEGIC>MOL_PROPERTY
Tether
SciTegic.value.DoubleValue
0.000

@<TRIPOS>MOLECULE
CD_guest-s16_fast_vm2_rndm.mol2 : feprocess host+ligand conformer 5
         139         145           2
SMALL
USER_CHARGES
 
@<TRIPOS>ATOM
       1    C1      16.342083   15.320093   20.592401 C.3        1 MOL1         0.2972
       2    H1      15.314299   15.185217   20.231249 H          1 MOL1         0.0751
       3    O1      16.552610   16.645242   21.118432 O.3        1 MOL1        -0.3740
       4    C2      16.679360   14.296536   21.709761 C.3        1 MOL1         0.1003
       5    H2      16.561269   13.294192   21.277932 H          1 MOL1         0.0783
       6    O2      15.787989   14.432628   22.828039 O.3        1 MOL1        -0.5519
       7    H3      15.790070   15.386765   23.095848 H          1 MOL1         0.3769
       8    C3      18.151029   14.444005   22.173947 C.3        1 MOL1         0.1053
       9    H4      18.250305   15.410208   22.682029 H          1 MOL1         0.0783
      10    O3      18.465594   13.388216   23.089500 O.3        1 MOL1        -0.5519
      11    H5      17.675426   13.314127   23.671323 H          1 MOL1         0.3769
      12    C4      19.123145   14.430803   20.962958 C.3        1 MOL1         0.1018
      13    H6      19.184847   13.409767   20.564707 H          1 MOL1         0.0783
      14    C5      18.662705   15.389784   19.833187 C.3        1 MOL1         0.1043
      15    H7      18.754992   16.421459   20.196381 H          1 MOL1         0.0783
      16    O4      17.278027   15.119260   19.510705 O.3        1 MOL1        -0.3740
      17    C6      19.511889   15.294816   18.539985 C.3        1 MOL1         0.0138
      18    H8      20.423036   15.890781   18.680045 H          1 MOL1         0.0794
      19    H9      18.950206   15.757446   17.717614 H          1 MOL1         0.0794
      20    O5      19.867673   13.949099   18.199628 O.3        1 MOL1        -0.5486
      21    H10     20.518980   13.641723   18.867694 H          1 MOL1         0.3769
      22    C7      14.745991   20.294722   21.702744 C.3        1 MOL1         0.2972
      23    H11     14.074223   21.149255   21.856160 H          1 MOL1         0.0751
      24    O6      16.112869   20.714629   21.534913 O.3        1 MOL1        -0.3740
      25    C8      14.685089   19.351260   22.926774 C.3        1 MOL1         0.1003
      26    H12     13.656684   18.976325   23.009967 H          1 MOL1         0.0783
      27    O7      15.033675   20.063230   24.125238 O.3        1 MOL1        -0.5519
      28    H13     15.520088   20.876758   23.844387 H          1 MOL1         0.3769
      29    C9      15.625612   18.142009   22.724043 C.3        1 MOL1         0.1053
      30    H14     16.654635   18.517347   22.724306 H          1 MOL1         0.0783
      31    O8      15.453372   17.211980   23.797840 O.3        1 MOL1        -0.5519
      32    H15     15.464624   17.762861   24.612382 H          1 MOL1         0.3769
      33    C10     15.376117   17.437996   21.368366 C.3        1 MOL1         0.1018
      34    H16     14.471932   16.821014   21.456873 H          1 MOL1         0.0783
      35    C11     15.236861   18.436546   20.182054 C.3        1 MOL1         0.1043
      36    H17     16.237730   18.827882   19.961429 H          1 MOL1         0.0783
      37    O9      14.364443   19.543215   20.531914 O.3        1 MOL1        -0.3740
      38    C12     14.704350   17.787659   18.882170 C.3        1 MOL1         0.0138
      39    H18     15.487592   17.137291   18.469808 H          1 MOL1         0.0794
      40    H19     14.518293   18.580343   18.144998 H          1 MOL1         0.0794
      41    O10     13.510931   17.027703   19.108922 O.3        1 MOL1        -0.5486
      42    H20     13.186838   16.714305   18.236361 H          1 MOL1         0.3769
      43    C13     18.459465   24.049323   20.773091 C.3        1 MOL1         0.2972
      44    H21     18.868787   25.020166   20.465171 H          1 MOL1         0.0751
      45    O11     19.503522   23.124221   21.144445 O.3        1 MOL1        -0.3740
      46    C14     17.471418   24.200615   21.961531 C.3        1 MOL1         0.1003
      47    H22     16.627692   24.806195   21.605740 H          1 MOL1         0.0783
      48    O12     18.074611   24.865309   23.080783 O.3        1 MOL1        -0.5519
      49    H23     18.862023   24.328441   23.351079 H          1 MOL1         0.3769
      50    C15     16.919345   22.813598   22.374695 C.3        1 MOL1         0.1053
      51    H24     17.754516   22.209084   22.754607 H          1 MOL1         0.0783
      52    O13     15.929464   22.965974   23.397443 O.3        1 MOL1        -0.5519
      53    H25     16.305163   23.626254   24.021752 H          1 MOL1         0.3769
      54    C16     16.306044   22.086500   21.152125 C.3        1 MOL1         0.1018
      55    H26     15.360692   22.580766   20.892551 H          1 MOL1         0.0783
      56    C17     17.245520   22.102490   19.913420 C.3        1 MOL1         0.1043
      57    H27     18.106157   21.458924   20.125522 H          1 MOL1         0.0783
      58    O14     17.715127   23.455205   19.683834 O.3        1 MOL1        -0.3740
      59    C18     16.604710   21.559564   18.608556 C.3        1 MOL1         0.0138
      60    H28     16.809645   20.483601   18.543994 H          1 MOL1         0.0794
      61    H29     17.106217   22.028218   17.751323 H          1 MOL1         0.0794
      62    O15     15.190830   21.779442   18.531402 O.3        1 MOL1        -0.5486
      63    H30     14.764229   21.141301   19.149453 H          1 MOL1         0.3769
      64    C19     23.510171   22.650256   21.963884 C.3        1 MOL1         0.2972
      65    H31     24.578907   22.750879   22.194073 H          1 MOL1         0.0751
      66    O16     23.161670   21.291493   21.634500 O.3        1 MOL1        -0.3740
      67    C20     22.665806   23.083405   23.183920 C.3        1 MOL1         0.1003
      68    H32     22.876799   24.143661   23.375106 H          1 MOL1         0.0783
      69    O17     23.015456   22.311786   24.344774 O.3        1 MOL1        -0.5519
      70    H33     23.574828   21.558633   24.032619 H          1 MOL1         0.3769
      71    C21     21.159734   22.939532   22.872761 C.3        1 MOL1         0.1053
      72    H34     20.948360   21.871850   22.743406 H          1 MOL1         0.0783
      73    O18     20.406853   23.448039   23.976875 O.3        1 MOL1        -0.5519
      74    H35     20.844500   23.066367   24.771076 H          1 MOL1         0.3769
      75    C22     20.771471   23.669991   21.560161 C.3        1 MOL1         0.1018
      76    H36     20.713973   24.748773   21.756985 H          1 MOL1         0.0783
      77    C23     21.768752   23.382783   20.399314 C.3        1 MOL1         0.1043
      78    H37     21.587224   22.356783   20.055319 H          1 MOL1         0.0783
      79    O19     23.145929   23.488264   20.847023 O.3        1 MOL1        -0.3740
      80    C24     21.575844   24.313225   19.178323 C.3        1 MOL1         0.0138
      81    H38     20.629156   24.050892   18.686732 H          1 MOL1         0.0794
      82    H39     22.382126   24.119562   18.458062 H          1 MOL1         0.0794
      83    O20     21.561757   25.696567   19.551951 O.3        1 MOL1        -0.5486
      84    H40     21.512047   26.227528   18.727147 H          1 MOL1         0.3769
      85    C25     25.008118   17.626380   20.876674 C.3        1 MOL1         0.2972
      86    H41     25.693832   16.830204   20.559372 H          1 MOL1         0.0751
      87    O21     23.713020   17.102105   21.226041 O.3        1 MOL1        -0.3740
      88    C26     25.576848   18.416952   22.088180 C.3        1 MOL1         0.1003
      89    H42     26.517082   18.877544   21.758057 H          1 MOL1         0.0783
      90    O22     25.851701   17.560416   23.206982 O.3        1 MOL1        -0.5519
      91    H43     25.000476   17.121235   23.459910 H          1 MOL1         0.3769
      92    C27     24.609974   19.556716   22.498419 C.3        1 MOL1         0.1053
      93    H44     23.682896   19.103984   22.875674 H          1 MOL1         0.0783
      94    O23     25.211288   20.353168   23.524430 O.3        1 MOL1        -0.5519
      95    H45     25.617337   19.707575   24.145596 H          1 MOL1         0.3769
      96    C28     24.262619   20.440541   21.273737 C.3        1 MOL1         0.1018
      97    H46     25.152627   21.020242   20.995193 H          1 MOL1         0.0783
      98    C29     23.812325   19.597624   20.051635 C.3        1 MOL1         0.1043
      99    H47     22.851288   19.124689   20.292143 H          1 MOL1         0.0783
     100    O24     24.806781   18.571921   19.799652 O.3        1 MOL1        -0.3740
     101    C30     23.588235   20.422795   18.756950 C.3        1 MOL1         0.0138
     102    H48     22.544837   20.762913   18.742240 H          1 MOL1         0.0794
     103    H49     23.718015   19.759700   17.891284 H          1 MOL1         0.0794
     104    O25     24.459265   21.556119   18.646387 O.3        1 MOL1        -0.5486
     105    H50     24.172858   22.211612   19.323484 H          1 MOL1         0.3769
     106    C31     21.319547   13.911553   21.898331 C.3        1 MOL1         0.2972
     107    H51     20.809675   12.960374   22.097772 H          1 MOL1         0.0751
     108    O26     20.409707   14.908479   21.392948 O.3        1 MOL1        -0.3740
     109    C32     21.962592   14.454308   23.195991 C.3        1 MOL1         0.1003
     110    H52     22.686619   13.706212   23.544154 H          1 MOL1         0.0783
     111    O27     20.960066   14.669568   24.205884 O.3        1 MOL1        -0.5519
     112    H53     20.191235   14.091806   23.977936 H          1 MOL1         0.3769
     113    C33     22.712413   15.777437   22.922636 C.3        1 MOL1         0.1053
     114    H54     21.949567   16.536037   22.734075 H          1 MOL1         0.0783
     115    O28     23.466613   16.150761   24.079541 O.3        1 MOL1        -0.5519
     116    H55     22.828068   16.102559   24.825754 H          1 MOL1         0.3769
     117    C34     23.629406   15.734467   21.672544 C.3        1 MOL1         0.1018
     118    H56     24.607607   15.327808   21.961115 H          1 MOL1         0.0783
     119    C35     23.032418   14.932473   20.478763 C.3        1 MOL1         0.1043
     120    H57     22.290881   15.573381   19.985491 H          1 MOL1         0.0783
     121    O29     22.371498   13.724652   20.930577 O.3        1 MOL1        -0.3740
     122    C36     24.079259   14.551764   19.404921 C.3        1 MOL1         0.0138
     123    H58     24.388663   15.465999   18.880642 H          1 MOL1         0.0794
     124    H59     23.599263   13.898301   18.664078 H          1 MOL1         0.0794
     125    O30     25.225395   13.904785   19.971443 O.3        1 MOL1        -0.5486
     126    H60     25.806374   13.624519   19.230577 H          1 MOL1         0.3769
     127    C1      19.356188   19.582908   21.807216 C.3        1 MOL1        -0.1693
     128    H1      18.462240   19.266341   21.255470 H          1 MOL1         0.0829
     129    H2      19.756676   20.489015   21.343168 H          1 MOL1         0.0829
     130    C2      20.394548   18.449448   22.067339 C.3        1 MOL1        -0.1768
     131    H3      20.479747   17.685716   21.288133 H          1 MOL1         0.0829
     132    H4      21.398786   18.806054   22.324932 H          1 MOL1         0.0829
     133    C3      19.504543   18.085432   23.295347 C.3        1 MOL1         0.1211
     134    H5      18.628737   17.474362   23.048140 H          1 MOL1         0.0786
     135    C4      19.195546   19.611043   23.364213 C.3        1 MOL1        -0.1768
     136    H6      19.950783   20.195698   23.902425 H          1 MOL1         0.0829
     137    H7      18.206866   19.884222   23.747049 H          1 MOL1         0.0829
     138    O1      20.182902   17.556519   24.412408 O.3        1 MOL1        -0.5515
     139    H8      20.363502   16.602918   24.241778 H          1 MOL1         0.3773
@<TRIPOS>BOND
    1     1     2    1
    2     1     3    1
    3     1     4    1
    4     4     5    1
    5     4     6    1
    6     6     7    1
    7     4     8    1
    8     8     9    1
    9     8    10    1
   10    10    11    1
   11     8    12    1
   12    12    13    1
   13    12    14    1
   14    14    15    1
   15     1    16    1
   16    14    16    1
   17    14    17    1
   18    17    18    1
   19    17    19    1
   20    17    20    1
   21    20    21    1
   22    22    23    1
   23    22    24    1
   24    22    25    1
   25    25    26    1
   26    25    27    1
   27    27    28    1
   28    25    29    1
   29    29    30    1
   30    29    31    1
   31    31    32    1
   32     3    33    1
   33    29    33    1
   34    33    34    1
   35    33    35    1
   36    35    36    1
   37    22    37    1
   38    35    37    1
   39    35    38    1
   40    38    39    1
   41    38    40    1
   42    38    41    1
   43    41    42    1
   44    43    44    1
   45    43    45    1
   46    43    46    1
   47    46    47    1
   48    46    48    1
   49    48    49    1
   50    46    50    1
   51    50    51    1
   52    50    52    1
   53    52    53    1
   54    24    54    1
   55    50    54    1
   56    54    55    1
   57    54    56    1
   58    56    57    1
   59    43    58    1
   60    56    58    1
   61    56    59    1
   62    59    60    1
   63    59    61    1
   64    59    62    1
   65    62    63    1
   66    64    65    1
   67    64    66    1
   68    64    67    1
   69    67    68    1
   70    67    69    1
   71    69    70    1
   72    67    71    1
   73    71    72    1
   74    71    73    1
   75    73    74    1
   76    45    75    1
   77    71    75    1
   78    75    76    1
   79    75    77    1
   80    77    78    1
   81    64    79    1
   82    77    79    1
   83    77    80    1
   84    80    81    1
   85    80    82    1
   86    80    83    1
   87    83    84    1
   88    85    86    1
   89    85    87    1
   90    85    88    1
   91    88    89    1
   92    88    90    1
   93    90    91    1
   94    88    92    1
   95    92    93    1
   96    92    94    1
   97    94    95    1
   98    66    96    1
   99    92    96    1
  100    96    97    1
  101    96    98    1
  102    98    99    1
  103    85   100    1
  104    98   100    1
  105    98   101    1
  106   101   102    1
  107   101   103    1
  108   101   104    1
  109   104   105    1
  110   106   107    1
  111    12   108    1
  112   106   108    1
  113   106   109    1
  114   109   110    1
  115   109   111    1
  116   111   112    1
  117   109   113    1
  118   113   114    1
  119   113   115    1
  120   115   116    1
  121    87   117    1
  122   113   117    1
  123   117   118    1
  124   117   119    1
  125   119   120    1
  126   106   121    1
  127   119   121    1
  128   119   122    1
  129   122   123    1
  130   122   124    1
  131   122   125    1
  132   125   126    1
  133   127   128    1
  134   127   129    1
  135   127   130    1
  136   130   131    1
  137   130   132    1
  138   130   133    1
  139   133   134    1
  140   127   135    1
  141   133   135    1
  142   135   136    1
  143   135   137    1
  144   133   138    1
  145   138   139    1
@<TRIPOS>SUBSTRUCTURE
       1 MOL1            1 RESIDUE      1      MOL     
       2 MOL1          139 RESIDUE      1      MOL     
@<SCITEGIC>MOL_PROPERTY
feprocess Rank
SciTegic.value.IntegerValue
5

@<SCITEGIC>MOL_PROPERTY
Conf_Id
SciTegic.value.IntegerValue
879

@<SCITEGIC>MOL_PROPERTY
Probability
SciTegic.value.DoubleValue
4.78

@<SCITEGIC>MOL_PROPERTY
G
SciTegic.value.DoubleValue
545.863

@<SCITEGIC>MOL_PROPERTY
E
SciTegic.value.DoubleValue
367.509

@<SCITEGIC>MOL_PROPERTY
-TS
SciTegic.value.DoubleValue
178.354

@<SCITEGIC>MOL_PROPERTY
U+W
SciTegic.value.DoubleValue
244.998

@<SCITEGIC>MOL_PROPERTY
U
SciTegic.value.DoubleValue
281.854

@<SCITEGIC>MOL_PROPERTY
W
SciTegic.value.DoubleValue
-36.857

@<SCITEGIC>MOL_PROPERTY
W(PB)
SciTegic.value.DoubleValue
-42.898

@<SCITEGIC>MOL_PROPERTY
W(SA)
SciTegic.value.DoubleValue
6.041

@<SCITEGIC>MOL_PROPERTY
Valence
SciTegic.value.DoubleValue
152.291

@<SCITEGIC>MOL_PROPERTY
Coulomb
SciTegic.value.DoubleValue
149.658

@<SCITEGIC>MOL_PROPERTY
VdW
SciTegic.value.DoubleValue
-20.094

@<SCITEGIC>MOL_PROPERTY
VdW6
SciTegic.value.DoubleValue
-168.276

@<SCITEGIC>MOL_PROPERTY
VdW12
SciTegic.value.DoubleValue
148.182

@<SCITEGIC>MOL_PROPERTY
Bond
SciTegic.value.DoubleValue
4.688

@<SCITEGIC>MOL_PROPERTY
Angle
SciTegic.value.DoubleValue
12.596

@<SCITEGIC>MOL_PROPERTY
Pdih
SciTegic.value.DoubleValue
135.007

@<SCITEGIC>MOL_PROPERTY
Idih
SciTegic.value.DoubleValue
0.000

@<SCITEGIC>MOL_PROPERTY
Tether
SciTegic.value.DoubleValue
0.000

@<TRIPOS>MOLECULE
CD_guest-s16_fast_vm2_rndm.mol2 : feprocess host+ligand conformer 6
         139         145           2
SMALL
USER_CHARGES
 
@<TRIPOS>ATOM
       1    C1      16.227999   15.316638   21.591648 C.3        1 MOL1         0.2972
       2    H1      15.139188   15.222269   21.696193 H          1 MOL1         0.0751
       3    O1      16.620392   16.676452   21.322540 O.3        1 MOL1        -0.3740
       4    C2      16.923145   14.861552   22.895612 C.3        1 MOL1         0.1003
       5    H2      16.679395   13.802270   23.049589 H          1 MOL1         0.0783
       6    O2      16.450418   15.626849   24.016447 O.3        1 MOL1        -0.5519
       7    H3      15.906564   16.366627   23.650319 H          1 MOL1         0.3769
       8    C3      18.456999   14.989719   22.761876 C.3        1 MOL1         0.1053
       9    H4      18.695974   16.056803   22.680054 H          1 MOL1         0.0783
      10    O3      19.076884   14.448047   23.931491 O.3        1 MOL1        -0.5519
      11    H5      18.561108   14.821674   24.681218 H          1 MOL1         0.3769
      12    C4      18.983545   14.275497   21.489938 C.3        1 MOL1         0.1018
      13    H6      19.006330   13.193531   21.676142 H          1 MOL1         0.0783
      14    C5      18.130754   14.590489   20.226099 C.3        1 MOL1         0.1043
      15    H7      18.358797   15.619568   19.921841 H          1 MOL1         0.0783
      16    O4      16.711044   14.490900   20.511482 O.3        1 MOL1        -0.3740
      17    C6      18.455083   13.676712   19.020369 C.3        1 MOL1         0.0138
      18    H8      19.453172   13.938323   18.643442 H          1 MOL1         0.0794
      19    H9      17.737270   13.887856   18.216306 H          1 MOL1         0.0794
      20    O5      18.417315   12.287865   19.371274 O.3        1 MOL1        -0.5486
      21    H10     18.557850   11.768926   18.549318 H          1 MOL1         0.3769
      22    C7      14.901484   20.364750   20.423820 C.3        1 MOL1         0.2972
      23    H11     14.277061   21.182117   20.040724 H          1 MOL1         0.0751
      24    O6      16.138432   20.855008   20.976134 O.3        1 MOL1        -0.3740
      25    C8      14.155945   19.536625   21.507075 C.3        1 MOL1         0.1003
      26    H12     13.279538   19.087742   21.021668 H          1 MOL1         0.0783
      27    O7      13.707807   20.355863   22.596942 O.3        1 MOL1        -0.5519
      28    H13     14.508420   20.782629   22.994439 H          1 MOL1         0.3769
      29    C9      15.055211   18.383386   22.020569 C.3        1 MOL1         0.1053
      30    H14     15.918299   18.822496   22.539361 H          1 MOL1         0.0783
      31    O8      14.315013   17.559741   22.927574 O.3        1 MOL1        -0.5519
      32    H15     13.816683   18.188532   23.496669 H          1 MOL1         0.3769
      33    C10     15.576051   17.534365   20.832967 C.3        1 MOL1         0.1018
      34    H16     14.737179   16.960010   20.418136 H          1 MOL1         0.0783
      35    C11     16.189604   18.408823   19.706974 C.3        1 MOL1         0.1043
      36    H17     17.112044   18.864864   20.087479 H          1 MOL1         0.0783
      37    O9      15.246564   19.453460   19.353498 O.3        1 MOL1        -0.3740
      38    C12     16.583413   17.619011   18.431003 C.3        1 MOL1         0.0138
      39    H18     17.617764   17.271057   18.547828 H          1 MOL1         0.0794
      40    H19     16.575006   18.307397   17.575450 H          1 MOL1         0.0794
      41    O10     15.730609   16.496443   18.170528 O.3        1 MOL1        -0.5486
      42    H20     15.911310   15.824059   18.866977 H          1 MOL1         0.3769
      43    C13     18.475547   23.943406   22.171107 C.3        1 MOL1         0.2972
      44    H21     18.958783   24.870701   22.504802 H          1 MOL1         0.0751
      45    O11     19.455353   22.951627   21.797653 O.3        1 MOL1        -0.3740
      46    C14     17.579334   23.386645   23.304371 C.3        1 MOL1         0.1003
      47    H22     16.811054   24.141765   23.515086 H          1 MOL1         0.0783
      48    O12     18.344758   23.141254   24.493104 O.3        1 MOL1        -0.5519
      49    H23     18.964708   22.401462   24.275542 H          1 MOL1         0.3769
      50    C15     16.873641   22.086430   22.867716 C.3        1 MOL1         0.1053
      51    H24     17.645895   21.316836   22.787075 H          1 MOL1         0.0783
      52    O13     15.927613   21.698621   23.868405 O.3        1 MOL1        -0.5519
      53    H25     16.420262   21.752694   24.717767 H          1 MOL1         0.3769
      54    C16     16.179189   22.201871   21.487433 C.3        1 MOL1         0.1018
      55    H26     15.177322   22.630728   21.621535 H          1 MOL1         0.0783
      56    C17     16.993991   23.020456   20.444696 C.3        1 MOL1         0.1043
      57    H27     17.777886   22.355965   20.069600 H          1 MOL1         0.0783
      58    O14     17.625553   24.189589   21.029961 O.3        1 MOL1        -0.3740
      59    C18     16.157255   23.466488   19.222133 C.3        1 MOL1         0.0138
      60    H28     15.900871   22.576418   18.631759 H          1 MOL1         0.0794
      61    H29     16.778129   24.111196   18.585640 H          1 MOL1         0.0794
      62    O15     14.961680   24.153467   19.610532 O.3        1 MOL1        -0.5486
      63    H30     14.521033   24.471849   18.792391 H          1 MOL1         0.3769
      64    C19     23.464619   22.594322   20.761972 C.3        1 MOL1         0.2972
      65    H31     24.477439   22.712424   20.355572 H          1 MOL1         0.0751
      66    O16     23.259931   21.277261   21.308678 O.3        1 MOL1        -0.3740
      67    C20     23.184699   23.636657   21.874116 C.3        1 MOL1         0.1003
      68    H32     23.296897   24.629543   21.419432 H          1 MOL1         0.0783
      69    O17     24.122879   23.508604   22.954704 O.3        1 MOL1        -0.5519
      70    H33     24.099879   22.565093   23.256499 H          1 MOL1         0.3769
      71    C21     21.732318   23.520650   22.404697 C.3        1 MOL1         0.1053
      72    H34     21.652913   22.590369   22.981825 H          1 MOL1         0.0783
      73    O18     21.468557   24.640817   23.254870 O.3        1 MOL1        -0.5519
      74    H35     22.225185   24.676383   23.880247 H          1 MOL1         0.3769
      75    C22     20.688923   23.468381   21.253520 C.3        1 MOL1         0.1018
      76    H36     20.562035   24.484095   20.857077 H          1 MOL1         0.0783
      77    C23     21.115975   22.521672   20.094182 C.3        1 MOL1         0.1043
      78    H37     21.043092   21.486059   20.448327 H          1 MOL1         0.0783
      79    O19     22.486213   22.801147   19.722734 O.3        1 MOL1        -0.3740
      80    C24     20.242294   22.619207   18.816259 C.3        1 MOL1         0.0138
      81    H38     19.436085   21.879519   18.888405 H          1 MOL1         0.0794
      82    H39     20.853306   22.325644   17.952182 H          1 MOL1         0.0794
      83    O20     19.691238   23.925651   18.602207 O.3        1 MOL1        -0.5486
      84    H40     19.093666   24.124369   19.358932 H          1 MOL1         0.3769
      85    C25     25.054948   17.632898   21.939056 C.3        1 MOL1         0.2972
      86    H41     25.726123   16.780143   22.104120 H          1 MOL1         0.0751
      87    O21     23.687371   17.210519   21.776654 O.3        1 MOL1        -0.3740
      88    C26     25.117913   18.590633   23.151782 C.3        1 MOL1         0.1003
      89    H42     26.148745   18.959060   23.234175 H          1 MOL1         0.0783
      90    O22     24.760230   17.894240   24.356697 O.3        1 MOL1        -0.5519
      91    H43     24.235625   17.101733   24.084623 H          1 MOL1         0.3769
      92    C27     24.187304   19.804941   22.934099 C.3        1 MOL1         0.1053
      93    H44     23.155318   19.438723   22.942865 H          1 MOL1         0.0783
      94    O23     24.369929   20.747612   23.995245 O.3        1 MOL1        -0.5519
      95    H45     24.367451   20.206414   24.816313 H          1 MOL1         0.3769
      96    C28     24.436658   20.488677   21.567924 C.3        1 MOL1         0.1018
      97    H46     25.341439   21.106402   21.644524 H          1 MOL1         0.0783
      98    C29     24.570000   19.472686   20.396136 C.3        1 MOL1         0.1043
      99    H47     23.567286   19.080881   20.184540 H          1 MOL1         0.0783
     100    O24     25.440006   18.369110   20.759976 O.3        1 MOL1        -0.3740
     101    C30     25.100345   20.100474   19.085060 C.3        1 MOL1         0.0138
     102    H48     24.317079   20.745615   18.664608 H          1 MOL1         0.0794
     103    H49     25.283436   19.296129   18.359871 H          1 MOL1         0.0794
     104    O25     26.295476   20.861890   19.296990 O.3        1 MOL1        -0.5486
     105    H50     26.619457   21.159034   18.418728 H          1 MOL1         0.3769
     106    C31     21.354564   13.877780   20.937255 C.3        1 MOL1         0.2972
     107    H51     20.960009   12.902523   20.624010 H          1 MOL1         0.0751
     108    O26     20.296749   14.811416   21.237642 O.3        1 MOL1        -0.3740
     109    C32     22.264301   13.745478   22.188084 C.3        1 MOL1         0.1003
     110    H52     23.118313   13.116463   21.905039 H          1 MOL1         0.0783
     111    O27     21.574178   13.126122   23.283698 O.3        1 MOL1        -0.5519
     112    H53     20.753107   13.654654   23.452254 H          1 MOL1         0.3769
     113    C33     22.811205   15.134741   22.600864 C.3        1 MOL1         0.1053
     114    H54     21.962991   15.753336   22.923467 H          1 MOL1         0.0783
     115    O28     23.742271   14.993068   23.678935 O.3        1 MOL1        -0.5519
     116    H55     23.321456   14.356574   24.299086 H          1 MOL1         0.3769
     117    C34     23.497166   15.834869   21.401342 C.3        1 MOL1         0.1018
     118    H56     24.448372   15.324610   21.200777 H          1 MOL1         0.0783
     119    C35     22.623072   15.805326   20.116139 C.3        1 MOL1         0.1043
     120    H57     21.754853   16.453518   20.275688 H          1 MOL1         0.0783
     121    O29     22.161884   14.450957   19.882875 O.3        1 MOL1        -0.3740
     122    C36     23.330315   16.323675   18.836135 C.3        1 MOL1         0.0138
     123    H58     23.142610   17.400974   18.748040 H          1 MOL1         0.0794
     124    H59     22.862978   15.849712   17.962668 H          1 MOL1         0.0794
     125    O30     24.742847   16.084466   18.827502 O.3        1 MOL1        -0.5486
     126    H60     25.150896   16.744931   19.434718 H          1 MOL1         0.3769
     127    C1      20.249681   18.342323   21.588652 C.3        1 MOL1        -0.1693
     128    H1      21.119607   18.614684   20.977151 H          1 MOL1         0.0829
     129    H2      19.795335   17.436120   21.175896 H          1 MOL1         0.0829
     130    C2      19.265528   19.516289   21.883372 C.3        1 MOL1        -0.1768
     131    H3      19.134521   20.255009   21.087089 H          1 MOL1         0.0829
     132    H4      18.277323   19.199407   22.237525 H          1 MOL1         0.0829
     133    C3      20.268713   19.893493   23.015653 C.3        1 MOL1         0.1211
     134    H5      21.144368   20.449520   22.660491 H          1 MOL1         0.0786
     135    C4      20.503606   18.357155   23.133558 C.3        1 MOL1        -0.1768
     136    H6      21.497356   18.042592   23.466086 H          1 MOL1         0.0829
     137    H7      19.752677   17.828576   23.733384 H          1 MOL1         0.0829
     138    O1      19.717253   20.517676   24.152293 O.3        1 MOL1        -0.5515
     139    H8      20.349916   20.378844   24.886337 H          1 MOL1         0.3773
@<TRIPOS>BOND
    1     1     2    1
    2     1     3    1
    3     1     4    1
    4     4     5    1
    5     4     6    1
    6     6     7    1
    7     4     8    1
    8     8     9    1
    9     8    10    1
   10    10    11    1
   11     8    12    1
   12    12    13    1
   13    12    14    1
   14    14    15    1
   15     1    16    1
   16    14    16    1
   17    14    17    1
   18    17    18    1
   19    17    19    1
   20    17    20    1
   21    20    21    1
   22    22    23    1
   23    22    24    1
   24    22    25    1
   25    25    26    1
   26    25    27    1
   27    27    28    1
   28    25    29    1
   29    29    30    1
   30    29    31    1
   31    31    32    1
   32     3    33    1
   33    29    33    1
   34    33    34    1
   35    33    35    1
   36    35    36    1
   37    22    37    1
   38    35    37    1
   39    35    38    1
   40    38    39    1
   41    38    40    1
   42    38    41    1
   43    41    42    1
   44    43    44    1
   45    43    45    1
   46    43    46    1
   47    46    47    1
   48    46    48    1
   49    48    49    1
   50    46    50    1
   51    50    51    1
   52    50    52    1
   53    52    53    1
   54    24    54    1
   55    50    54    1
   56    54    55    1
   57    54    56    1
   58    56    57    1
   59    43    58    1
   60    56    58    1
   61    56    59    1
   62    59    60    1
   63    59    61    1
   64    59    62    1
   65    62    63    1
   66    64    65    1
   67    64    66    1
   68    64    67    1
   69    67    68    1
   70    67    69    1
   71    69    70    1
   72    67    71    1
   73    71    72    1
   74    71    73    1
   75    73    74    1
   76    45    75    1
   77    71    75    1
   78    75    76    1
   79    75    77    1
   80    77    78    1
   81    64    79    1
   82    77    79    1
   83    77    80    1
   84    80    81    1
   85    80    82    1
   86    80    83    1
   87    83    84    1
   88    85    86    1
   89    85    87    1
   90    85    88    1
   91    88    89    1
   92    88    90    1
   93    90    91    1
   94    88    92    1
   95    92    93    1
   96    92    94    1
   97    94    95    1
   98    66    96    1
   99    92    96    1
  100    96    97    1
  101    96    98    1
  102    98    99    1
  103    85   100    1
  104    98   100    1
  105    98   101    1
  106   101   102    1
  107   101   103    1
  108   101   104    1
  109   104   105    1
  110   106   107    1
  111    12   108    1
  112   106   108    1
  113   106   109    1
  114   109   110    1
  115   109   111    1
  116   111   112    1
  117   109   113    1
  118   113   114    1
  119   113   115    1
  120   115   116    1
  121    87   117    1
  122   113   117    1
  123   117   118    1
  124   117   119    1
  125   119   120    1
  126   106   121    1
  127   119   121    1
  128   119   122    1
  129   122   123    1
  130   122   124    1
  131   122   125    1
  132   125   126    1
  133   127   128    1
  134   127   129    1
  135   127   130    1
  136   130   131    1
  137   130   132    1
  138   130   133    1
  139   133   134    1
  140   127   135    1
  141   133   135    1
  142   135   136    1
  143   135   137    1
  144   133   138    1
  145   138   139    1
@<TRIPOS>SUBSTRUCTURE
       1 MOL1            1 RESIDUE      1      MOL     
       2 MOL1          139 RESIDUE      1      MOL     
@<SCITEGIC>MOL_PROPERTY
feprocess Rank
SciTegic.value.IntegerValue
6

@<SCITEGIC>MOL_PROPERTY
Conf_Id
SciTegic.value.IntegerValue
991

@<SCITEGIC>MOL_PROPERTY
Probability
SciTegic.value.DoubleValue
4.03

@<SCITEGIC>MOL_PROPERTY
G
SciTegic.value.DoubleValue
545.965

@<SCITEGIC>MOL_PROPERTY
E
SciTegic.value.DoubleValue
366.810

@<SCITEGIC>MOL_PROPERTY
-TS
SciTegic.value.DoubleValue
179.155

@<SCITEGIC>MOL_PROPERTY
U+W
SciTegic.value.DoubleValue
244.298

@<SCITEGIC>MOL_PROPERTY
U
SciTegic.value.DoubleValue
282.437

@<SCITEGIC>MOL_PROPERTY
W
SciTegic.value.DoubleValue
-38.139

@<SCITEGIC>MOL_PROPERTY
W(PB)
SciTegic.value.DoubleValue
-44.098

@<SCITEGIC>MOL_PROPERTY
W(SA)
SciTegic.value.DoubleValue
5.959

@<SCITEGIC>MOL_PROPERTY
Valence
SciTegic.value.DoubleValue
152.141

@<SCITEGIC>MOL_PROPERTY
Coulomb
SciTegic.value.DoubleValue
151.641

@<SCITEGIC>MOL_PROPERTY
VdW
SciTegic.value.DoubleValue
-21.345

@<SCITEGIC>MOL_PROPERTY
VdW6
SciTegic.value.DoubleValue
-170.354

@<SCITEGIC>MOL_PROPERTY
VdW12
SciTegic.value.DoubleValue
149.009

@<SCITEGIC>MOL_PROPERTY
Bond
SciTegic.value.DoubleValue
4.695

@<SCITEGIC>MOL_PROPERTY
Angle
SciTegic.value.DoubleValue
13.171

@<SCITEGIC>MOL_PROPERTY
Pdih
SciTegic.value.DoubleValue
134.274

@<SCITEGIC>MOL_PROPERTY
Idih
SciTegic.value.DoubleValue
0.000

@<SCITEGIC>MOL_PROPERTY
Tether
SciTegic.value.DoubleValue
0.000

@<TRIPOS>MOLECULE
CD_guest-s16_fast_vm2_rndm.mol2 : feprocess host+ligand conformer 7
         139         145           2
SMALL
USER_CHARGES
 
@<TRIPOS>ATOM
       1    C1      16.245633   15.334422   21.570406 C.3        1 MOL1         0.2972
       2    H1      15.161733   15.242950   21.716913 H          1 MOL1         0.0751
       3    O1      16.612115   16.649798   21.104780 O.3        1 MOL1        -0.3740
       4    C2      16.992603   15.049347   22.896606 C.3        1 MOL1         0.1003
       5    H2      16.762227   14.015953   23.186889 H          1 MOL1         0.0783
       6    O2      16.570378   15.941813   23.941398 O.3        1 MOL1        -0.5519
       7    H3      15.776349   16.426174   23.607423 H          1 MOL1         0.3769
       8    C3      18.518535   15.166993   22.689934 C.3        1 MOL1         0.1053
       9    H4      18.734319   16.217472   22.466678 H          1 MOL1         0.0783
      10    O3      19.183070   14.784781   23.897339 O.3        1 MOL1        -0.5519
      11    H5      18.677103   15.238471   24.608816 H          1 MOL1         0.3769
      12    C4      19.016067   14.310746   21.496091 C.3        1 MOL1         0.1018
      13    H6      19.069253   13.260449   21.811959 H          1 MOL1         0.0783
      14    C5      18.107692   14.451214   20.239548 C.3        1 MOL1         0.1043
      15    H7      18.301847   15.435282   19.793539 H          1 MOL1         0.0783
      16    O4      16.704444   14.370190   20.599732 O.3        1 MOL1        -0.3740
      17    C6      18.397680   13.392404   19.149002 C.3        1 MOL1         0.0138
      18    H8      19.372076   13.618324   18.695008 H          1 MOL1         0.0794
      19    H9      17.640357   13.486335   18.359180 H          1 MOL1         0.0794
      20    O5      18.405288   12.060026   19.676864 O.3        1 MOL1        -0.5486
      21    H10     18.516522   11.441192   18.922227 H          1 MOL1         0.3769
      22    C7      14.857950   20.375826   20.483360 C.3        1 MOL1         0.2972
      23    H11     14.231100   21.219347   20.166508 H          1 MOL1         0.0751
      24    O6      16.109038   20.821537   21.039268 O.3        1 MOL1        -0.3740
      25    C8      14.132382   19.490784   21.531708 C.3        1 MOL1         0.1003
      26    H12     13.236637   19.084216   21.044249 H          1 MOL1         0.0783
      27    O7      13.728080   20.248936   22.681873 O.3        1 MOL1        -0.5519
      28    H13     14.541951   20.666168   23.062820 H          1 MOL1         0.3769
      29    C9      15.025826   18.296174   21.953297 C.3        1 MOL1         0.1053
      30    H14     15.899952   18.692552   22.488047 H          1 MOL1         0.0783
      31    O8      14.275656   17.438493   22.820169 O.3        1 MOL1        -0.5519
      32    H15     13.772394   18.048473   23.406500 H          1 MOL1         0.3769
      33    C10     15.528760   17.512708   20.709168 C.3        1 MOL1         0.1018
      34    H16     14.693706   16.939600   20.286270 H          1 MOL1         0.0783
      35    C11     16.102013   18.454271   19.615116 C.3        1 MOL1         0.1043
      36    H17     17.045361   18.876074   19.985670 H          1 MOL1         0.0783
      37    O9      15.165860   19.530217   19.353131 O.3        1 MOL1        -0.3740
      38    C12     16.429946   17.736456   18.281843 C.3        1 MOL1         0.0138
      39    H18     17.364090   17.173935   18.410746 H          1 MOL1         0.0794
      40    H19     16.615962   18.497781   17.512730 H          1 MOL1         0.0794
      41    O10     15.389508   16.848539   17.854984 O.3        1 MOL1        -0.5486
      42    H20     15.416376   16.062154   18.442184 H          1 MOL1         0.3769
      43    C13     18.484828   23.892039   22.237706 C.3        1 MOL1         0.2972
      44    H21     18.967142   24.817774   22.576915 H          1 MOL1         0.0751
      45    O11     19.466155   22.908799   21.845229 O.3        1 MOL1        -0.3740
      46    C14     17.599946   23.320234   23.372850 C.3        1 MOL1         0.1003
      47    H22     16.828485   24.069456   23.592950 H          1 MOL1         0.0783
      48    O12     18.370740   23.072586   24.558500 O.3        1 MOL1        -0.5519
      49    H23     18.999504   22.339386   24.342858 H          1 MOL1         0.3769
      50    C15     16.896675   22.021965   22.926115 C.3        1 MOL1         0.1053
      51    H24     17.670591   21.259409   22.809559 H          1 MOL1         0.0783
      52    O13     15.971509   21.606227   23.935264 O.3        1 MOL1        -0.5519
      53    H25     16.460796   21.699006   24.783120 H          1 MOL1         0.3769
      54    C16     16.177158   22.162151   21.563220 C.3        1 MOL1         0.1018
      55    H26     15.183906   22.601939   21.723899 H          1 MOL1         0.0783
      56    C17     16.983078   22.985239   20.517745 C.3        1 MOL1         0.1043
      57    H27     17.760369   22.320560   20.130219 H          1 MOL1         0.0783
      58    O14     17.624293   24.147898   21.106013 O.3        1 MOL1        -0.3740
      59    C18     16.134436   23.443798   19.307943 C.3        1 MOL1         0.0138
      60    H28     15.872360   22.559900   18.710767 H          1 MOL1         0.0794
      61    H29     16.748729   24.095255   18.671986 H          1 MOL1         0.0794
      62    O15     14.942623   24.126353   19.715277 O.3        1 MOL1        -0.5486
      63    H30     14.494387   24.453916   18.904923 H          1 MOL1         0.3769
      64    C19     23.454578   22.590799   20.725111 C.3        1 MOL1         0.2972
      65    H31     24.458012   22.712536   20.297061 H          1 MOL1         0.0751
      66    O16     23.270160   21.277406   21.286939 O.3        1 MOL1        -0.3740
      67    C20     23.188013   23.642038   21.832050 C.3        1 MOL1         0.1003
      68    H32     23.280134   24.631008   21.364490 H          1 MOL1         0.0783
      69    O17     24.150493   23.535296   22.893368 O.3        1 MOL1        -0.5519
      70    H33     24.140420   22.595954   23.208647 H          1 MOL1         0.3769
      71    C21     21.748624   23.517085   22.395150 C.3        1 MOL1         0.1053
      72    H34     21.693334   22.594036   22.986343 H          1 MOL1         0.0783
      73    O18     21.490993   24.645168   23.236763 O.3        1 MOL1        -0.5519
      74    H35     22.261120   24.697414   23.844350 H          1 MOL1         0.3769
      75    C22     20.679951   23.438340   21.268218 C.3        1 MOL1         0.1018
      76    H36     20.529014   24.448743   20.866712 H          1 MOL1         0.0783
      77    C23     21.094414   22.488657   20.106240 C.3        1 MOL1         0.1043
      78    H37     21.039380   21.454681   20.468624 H          1 MOL1         0.0783
      79    O19     22.453638   22.780148   19.704794 O.3        1 MOL1        -0.3740
      80    C24     20.196335   22.568388   18.844300 C.3        1 MOL1         0.0138
      81    H38     19.395732   21.825220   18.938695 H          1 MOL1         0.0794
      82    H39     20.792659   22.268820   17.972052 H          1 MOL1         0.0794
      83    O20     19.635727   23.870220   18.627035 O.3        1 MOL1        -0.5486
      84    H40     19.056457   24.077310   19.395458 H          1 MOL1         0.3769
      85    C25     25.082338   17.650153   21.929068 C.3        1 MOL1         0.2972
      86    H41     25.755967   16.799834   22.096120 H          1 MOL1         0.0751
      87    O21     23.713930   17.224330   21.780546 O.3        1 MOL1        -0.3740
      88    C26     25.153897   18.616535   23.134287 C.3        1 MOL1         0.1003
      89    H42     26.186442   18.981896   23.208341 H          1 MOL1         0.0783
      90    O22     24.801743   17.928500   24.345558 O.3        1 MOL1        -0.5519
      91    H43     24.237572   17.159451   24.084965 H          1 MOL1         0.3769
      92    C27     24.227287   19.834146   22.915699 C.3        1 MOL1         0.1053
      93    H44     23.192369   19.477551   22.944075 H          1 MOL1         0.0783
      94    O23     24.433205   20.788501   23.962153 O.3        1 MOL1        -0.5519
      95    H45     24.417023   20.261229   24.791982 H          1 MOL1         0.3769
      96    C28     24.457234   20.502502   21.538958 C.3        1 MOL1         0.1018
      97    H46     25.357176   21.129063   21.598798 H          1 MOL1         0.0783
      98    C29     24.585638   19.476316   20.375246 C.3        1 MOL1         0.1043
      99    H47     23.583117   19.079419   20.172314 H          1 MOL1         0.0783
     100    O24     25.460360   18.378117   20.742885 O.3        1 MOL1        -0.3740
     101    C30     25.106040   20.094346   19.055560 C.3        1 MOL1         0.0138
     102    H48     24.318157   20.733428   18.634468 H          1 MOL1         0.0794
     103    H49     25.287142   19.284247   18.336330 H          1 MOL1         0.0794
     104    O25     26.300173   20.861162   19.253095 O.3        1 MOL1        -0.5486
     105    H50     26.617860   21.151264   18.370188 H          1 MOL1         0.3769
     106    C31     21.380656   13.889519   20.916188 C.3        1 MOL1         0.2972
     107    H51     20.997984   12.907510   20.609535 H          1 MOL1         0.0751
     108    O26     20.308776   14.833288   21.126331 O.3        1 MOL1        -0.3740
     109    C32     22.235026   13.785029   22.209454 C.3        1 MOL1         0.1003
     110    H52     23.097743   13.147693   21.975645 H          1 MOL1         0.0783
     111    O27     21.503390   13.190474   23.291312 O.3        1 MOL1        -0.5519
     112    H53     20.720631   13.771269   23.468304 H          1 MOL1         0.3769
     113    C33     22.771505   15.181004   22.611464 C.3        1 MOL1         0.1053
     114    H54     21.913363   15.813121   22.875669 H          1 MOL1         0.0783
     115    O28     23.649806   15.062050   23.735792 O.3        1 MOL1        -0.5519
     116    H55     23.195223   14.446782   24.353275 H          1 MOL1         0.3769
     117    C34     23.520634   15.842329   21.428150 C.3        1 MOL1         0.1018
     118    H56     24.472563   15.314224   21.285874 H          1 MOL1         0.0783
     119    C35     22.704799   15.787010   20.105695 C.3        1 MOL1         0.1043
     120    H57     21.837639   16.448070   20.208459 H          1 MOL1         0.0783
     121    O29     22.241069   14.430233   19.886481 O.3        1 MOL1        -0.3740
     122    C36     23.473591   16.264091   18.845513 C.3        1 MOL1         0.0138
     123    H58     23.311431   17.342736   18.727686 H          1 MOL1         0.0794
     124    H59     23.032711   15.780301   17.963722 H          1 MOL1         0.0794
     125    O30     24.880010   15.997858   18.900117 O.3        1 MOL1        -0.5486
     126    H60     25.279235   16.686327   19.481374 H          1 MOL1         0.3769
     127    C1      20.405446   18.387663   21.622266 C.3        1 MOL1        -0.1693
     128    H1      21.274182   18.760698   21.064568 H          1 MOL1         0.0829
     129    H2      20.049717   17.469510   21.145866 H          1 MOL1         0.0829
     130    C2      19.309094   19.456694   21.922060 C.3        1 MOL1        -0.1768
     131    H3      19.153035   20.219967   21.153720 H          1 MOL1         0.0829
     132    H4      18.334447   19.041166   22.206376 H          1 MOL1         0.0829
     133    C3      20.225742   19.860715   23.117655 C.3        1 MOL1         0.1211
     134    H5      21.062799   20.509719   22.833139 H          1 MOL1         0.0786
     135    C4      20.592500   18.347804   23.176610 C.3        1 MOL1        -0.1768
     136    H6      19.871720   17.723796   23.717463 H          1 MOL1         0.0829
     137    H7      21.595013   18.107421   23.542512 H          1 MOL1         0.0829
     138    O1      19.569403   20.370821   24.253462 O.3        1 MOL1        -0.5515
     139    H8      18.956096   19.672356   24.557959 H          1 MOL1         0.3773
@<TRIPOS>BOND
    1     1     2    1
    2     1     3    1
    3     1     4    1
    4     4     5    1
    5     4     6    1
    6     6     7    1
    7     4     8    1
    8     8     9    1
    9     8    10    1
   10    10    11    1
   11     8    12    1
   12    12    13    1
   13    12    14    1
   14    14    15    1
   15     1    16    1
   16    14    16    1
   17    14    17    1
   18    17    18    1
   19    17    19    1
   20    17    20    1
   21    20    21    1
   22    22    23    1
   23    22    24    1
   24    22    25    1
   25    25    26    1
   26    25    27    1
   27    27    28    1
   28    25    29    1
   29    29    30    1
   30    29    31    1
   31    31    32    1
   32     3    33    1
   33    29    33    1
   34    33    34    1
   35    33    35    1
   36    35    36    1
   37    22    37    1
   38    35    37    1
   39    35    38    1
   40    38    39    1
   41    38    40    1
   42    38    41    1
   43    41    42    1
   44    43    44    1
   45    43    45    1
   46    43    46    1
   47    46    47    1
   48    46    48    1
   49    48    49    1
   50    46    50    1
   51    50    51    1
   52    50    52    1
   53    52    53    1
   54    24    54    1
   55    50    54    1
   56    54    55    1
   57    54    56    1
   58    56    57    1
   59    43    58    1
   60    56    58    1
   61    56    59    1
   62    59    60    1
   63    59    61    1
   64    59    62    1
   65    62    63    1
   66    64    65    1
   67    64    66    1
   68    64    67    1
   69    67    68    1
   70    67    69    1
   71    69    70    1
   72    67    71    1
   73    71    72    1
   74    71    73    1
   75    73    74    1
   76    45    75    1
   77    71    75    1
   78    75    76    1
   79    75    77    1
   80    77    78    1
   81    64    79    1
   82    77    79    1
   83    77    80    1
   84    80    81    1
   85    80    82    1
   86    80    83    1
   87    83    84    1
   88    85    86    1
   89    85    87    1
   90    85    88    1
   91    88    89    1
   92    88    90    1
   93    90    91    1
   94    88    92    1
   95    92    93    1
   96    92    94    1
   97    94    95    1
   98    66    96    1
   99    92    96    1
  100    96    97    1
  101    96    98    1
  102    98    99    1
  103    85   100    1
  104    98   100    1
  105    98   101    1
  106   101   102    1
  107   101   103    1
  108   101   104    1
  109   104   105    1
  110   106   107    1
  111    12   108    1
  112   106   108    1
  113   106   109    1
  114   109   110    1
  115   109   111    1
  116   111   112    1
  117   109   113    1
  118   113   114    1
  119   113   115    1
  120   115   116    1
  121    87   117    1
  122   113   117    1
  123   117   118    1
  124   117   119    1
  125   119   120    1
  126   106   121    1
  127   119   121    1
  128   119   122    1
  129   122   123    1
  130   122   124    1
  131   122   125    1
  132   125   126    1
  133   127   128    1
  134   127   129    1
  135   127   130    1
  136   130   131    1
  137   130   132    1
  138   130   133    1
  139   133   134    1
  140   127   135    1
  141   133   135    1
  142   135   136    1
  143   135   137    1
  144   133   138    1
  145   138   139    1
@<TRIPOS>SUBSTRUCTURE
       1 MOL1            1 RESIDUE      1      MOL     
       2 MOL1          139 RESIDUE      1      MOL     
@<SCITEGIC>MOL_PROPERTY
feprocess Rank
SciTegic.value.IntegerValue
7

@<SCITEGIC>MOL_PROPERTY
Conf_Id
SciTegic.value.IntegerValue
959

@<SCITEGIC>MOL_PROPERTY
Probability
SciTegic.value.DoubleValue
3.62

@<SCITEGIC>MOL_PROPERTY
G
SciTegic.value.DoubleValue
546.029

@<SCITEGIC>MOL_PROPERTY
E
SciTegic.value.DoubleValue
367.017

@<SCITEGIC>MOL_PROPERTY
-TS
SciTegic.value.DoubleValue
179.012

@<SCITEGIC>MOL_PROPERTY
U+W
SciTegic.value.DoubleValue
244.505

@<SCITEGIC>MOL_PROPERTY
U
SciTegic.value.DoubleValue
283.214

@<SCITEGIC>MOL_PROPERTY
W
SciTegic.value.DoubleValue
-38.709

@<SCITEGIC>MOL_PROPERTY
W(PB)
SciTegic.value.DoubleValue
-44.725

@<SCITEGIC>MOL_PROPERTY
W(SA)
SciTegic.value.DoubleValue
6.016

@<SCITEGIC>MOL_PROPERTY
Valence
SciTegic.value.DoubleValue
151.560

@<SCITEGIC>MOL_PROPERTY
Coulomb
SciTegic.value.DoubleValue
152.328

@<SCITEGIC>MOL_PROPERTY
VdW
SciTegic.value.DoubleValue
-20.674

@<SCITEGIC>MOL_PROPERTY
VdW6
SciTegic.value.DoubleValue
-169.473

@<SCITEGIC>MOL_PROPERTY
VdW12
SciTegic.value.DoubleValue
148.798

@<SCITEGIC>MOL_PROPERTY
Bond
SciTegic.value.DoubleValue
4.737

@<SCITEGIC>MOL_PROPERTY
Angle
SciTegic.value.DoubleValue
13.285

@<SCITEGIC>MOL_PROPERTY
Pdih
SciTegic.value.DoubleValue
133.537

@<SCITEGIC>MOL_PROPERTY
Idih
SciTegic.value.DoubleValue
0.000

@<SCITEGIC>MOL_PROPERTY
Tether
SciTegic.value.DoubleValue
0.000

@<TRIPOS>MOLECULE
CD_guest-s16_fast_vm2_rndm.mol2 : feprocess host+ligand conformer 8
         139         145           2
SMALL
USER_CHARGES
 
@<TRIPOS>ATOM
       1    C1      16.327056   15.281852   20.116802 C.3        1 MOL1         0.2972
       2    H1      15.301467   15.225732   19.729749 H          1 MOL1         0.0751
       3    O1      16.629885   16.598560   20.632880 O.3        1 MOL1        -0.3740
       4    C2      16.576577   14.215293   21.214616 C.3        1 MOL1         0.1003
       5    H2      16.491347   13.233271   20.730971 H          1 MOL1         0.0783
       6    O2      15.609575   14.285839   22.271565 O.3        1 MOL1        -0.5519
       7    H3      15.711804   15.174618   22.696044 H          1 MOL1         0.3769
       8    C3      18.017236   14.344364   21.768983 C.3        1 MOL1         0.1053
       9    H4      18.107285   15.322340   22.262354 H          1 MOL1         0.0783
      10    O3      18.236075   13.296510   22.720579 O.3        1 MOL1        -0.5519
      11    H5      17.379910   13.206862   23.198933 H          1 MOL1         0.3769
      12    C4      19.063616   14.279631   20.617184 C.3        1 MOL1         0.1018
      13    H6      19.174071   13.238765   20.288256 H          1 MOL1         0.0783
      14    C5      18.661943   15.167381   19.405637 C.3        1 MOL1         0.1043
      15    H7      18.814760   16.209365   19.704458 H          1 MOL1         0.0783
      16    O4      17.266582   14.989595   19.061925 O.3        1 MOL1        -0.3740
      17    C6      19.524369   14.930083   18.141647 C.3        1 MOL1         0.0138
      18    H8      20.532153   15.326390   18.325202 H          1 MOL1         0.0794
      19    H9      19.094699   15.509949   17.314092 H          1 MOL1         0.0794
      20    O5      19.605662   13.546015   17.780406 O.3        1 MOL1        -0.5486
      21    H10     20.198477   13.105100   18.425929 H          1 MOL1         0.3769
      22    C7      14.861222   20.126272   21.969079 C.3        1 MOL1         0.2972
      23    H11     14.163936   20.902311   22.309654 H          1 MOL1         0.0751
      24    O6      16.181058   20.654917   21.739864 O.3        1 MOL1        -0.3740
      25    C8      14.964360   19.002027   23.028933 C.3        1 MOL1         0.1003
      26    H12     13.965271   18.559192   23.134020 H          1 MOL1         0.0783
      27    O7      15.382208   19.518846   24.302568 O.3        1 MOL1        -0.5519
      28    H13     15.785786   20.407914   24.140933 H          1 MOL1         0.3769
      29    C9      15.928034   17.890043   22.554992 C.3        1 MOL1         0.1053
      30    H14     16.938964   18.313582   22.495120 H          1 MOL1         0.0783
      31    O8      15.906146   16.831219   23.515516 O.3        1 MOL1        -0.5519
      32    H15     15.980034   17.285209   24.385562 H          1 MOL1         0.3769
      33    C10     15.525857   17.370996   21.148974 C.3        1 MOL1         0.1018
      34    H16     14.613857   16.766809   21.245098 H          1 MOL1         0.0783
      35    C11     15.281461   18.538002   20.148811 C.3        1 MOL1         0.1043
      36    H17     16.250715   19.003148   19.924321 H          1 MOL1         0.0783
      37    O9      14.401043   19.532149   20.736729 O.3        1 MOL1        -0.3740
      38    C12     14.674589   18.078414   18.802120 C.3        1 MOL1         0.0138
      39    H18     15.443864   17.525392   18.246041 H          1 MOL1         0.0794
      40    H19     14.421147   18.968359   18.210596 H          1 MOL1         0.0794
      41    O10     13.517517   17.252035   18.984159 O.3        1 MOL1        -0.5486
      42    H20     13.144333   17.062622   18.095756 H          1 MOL1         0.3769
      43    C13     18.430234   24.121852   21.691086 C.3        1 MOL1         0.2972
      44    H21     18.802776   25.153589   21.653010 H          1 MOL1         0.0751
      45    O11     19.508768   23.167260   21.712721 O.3        1 MOL1        -0.3740
      46    C14     17.603906   23.911971   22.981082 C.3        1 MOL1         0.1003
      47    H22     16.750798   24.602159   22.948176 H          1 MOL1         0.0783
      48    O12     18.406636   24.198195   24.137702 O.3        1 MOL1        -0.5519
      49    H23     19.342261   23.999577   23.889106 H          1 MOL1         0.3769
      50    C15     17.054933   22.467783   23.046885 C.3        1 MOL1         0.1053
      51    H24     17.906177   21.783081   23.165579 H          1 MOL1         0.0783
      52    O13     16.178420   22.347992   24.170662 O.3        1 MOL1        -0.5519
      53    H25     16.645867   22.804980   24.906133 H          1 MOL1         0.3769
      54    C16     16.307587   22.088724   21.743823 C.3        1 MOL1         0.1018
      55    H26     15.332955   22.593108   21.731772 H          1 MOL1         0.0783
      56    C17     17.099641   22.472678   20.464055 C.3        1 MOL1         0.1043
      57    H27     17.955901   21.793872   20.385325 H          1 MOL1         0.0783
      58    O14     17.584275   23.837676   20.556097 O.3        1 MOL1        -0.3740
      59    C18     16.281743   22.318743   19.157952 C.3        1 MOL1         0.0138
      60    H28     16.167513   21.248310   18.941880 H          1 MOL1         0.0794
      61    H29     16.859732   22.753130   18.331612 H          1 MOL1         0.0794
      62    O15     14.990086   22.933972   19.235342 O.3        1 MOL1        -0.5486
      63    H30     14.395876   22.306532   19.700440 H          1 MOL1         0.3769
      64    C19     23.496343   22.680072   20.632368 C.3        1 MOL1         0.2972
      65    H31     24.509459   22.806638   20.229281 H          1 MOL1         0.0751
      66    O16     23.271153   21.331718   21.094831 O.3        1 MOL1        -0.3740
      67    C20     23.240468   23.655604   21.811839 C.3        1 MOL1         0.1003
      68    H32     23.345227   24.675447   21.419302 H          1 MOL1         0.0783
      69    O17     24.190753   23.464985   22.871242 O.3        1 MOL1        -0.5519
      70    H33     24.179877   22.503373   23.110506 H          1 MOL1         0.3769
      71    C21     21.793812   23.496114   22.340751 C.3        1 MOL1         0.1053
      72    H34     21.696313   22.493173   22.779208 H          1 MOL1         0.0783
      73    O18     21.529987   24.488382   23.338598 O.3        1 MOL1        -0.5519
      74    H35     22.325754   24.489270   23.916122 H          1 MOL1         0.3769
      75    C22     20.767651   23.624766   21.188135 C.3        1 MOL1         0.1018
      76    H36     20.730094   24.676277   20.874666 H          1 MOL1         0.0783
      77    C23     21.138448   22.734534   19.970081 C.3        1 MOL1         0.1043
      78    H37     21.019716   21.686096   20.268831 H          1 MOL1         0.0783
      79    O19     22.520615   22.971365   19.608379 O.3        1 MOL1        -0.3740
      80    C24     20.261973   22.955610   18.709639 C.3        1 MOL1         0.0138
      81    H38     19.389347   22.296087   18.772045 H          1 MOL1         0.0794
      82    H39     20.832716   22.638266   17.826908 H          1 MOL1         0.0794
      83    O20     19.824617   24.310299   18.551468 O.3        1 MOL1        -0.5486
      84    H40     19.029218   24.418205   19.122666 H          1 MOL1         0.3769
      85    C25     25.087781   17.650502   21.532241 C.3        1 MOL1         0.2972
      86    H41     25.762142   16.787277   21.602115 H          1 MOL1         0.0751
      87    O21     23.707104   17.236795   21.426719 O.3        1 MOL1        -0.3740
      88    C26     25.255574   18.594054   22.751367 C.3        1 MOL1         0.1003
      89    H42     26.275719   18.997609   22.707898 H          1 MOL1         0.0783
      90    O22     25.090207   17.903509   23.998133 O.3        1 MOL1        -0.5519
      91    H43     24.167406   17.544567   24.011063 H          1 MOL1         0.3769
      92    C27     24.271536   19.783272   22.639584 C.3        1 MOL1         0.1053
      93    H44     23.245767   19.393395   22.696839 H          1 MOL1         0.0783
      94    O23     24.505191   20.692210   23.720069 O.3        1 MOL1        -0.5519
      95    H45     24.598677   20.123130   24.516765 H          1 MOL1         0.3769
      96    C28     24.444632   20.516449   21.284205 C.3        1 MOL1         0.1018
      97    H46     25.358334   21.123046   21.340898 H          1 MOL1         0.0783
      98    C29     24.530040   19.543250   20.070849 C.3        1 MOL1         0.1043
      99    H47     23.526214   19.150089   19.873840 H          1 MOL1         0.0783
     100    O24     25.414513   18.431978   20.363289 O.3        1 MOL1        -0.3740
     101    C30     25.010877   20.223400   18.766658 C.3        1 MOL1         0.0138
     102    H48     24.211634   20.883675   18.403400 H          1 MOL1         0.0794
     103    H49     25.164508   19.448260   18.003986 H          1 MOL1         0.0794
     104    O25     26.214151   20.977654   18.960753 O.3        1 MOL1        -0.5486
     105    H50     26.499847   21.313540   18.083127 H          1 MOL1         0.3769
     106    C31     21.140203   14.018152   21.937142 C.3        1 MOL1         0.2972
     107    H51     20.665070   13.056885   22.168909 H          1 MOL1         0.0751
     108    O26     20.324446   14.822821   21.062133 O.3        1 MOL1        -0.3740
     109    C32     21.424995   14.822645   23.232519 C.3        1 MOL1         0.1003
     110    H52     22.124622   14.227717   23.834191 H          1 MOL1         0.0783
     111    O27     20.230831   15.055648   23.996872 O.3        1 MOL1        -0.5519
     112    H53     19.576342   14.366255   23.730961 H          1 MOL1         0.3769
     113    C33     22.104947   16.170044   22.893351 C.3        1 MOL1         0.1053
     114    H54     21.385742   16.781303   22.333557 H          1 MOL1         0.0783
     115    O28     22.443341   16.831061   24.114993 O.3        1 MOL1        -0.5519
     116    H55     21.637596   16.736662   24.672689 H          1 MOL1         0.3769
     117    C34     23.365395   15.961769   22.011998 C.3        1 MOL1         0.1018
     118    H56     24.172388   15.573056   22.647303 H          1 MOL1         0.0783
     119    C35     23.107670   14.983693   20.829525 C.3        1 MOL1         0.1043
     120    H57     22.482735   15.501249   20.090132 H          1 MOL1         0.0783
     121    O29     22.410113   13.797172   21.287590 O.3        1 MOL1        -0.3740
     122    C36     24.401859   14.541941   20.104865 C.3        1 MOL1         0.0138
     123    H58     24.798616   15.401014   19.546918 H          1 MOL1         0.0794
     124    H59     24.145048   13.766592   19.370691 H          1 MOL1         0.0794
     125    O30     25.394474   14.055643   21.017438 O.3        1 MOL1        -0.5486
     126    H60     26.150889   13.724230   20.485679 H          1 MOL1         0.3769
     127    C1      20.733113   18.433233   20.094087 C.3        1 MOL1        -0.1693
     128    H1      20.751218   17.338259   20.094646 H          1 MOL1         0.0829
     129    H2      21.518934   18.793951   20.766247 H          1 MOL1         0.0829
     130    C2      19.326711   19.072407   20.319068 C.3        1 MOL1        -0.1768
     131    H3      18.632961   18.493930   20.935820 H          1 MOL1         0.0829
     132    H4      19.354118   20.099959   20.694856 H          1 MOL1         0.0829
     133    C3      19.133486   18.942269   18.778970 C.3        1 MOL1         0.1211
     134    H5      18.752312   17.964942   18.459785 H          1 MOL1         0.0786
     135    C4      20.682769   19.080240   18.671914 C.3        1 MOL1        -0.1768
     136    H6      21.156095   18.505705   17.868609 H          1 MOL1         0.0829
     137    H7      21.049574   20.110205   18.624505 H          1 MOL1         0.0829
     138    O1      18.391419   19.974760   18.175195 O.3        1 MOL1        -0.5515
     139    H8      18.485319   19.868923   17.207122 H          1 MOL1         0.3773
@<TRIPOS>BOND
    1     1     2    1
    2     1     3    1
    3     1     4    1
    4     4     5    1
    5     4     6    1
    6     6     7    1
    7     4     8    1
    8     8     9    1
    9     8    10    1
   10    10    11    1
   11     8    12    1
   12    12    13    1
   13    12    14    1
   14    14    15    1
   15     1    16    1
   16    14    16    1
   17    14    17    1
   18    17    18    1
   19    17    19    1
   20    17    20    1
   21    20    21    1
   22    22    23    1
   23    22    24    1
   24    22    25    1
   25    25    26    1
   26    25    27    1
   27    27    28    1
   28    25    29    1
   29    29    30    1
   30    29    31    1
   31    31    32    1
   32     3    33    1
   33    29    33    1
   34    33    34    1
   35    33    35    1
   36    35    36    1
   37    22    37    1
   38    35    37    1
   39    35    38    1
   40    38    39    1
   41    38    40    1
   42    38    41    1
   43    41    42    1
   44    43    44    1
   45    43    45    1
   46    43    46    1
   47    46    47    1
   48    46    48    1
   49    48    49    1
   50    46    50    1
   51    50    51    1
   52    50    52    1
   53    52    53    1
   54    24    54    1
   55    50    54    1
   56    54    55    1
   57    54    56    1
   58    56    57    1
   59    43    58    1
   60    56    58    1
   61    56    59    1
   62    59    60    1
   63    59    61    1
   64    59    62    1
   65    62    63    1
   66    64    65    1
   67    64    66    1
   68    64    67    1
   69    67    68    1
   70    67    69    1
   71    69    70    1
   72    67    71    1
   73    71    72    1
   74    71    73    1
   75    73    74    1
   76    45    75    1
   77    71    75    1
   78    75    76    1
   79    75    77    1
   80    77    78    1
   81    64    79    1
   82    77    79    1
   83    77    80    1
   84    80    81    1
   85    80    82    1
   86    80    83    1
   87    83    84    1
   88    85    86    1
   89    85    87    1
   90    85    88    1
   91    88    89    1
   92    88    90    1
   93    90    91    1
   94    88    92    1
   95    92    93    1
   96    92    94    1
   97    94    95    1
   98    66    96    1
   99    92    96    1
  100    96    97    1
  101    96    98    1
  102    98    99    1
  103    85   100    1
  104    98   100    1
  105    98   101    1
  106   101   102    1
  107   101   103    1
  108   101   104    1
  109   104   105    1
  110   106   107    1
  111    12   108    1
  112   106   108    1
  113   106   109    1
  114   109   110    1
  115   109   111    1
  116   111   112    1
  117   109   113    1
  118   113   114    1
  119   113   115    1
  120   115   116    1
  121    87   117    1
  122   113   117    1
  123   117   118    1
  124   117   119    1
  125   119   120    1
  126   106   121    1
  127   119   121    1
  128   119   122    1
  129   122   123    1
  130   122   124    1
  131   122   125    1
  132   125   126    1
  133   127   128    1
  134   127   129    1
  135   127   130    1
  136   130   131    1
  137   130   132    1
  138   130   133    1
  139   133   134    1
  140   127   135    1
  141   133   135    1
  142   135   136    1
  143   135   137    1
  144   133   138    1
  145   138   139    1
@<TRIPOS>SUBSTRUCTURE
       1 MOL1            1 RESIDUE      1      MOL     
       2 MOL1          139 RESIDUE      1      MOL     
@<SCITEGIC>MOL_PROPERTY
feprocess Rank
SciTegic.value.IntegerValue
8

@<SCITEGIC>MOL_PROPERTY
Conf_Id
SciTegic.value.IntegerValue
846

@<SCITEGIC>MOL_PROPERTY
Probability
SciTegic.value.DoubleValue
3.46

@<SCITEGIC>MOL_PROPERTY
G
SciTegic.value.DoubleValue
546.056

@<SCITEGIC>MOL_PROPERTY
E
SciTegic.value.DoubleValue
367.848

@<SCITEGIC>MOL_PROPERTY
-TS
SciTegic.value.DoubleValue
178.208

@<SCITEGIC>MOL_PROPERTY
U+W
SciTegic.value.DoubleValue
245.337

@<SCITEGIC>MOL_PROPERTY
U
SciTegic.value.DoubleValue
284.007

@<SCITEGIC>MOL_PROPERTY
W
SciTegic.value.DoubleValue
-38.670

@<SCITEGIC>MOL_PROPERTY
W(PB)
SciTegic.value.DoubleValue
-44.802

@<SCITEGIC>MOL_PROPERTY
W(SA)
SciTegic.value.DoubleValue
6.131

@<SCITEGIC>MOL_PROPERTY
Valence
SciTegic.value.DoubleValue
151.817

@<SCITEGIC>MOL_PROPERTY
Coulomb
SciTegic.value.DoubleValue
150.677

@<SCITEGIC>MOL_PROPERTY
VdW
SciTegic.value.DoubleValue
-18.487

@<SCITEGIC>MOL_PROPERTY
VdW6
SciTegic.value.DoubleValue
-165.509

@<SCITEGIC>MOL_PROPERTY
VdW12
SciTegic.value.DoubleValue
147.022

@<SCITEGIC>MOL_PROPERTY
Bond
SciTegic.value.DoubleValue
4.683

@<SCITEGIC>MOL_PROPERTY
Angle
SciTegic.value.DoubleValue
12.051

@<SCITEGIC>MOL_PROPERTY
Pdih
SciTegic.value.DoubleValue
135.082

@<SCITEGIC>MOL_PROPERTY
Idih
SciTegic.value.DoubleValue
0.000

@<SCITEGIC>MOL_PROPERTY
Tether
SciTegic.value.DoubleValue
0.000

@<TRIPOS>MOLECULE
CD_guest-s16_fast_vm2_rndm.mol2 : feprocess host+ligand conformer 9
         139         145           2
SMALL
USER_CHARGES
 
@<TRIPOS>ATOM
       1    C1      16.215059   15.305636   21.927373 C.3        1 MOL1         0.2972
       2    H1      15.150547   15.201474   22.174536 H          1 MOL1         0.0751
       3    O1      16.540622   16.664691   21.578116 O.3        1 MOL1        -0.3740
       4    C2      17.079767   14.877287   23.137956 C.3        1 MOL1         0.1003
       5    H2      16.868519   13.818758   23.337276 H          1 MOL1         0.0783
       6    O2      16.754283   15.653723   24.299025 O.3        1 MOL1        -0.5519
       7    H3      16.934168   16.596791   24.057297 H          1 MOL1         0.3769
       8    C3      18.582425   15.019555   22.815504 C.3        1 MOL1         0.1053
       9    H4      18.795066   16.087958   22.696926 H          1 MOL1         0.0783
      10    O3      19.352149   14.495523   23.902195 O.3        1 MOL1        -0.5519
      11    H5      18.946258   14.885721   24.708326 H          1 MOL1         0.3769
      12    C4      18.964618   14.310691   21.493416 C.3        1 MOL1         0.1018
      13    H6      19.060301   13.232690   21.679385 H          1 MOL1         0.0783
      14    C5      17.946681   14.578562   20.347464 C.3        1 MOL1         0.1043
      15    H7      18.117643   15.604771   20.004258 H          1 MOL1         0.0783
      16    O4      16.574023   14.463305   20.810069 O.3        1 MOL1        -0.3740
      17    C6      18.134736   13.651450   19.123034 C.3        1 MOL1         0.0138
      18    H8      19.067343   13.930570   18.614263 H          1 MOL1         0.0794
      19    H9      17.312954   13.829679   18.416462 H          1 MOL1         0.0794
      20    O5      18.179965   12.269070   19.496574 O.3        1 MOL1        -0.5486
      21    H10     18.217138   11.737928   18.671183 H          1 MOL1         0.3769
      22    C7      14.867679   20.268396   20.434834 C.3        1 MOL1         0.2972
      23    H11     14.280673   21.093511   20.011167 H          1 MOL1         0.0751
      24    O6      16.125052   20.727829   20.969539 O.3        1 MOL1        -0.3740
      25    C8      14.086147   19.537167   21.555713 C.3        1 MOL1         0.1003
      26    H12     13.184534   19.112977   21.094992 H          1 MOL1         0.0783
      27    O7      13.691802   20.439949   22.600290 O.3        1 MOL1        -0.5519
      28    H13     14.517721   20.858467   22.953274 H          1 MOL1         0.3769
      29    C9      14.919586   18.364478   22.131890 C.3        1 MOL1         0.1053
      30    H14     15.775409   18.785609   22.678100 H          1 MOL1         0.0783
      31    O8      14.093826   17.607583   23.022682 O.3        1 MOL1        -0.5519
      32    H15     13.697921   18.267261   23.632864 H          1 MOL1         0.3769
      33    C10     15.468421   17.441812   21.009580 C.3        1 MOL1         0.1018
      34    H16     14.647250   16.806534   20.653329 H          1 MOL1         0.0783
      35    C11     16.063494   18.229715   19.806319 C.3        1 MOL1         0.1043
      36    H17     17.012190   18.676462   20.125820 H          1 MOL1         0.0783
      37    O9      15.152501   19.286104   19.415375 O.3        1 MOL1        -0.3740
      38    C12     16.381896   17.367267   18.555697 C.3        1 MOL1         0.0138
      39    H18     17.432384   17.056664   18.606105 H          1 MOL1         0.0794
      40    H19     16.288407   17.999259   17.662416 H          1 MOL1         0.0794
      41    O10     15.541995   16.212514   18.426538 O.3        1 MOL1        -0.5486
      42    H20     15.749359   15.610777   19.178806 H          1 MOL1         0.3769
      43    C13     18.459537   23.986090   21.829295 C.3        1 MOL1         0.2972
      44    H21     18.897575   24.968505   22.049194 H          1 MOL1         0.0751
      45    O11     19.475650   22.980576   21.648460 O.3        1 MOL1        -0.3740
      46    C14     17.546798   23.547559   22.997112 C.3        1 MOL1         0.1003
      47    H22     16.739011   24.285980   23.083102 H          1 MOL1         0.0783
      48    O12     18.289741   23.506171   24.226811 O.3        1 MOL1        -0.5519
      49    H23     19.245412   23.582619   23.986715 H          1 MOL1         0.3769
      50    C15     16.912189   22.169808   22.703910 C.3        1 MOL1         0.1053
      51    H24     17.716058   21.425318   22.714407 H          1 MOL1         0.0783
      52    O13     15.961484   21.862415   23.727599 O.3        1 MOL1        -0.5519
      53    H25     16.430725   22.051736   24.570736 H          1 MOL1         0.3769
      54    C16     16.235613   22.122895   21.309649 C.3        1 MOL1         0.1018
      55    H26     15.255731   22.614411   21.373887 H          1 MOL1         0.0783
      56    C17     17.099303   22.774806   20.190984 C.3        1 MOL1         0.1043
      57    H27     17.918621   22.081496   19.964950 H          1 MOL1         0.0783
      58    O14     17.662894   24.038556   20.628033 O.3        1 MOL1        -0.3740
      59    C18     16.326986   23.010842   18.871209 C.3        1 MOL1         0.0138
      60    H28     16.125071   22.036318   18.406302 H          1 MOL1         0.0794
      61    H29     16.971902   23.572959   18.182342 H          1 MOL1         0.0794
      62    O15     15.095542   23.711340   19.085398 O.3        1 MOL1        -0.5486
      63    H30     14.699795   23.894706   18.205360 H          1 MOL1         0.3769
      64    C19     23.600185   22.683897   21.117320 C.3        1 MOL1         0.2972
      65    H31     24.650365   22.862639   20.852431 H          1 MOL1         0.0751
      66    O16     23.378529   21.326631   21.543773 O.3        1 MOL1        -0.3740
      67    C20     23.148797   23.614416   22.274579 C.3        1 MOL1         0.1003
      68    H32     23.267653   24.649616   21.929211 H          1 MOL1         0.0783
      69    O17     23.955426   23.412900   23.446292 O.3        1 MOL1        -0.5519
      70    H33     24.003512   22.436809   23.610143 H          1 MOL1         0.3769
      71    C21     21.651446   23.388459   22.605321 C.3        1 MOL1         0.1053
      72    H34     21.541723   22.379763   23.024535 H          1 MOL1         0.0783
      73    O18     21.215707   24.355372   23.566611 O.3        1 MOL1        -0.5519
      74    H35     21.933965   24.390503   24.237621 H          1 MOL1         0.3769
      75    C22     20.783724   23.482514   21.325141 C.3        1 MOL1         0.1018
      76    H36     20.752051   24.531094   21.000652 H          1 MOL1         0.0783
      77    C23     21.345255   22.616810   20.165276 C.3        1 MOL1         0.1043
      78    H37     21.249702   21.559210   20.439457 H          1 MOL1         0.0783
      79    O19     22.745214   22.938766   19.978936 O.3        1 MOL1        -0.3740
      80    C24     20.602326   22.793560   18.814624 C.3        1 MOL1         0.0138
      81    H38     19.788652   22.058890   18.769368 H          1 MOL1         0.0794
      82    H39     21.295221   22.547349   17.999007 H          1 MOL1         0.0794
      83    O20     20.068025   24.110390   18.625860 O.3        1 MOL1        -0.5486
      84    H40     19.316569   24.214970   19.254620 H          1 MOL1         0.3769
      85    C25     25.060903   17.605011   21.882641 C.3        1 MOL1         0.2972
      86    H41     25.695321   16.713989   21.976215 H          1 MOL1         0.0751
      87    O21     23.676494   17.253819   21.692956 O.3        1 MOL1        -0.3740
      88    C26     25.168750   18.462153   23.165420 C.3        1 MOL1         0.1003
      89    H42     26.212439   18.788091   23.263507 H          1 MOL1         0.0783
      90    O22     24.799155   17.685984   24.316413 O.3        1 MOL1        -0.5519
      91    H43     24.249300   16.934180   23.986797 H          1 MOL1         0.3769
      92    C27     24.278500   19.720049   23.053074 C.3        1 MOL1         0.1053
      93    H44     23.234235   19.387199   23.053208 H          1 MOL1         0.0783
      94    O23     24.505712   20.573533   24.179107 O.3        1 MOL1        -0.5519
      95    H45     24.488893   19.973208   24.957714 H          1 MOL1         0.3769
      96    C28     24.539785   20.499154   21.739547 C.3        1 MOL1         0.1018
      97    H46     25.456486   21.091410   21.860644 H          1 MOL1         0.0783
      98    C29     24.648901   19.578182   20.489994 C.3        1 MOL1         0.1043
      99    H47     23.634333   19.243678   20.242773 H          1 MOL1         0.0783
     100    O24     25.474132   18.415714   20.763511 O.3        1 MOL1        -0.3740
     101    C30     25.210825   20.293905   19.238490 C.3        1 MOL1         0.0138
     102    H48     24.456490   21.003907   18.873531 H          1 MOL1         0.0794
     103    H49     25.365272   19.548183   18.447010 H          1 MOL1         0.0794
     104    O25     26.434362   20.985445   19.517503 O.3        1 MOL1        -0.5486
     105    H50     26.768737   21.353102   18.670379 H          1 MOL1         0.3769
     106    C31     21.259714   14.029609   20.631435 C.3        1 MOL1         0.2972
     107    H51     20.856545   13.091162   20.229440 H          1 MOL1         0.0751
     108    O26     20.208696   14.908618   21.079649 O.3        1 MOL1        -0.3740
     109    C32     22.242954   13.766465   21.805818 C.3        1 MOL1         0.1003
     110    H52     23.074871   13.174274   21.402892 H          1 MOL1         0.0783
     111    O27     21.623112   13.027897   22.869048 O.3        1 MOL1        -0.5519
     112    H53     20.859472   13.568689   23.194541 H          1 MOL1         0.3769
     113    C33     22.823829   15.101097   22.335926 C.3        1 MOL1         0.1053
     114    H54     22.003113   15.678889   22.781024 H          1 MOL1         0.0783
     115    O28     23.822710   14.837996   23.326999 O.3        1 MOL1        -0.5519
     116    H55     23.439660   14.135731   23.898628 H          1 MOL1         0.3769
     117    C34     23.432855   15.932508   21.179860 C.3        1 MOL1         0.1018
     118    H56     24.357404   15.442677   20.846800 H          1 MOL1         0.0783
     119    C35     22.462954   16.057736   19.972348 C.3        1 MOL1         0.1043
     120    H57     21.606967   16.672832   20.278597 H          1 MOL1         0.0783
     121    O29     21.996693   14.734191   19.606226 O.3        1 MOL1        -0.3740
     122    C36     23.073425   16.734784   18.716706 C.3        1 MOL1         0.0138
     123    H58     22.875332   17.812168   18.771677 H          1 MOL1         0.0794
     124    H59     22.544887   16.363786   17.828438 H          1 MOL1         0.0794
     125    O30     24.482446   16.513072   18.576953 O.3        1 MOL1        -0.5486
     126    H60     24.933108   17.054651   19.266410 H          1 MOL1         0.3769
     127    C1      20.709663   19.216679   22.187640 C.3        1 MOL1        -0.1693
     128    H1      20.997241   20.266205   22.310912 H          1 MOL1         0.0829
     129    H2      21.381561   18.750563   21.459584 H          1 MOL1         0.0829
     130    C2      19.182852   18.985910   21.962023 C.3        1 MOL1        -0.1768
     131    H3      18.659980   19.769147   21.405670 H          1 MOL1         0.0829
     132    H4      18.927212   18.013271   21.528057 H          1 MOL1         0.0829
     133    C3      19.070573   19.060877   23.515687 C.3        1 MOL1         0.1211
     134    H5      19.029268   20.085652   23.907996 H          1 MOL1         0.0786
     135    C4      20.502797   18.446793   23.532253 C.3        1 MOL1        -0.1768
     136    H6      21.143947   18.752718   24.365835 H          1 MOL1         0.0829
     137    H7      20.535875   17.355407   23.446512 H          1 MOL1         0.0829
     138    O1      18.063132   18.267948   24.099830 O.3        1 MOL1        -0.5515
     139    H8      18.173310   18.342392   25.069536 H          1 MOL1         0.3773
@<TRIPOS>BOND
    1     1     2    1
    2     1     3    1
    3     1     4    1
    4     4     5    1
    5     4     6    1
    6     6     7    1
    7     4     8    1
    8     8     9    1
    9     8    10    1
   10    10    11    1
   11     8    12    1
   12    12    13    1
   13    12    14    1
   14    14    15    1
   15     1    16    1
   16    14    16    1
   17    14    17    1
   18    17    18    1
   19    17    19    1
   20    17    20    1
   21    20    21    1
   22    22    23    1
   23    22    24    1
   24    22    25    1
   25    25    26    1
   26    25    27    1
   27    27    28    1
   28    25    29    1
   29    29    30    1
   30    29    31    1
   31    31    32    1
   32     3    33    1
   33    29    33    1
   34    33    34    1
   35    33    35    1
   36    35    36    1
   37    22    37    1
   38    35    37    1
   39    35    38    1
   40    38    39    1
   41    38    40    1
   42    38    41    1
   43    41    42    1
   44    43    44    1
   45    43    45    1
   46    43    46    1
   47    46    47    1
   48    46    48    1
   49    48    49    1
   50    46    50    1
   51    50    51    1
   52    50    52    1
   53    52    53    1
   54    24    54    1
   55    50    54    1
   56    54    55    1
   57    54    56    1
   58    56    57    1
   59    43    58    1
   60    56    58    1
   61    56    59    1
   62    59    60    1
   63    59    61    1
   64    59    62    1
   65    62    63    1
   66    64    65    1
   67    64    66    1
   68    64    67    1
   69    67    68    1
   70    67    69    1
   71    69    70    1
   72    67    71    1
   73    71    72    1
   74    71    73    1
   75    73    74    1
   76    45    75    1
   77    71    75    1
   78    75    76    1
   79    75    77    1
   80    77    78    1
   81    64    79    1
   82    77    79    1
   83    77    80    1
   84    80    81    1
   85    80    82    1
   86    80    83    1
   87    83    84    1
   88    85    86    1
   89    85    87    1
   90    85    88    1
   91    88    89    1
   92    88    90    1
   93    90    91    1
   94    88    92    1
   95    92    93    1
   96    92    94    1
   97    94    95    1
   98    66    96    1
   99    92    96    1
  100    96    97    1
  101    96    98    1
  102    98    99    1
  103    85   100    1
  104    98   100    1
  105    98   101    1
  106   101   102    1
  107   101   103    1
  108   101   104    1
  109   104   105    1
  110   106   107    1
  111    12   108    1
  112   106   108    1
  113   106   109    1
  114   109   110    1
  115   109   111    1
  116   111   112    1
  117   109   113    1
  118   113   114    1
  119   113   115    1
  120   115   116    1
  121    87   117    1
  122   113   117    1
  123   117   118    1
  124   117   119    1
  125   119   120    1
  126   106   121    1
  127   119   121    1
  128   119   122    1
  129   122   123    1
  130   122   124    1
  131   122   125    1
  132   125   126    1
  133   127   128    1
  134   127   129    1
  135   127   130    1
  136   130   131    1
  137   130   132    1
  138   130   133    1
  139   133   134    1
  140   127   135    1
  141   133   135    1
  142   135   136    1
  143   135   137    1
  144   133   138    1
  145   138   139    1
@<TRIPOS>SUBSTRUCTURE
       1 MOL1            1 RESIDUE      1      MOL     
       2 MOL1          139 RESIDUE      1      MOL     
@<SCITEGIC>MOL_PROPERTY
feprocess Rank
SciTegic.value.IntegerValue
9

@<SCITEGIC>MOL_PROPERTY
Conf_Id
SciTegic.value.IntegerValue
696

@<SCITEGIC>MOL_PROPERTY
Probability
SciTegic.value.DoubleValue
3.14

@<SCITEGIC>MOL_PROPERTY
G
SciTegic.value.DoubleValue
546.113

@<SCITEGIC>MOL_PROPERTY
E
SciTegic.value.DoubleValue
367.157

@<SCITEGIC>MOL_PROPERTY
-TS
SciTegic.value.DoubleValue
178.956

@<SCITEGIC>MOL_PROPERTY
U+W
SciTegic.value.DoubleValue
244.646

@<SCITEGIC>MOL_PROPERTY
U
SciTegic.value.DoubleValue
282.800

@<SCITEGIC>MOL_PROPERTY
W
SciTegic.value.DoubleValue
-38.154

@<SCITEGIC>MOL_PROPERTY
W(PB)
SciTegic.value.DoubleValue
-44.112

@<SCITEGIC>MOL_PROPERTY
W(SA)
SciTegic.value.DoubleValue
5.958

@<SCITEGIC>MOL_PROPERTY
Valence
SciTegic.value.DoubleValue
151.923

@<SCITEGIC>MOL_PROPERTY
Coulomb
SciTegic.value.DoubleValue
151.940

@<SCITEGIC>MOL_PROPERTY
VdW
SciTegic.value.DoubleValue
-21.064

@<SCITEGIC>MOL_PROPERTY
VdW6
SciTegic.value.DoubleValue
-168.397

@<SCITEGIC>MOL_PROPERTY
VdW12
SciTegic.value.DoubleValue
147.333

@<SCITEGIC>MOL_PROPERTY
Bond
SciTegic.value.DoubleValue
4.613

@<SCITEGIC>MOL_PROPERTY
Angle
SciTegic.value.DoubleValue
12.246

@<SCITEGIC>MOL_PROPERTY
Pdih
SciTegic.value.DoubleValue
135.064

@<SCITEGIC>MOL_PROPERTY
Idih
SciTegic.value.DoubleValue
0.000

@<SCITEGIC>MOL_PROPERTY
Tether
SciTegic.value.DoubleValue
0.000

@<TRIPOS>MOLECULE
CD_guest-s16_fast_vm2_rndm.mol2 : feprocess host+ligand conformer 10
         139         145           2
SMALL
USER_CHARGES
 
@<TRIPOS>ATOM
       1    C1      16.364500   15.243765   20.313833 C.3        1 MOL1         0.2972
       2    H1      15.369647   15.118702   19.867395 H          1 MOL1         0.0751
       3    O1      16.598153   16.615270   20.699280 O.3        1 MOL1        -0.3740
       4    C2      16.558435   14.297980   21.533694 C.3        1 MOL1         0.1003
       5    H2      16.480988   13.270307   21.155402 H          1 MOL1         0.0783
       6    O2      15.554579   14.490788   22.540578 O.3        1 MOL1        -0.5519
       7    H3      15.689930   15.400387   22.907801 H          1 MOL1         0.3769
       8    C3      17.973815   14.473863   22.135229 C.3        1 MOL1         0.1053
       9    H4      18.047660   15.488494   22.549046 H          1 MOL1         0.0783
      10    O3      18.185326   13.512012   23.174370 O.3        1 MOL1        -0.5519
      11    H5      17.358114   13.518835   23.705435 H          1 MOL1         0.3769
      12    C4      19.058024   14.312498   21.041837 C.3        1 MOL1         0.1018
      13    H6      19.114146   13.251965   20.763078 H          1 MOL1         0.0783
      14    C5      18.751804   15.156306   19.772140 C.3        1 MOL1         0.1043
      15    H7      18.859496   16.218133   20.029293 H          1 MOL1         0.0783
      16    O4      17.387098   14.898453   19.351934 O.3        1 MOL1        -0.3740
      17    C6      19.696636   14.891306   18.569867 C.3        1 MOL1         0.0138
      18    H8      20.533168   15.598652   18.621296 H          1 MOL1         0.0794
      19    H9      19.152829   15.117148   17.642867 H          1 MOL1         0.0794
      20    O5      20.203701   13.551731   18.525728 O.3        1 MOL1        -0.5486
      21    H10     20.880542   13.473204   19.238182 H          1 MOL1         0.3769
      22    C7      14.883896   20.222203   21.720535 C.3        1 MOL1         0.2972
      23    H11     14.233787   21.056046   22.015312 H          1 MOL1         0.0751
      24    O6      16.173994   20.684713   21.271155 O.3        1 MOL1        -0.3740
      25    C8      15.078061   19.245214   22.907860 C.3        1 MOL1         0.1003
      26    H12     14.088135   18.845801   23.164346 H          1 MOL1         0.0783
      27    O7      15.632081   19.900277   24.059966 O.3        1 MOL1        -0.5519
      28    H13     15.714968   20.860159   23.839511 H          1 MOL1         0.3769
      29    C9      15.979802   18.062209   22.496086 C.3        1 MOL1         0.1053
      30    H14     16.981864   18.458439   22.295213 H          1 MOL1         0.0783
      31    O8      16.037159   17.128479   23.578383 O.3        1 MOL1        -0.5519
      32    H15     16.153347   17.689651   24.378472 H          1 MOL1         0.3769
      33    C10     15.479951   17.374227   21.201710 C.3        1 MOL1         0.1018
      34    H16     14.619159   16.737653   21.444649 H          1 MOL1         0.0783
      35    C11     15.092084   18.396890   20.093879 C.3        1 MOL1         0.1043
      36    H17     16.019528   18.820457   19.686914 H          1 MOL1         0.0783
      37    O9      14.285182   19.472194   20.642276 O.3        1 MOL1        -0.3740
      38    C12     14.324894   17.761039   18.910035 C.3        1 MOL1         0.0138
      39    H18     15.023885   17.135949   18.338088 H          1 MOL1         0.0794
      40    H19     13.983826   18.563520   18.242262 H          1 MOL1         0.0794
      41    O10     13.212904   16.970009   19.347609 O.3        1 MOL1        -0.5486
      42    H20     12.729184   16.667521   18.548010 H          1 MOL1         0.3769
      43    C13     18.417805   24.187187   21.132380 C.3        1 MOL1         0.2972
      44    H21     18.782891   25.211531   20.988594 H          1 MOL1         0.0751
      45    O11     19.480498   23.277866   21.475002 O.3        1 MOL1        -0.3740
      46    C14     17.369546   24.140971   22.271418 C.3        1 MOL1         0.1003
      47    H22     16.530834   24.781688   21.969442 H          1 MOL1         0.0783
      48    O12     17.919956   24.639344   23.500402 O.3        1 MOL1        -0.5519
      49    H23     18.829836   24.256517   23.592057 H          1 MOL1         0.3769
      50    C15     16.824272   22.704676   22.463979 C.3        1 MOL1         0.1053
      51    H24     17.641169   22.074204   22.840790 H          1 MOL1         0.0783
      52    O13     15.757837   22.745562   23.417578 O.3        1 MOL1        -0.5519
      53    H25     16.084082   23.340729   24.130712 H          1 MOL1         0.3769
      54    C16     16.329749   22.109275   21.117906 C.3        1 MOL1         0.1018
      55    H26     15.382312   22.589369   20.841518 H          1 MOL1         0.0783
      56    C17     17.355728   22.318343   19.969154 C.3        1 MOL1         0.1043
      57    H27     18.228045   21.683323   20.165420 H          1 MOL1         0.0783
      58    O14     17.781110   23.703138   19.930490 O.3        1 MOL1        -0.3740
      59    C18     16.818908   21.918052   18.572228 C.3        1 MOL1         0.0138
      60    H28     16.811614   20.822148   18.503160 H          1 MOL1         0.0794
      61    H29     17.520265   22.284777   17.811090 H          1 MOL1         0.0794
      62    O15     15.503669   22.424305   18.314307 O.3        1 MOL1        -0.5486
      63    H30     14.874774   21.891260   18.847377 H          1 MOL1         0.3769
      64    C19     23.575849   22.800327   21.740229 C.3        1 MOL1         0.2972
      65    H31     24.664885   22.933361   21.775013 H          1 MOL1         0.0751
      66    O16     23.211299   21.407052   21.792592 O.3        1 MOL1        -0.3740
      67    C20     22.928697   23.515435   22.949390 C.3        1 MOL1         0.1003
      68    H32     23.180446   24.581576   22.878859 H          1 MOL1         0.0783
      69    O17     23.450726   22.983977   24.177701 O.3        1 MOL1        -0.5519
      70    H33     23.737115   22.058053   23.985881 H          1 MOL1         0.3769
      71    C21     21.389102   23.383717   22.907525 C.3        1 MOL1         0.1053
      72    H34     21.136661   22.328776   23.073595 H          1 MOL1         0.0783
      73    O18     20.816633   24.189697   23.942093 O.3        1 MOL1        -0.5519
      74    H35     21.291189   23.922575   24.760177 H          1 MOL1         0.3769
      75    C22     20.817299   23.808067   21.531773 C.3        1 MOL1         0.1018
      76    H36     20.837635   24.903381   21.465695 H          1 MOL1         0.0783
      77    C23     21.602025   23.184914   20.344309 C.3        1 MOL1         0.1043
      78    H37     21.372402   22.112540   20.326989 H          1 MOL1         0.0783
      79    O19     23.030045   23.362434   20.528587 O.3        1 MOL1        -0.3740
      80    C24     21.211778   23.755483   18.958898 C.3        1 MOL1         0.0138
      81    H38     20.199534   23.412221   18.706359 H          1 MOL1         0.0794
      82    H39     21.891844   23.333397   18.207042 H          1 MOL1         0.0794
      83    O20     21.267210   25.186490   18.917121 O.3        1 MOL1        -0.5486
      84    H40     20.425604   25.529568   19.283389 H          1 MOL1         0.3769
      85    C25     24.881774   17.633732   21.096675 C.3        1 MOL1         0.2972
      86    H41     25.543844   16.817227   20.780562 H          1 MOL1         0.0751
      87    O21     23.611148   17.141712   21.557561 O.3        1 MOL1        -0.3740
      88    C26     25.517557   18.449817   22.253352 C.3        1 MOL1         0.1003
      89    H42     26.475554   18.843417   21.889616 H          1 MOL1         0.0783
      90    O22     25.752970   17.619054   23.402256 O.3        1 MOL1        -0.5519
      91    H43     24.911765   17.131181   23.592129 H          1 MOL1         0.3769
      92    C27     24.619591   19.652822   22.636930 C.3        1 MOL1         0.1053
      93    H44     23.695496   19.260483   23.081019 H          1 MOL1         0.0783
      94    O23     25.300439   20.478945   23.587155 O.3        1 MOL1        -0.5519
      95    H45     25.677695   19.855043   24.246605 H          1 MOL1         0.3769
      96    C28     24.239803   20.485052   21.387728 C.3        1 MOL1         0.1018
      97    H46     25.139038   21.001502   21.026638 H          1 MOL1         0.0783
      98    C29     23.679732   19.591660   20.248544 C.3        1 MOL1         0.1043
      99    H47     22.726685   19.161365   20.581891 H          1 MOL1         0.0783
     100    O24     24.629600   18.528818   19.990863 O.3        1 MOL1        -0.3740
     101    C30     23.400187   20.330660   18.914079 C.3        1 MOL1         0.0138
     102    H48     22.375880   20.721454   18.939435 H          1 MOL1         0.0794
     103    H49     23.437197   19.598388   18.096555 H          1 MOL1         0.0794
     104    O25     24.316609   21.400811   18.654735 O.3        1 MOL1        -0.5486
     105    H50     24.047427   22.156949   19.227317 H          1 MOL1         0.3769
     106    C31     21.292102   13.784072   21.857855 C.3        1 MOL1         0.2972
     107    H51     20.849219   12.784003   21.951837 H          1 MOL1         0.0751
     108    O26     20.289610   14.788956   21.610691 O.3        1 MOL1        -0.3740
     109    C32     22.031667   14.154141   23.164636 C.3        1 MOL1         0.1003
     110    H52     22.843480   13.429085   23.307443 H          1 MOL1         0.0783
     111    O27     21.130190   14.091026   24.281326 O.3        1 MOL1        -0.5519
     112    H53     20.219075   14.203226   23.916573 H          1 MOL1         0.3769
     113    C33     22.656082   15.562907   23.052861 C.3        1 MOL1         0.1053
     114    H54     21.834181   16.287091   23.013360 H          1 MOL1         0.0783
     115    O28     23.468891   15.825388   24.201663 O.3        1 MOL1        -0.5519
     116    H55     22.917446   15.554175   24.968959 H          1 MOL1         0.3769
     117    C34     23.501923   15.722238   21.765531 C.3        1 MOL1         0.1018
     118    H56     24.479979   15.250806   21.930338 H          1 MOL1         0.0783
     119    C35     22.818994   15.129605   20.498433 C.3        1 MOL1         0.1043
     120    H57     22.017307   15.819705   20.209035 H          1 MOL1         0.0783
     121    O29     22.242966   13.826590   20.774934 O.3        1 MOL1        -0.3740
     122    C36     23.765096   14.994551   19.281242 C.3        1 MOL1         0.0138
     123    H58     23.985814   15.998939   18.895638 H          1 MOL1         0.0794
     124    H59     23.237963   14.450556   18.485864 H          1 MOL1         0.0794
     125    O30     24.985252   14.323706   19.618907 O.3        1 MOL1        -0.5486
     126    H60     25.497083   14.200376   18.789765 H          1 MOL1         0.3769
     127    C1      20.078259   18.246012   22.224709 C.3        1 MOL1        -0.1693
     128    H1      19.278289   17.496627   22.182628 H          1 MOL1         0.0829
     129    H2      20.882944   17.936774   21.548813 H          1 MOL1         0.0829
     130    C2      20.509478   18.658990   23.670896 C.3        1 MOL1        -0.1768
     131    H3      21.489486   19.145353   23.737562 H          1 MOL1         0.0829
     132    H4      20.450809   17.875383   24.433908 H          1 MOL1         0.0829
     133    C3      19.305710   19.646002   23.616426 C.3        1 MOL1         0.1211
     134    H5      18.342744   19.183759   23.866820 H          1 MOL1         0.0786
     135    C4      19.596121   19.725419   22.086785 C.3        1 MOL1        -0.1768
     136    H6      20.379041   20.440627   21.810236 H          1 MOL1         0.0829
     137    H7      18.726388   19.885116   21.444997 H          1 MOL1         0.0829
     138    O1      19.474075   20.847130   24.330639 O.3        1 MOL1        -0.5515
     139    H8      19.385550   20.635932   25.281161 H          1 MOL1         0.3773
@<TRIPOS>BOND
    1     1     2    1
    2     1     3    1
    3     1     4    1
    4     4     5    1
    5     4     6    1
    6     6     7    1
    7     4     8    1
    8     8     9    1
    9     8    10    1
   10    10    11    1
   11     8    12    1
   12    12    13    1
   13    12    14    1
   14    14    15    1
   15     1    16    1
   16    14    16    1
   17    14    17    1
   18    17    18    1
   19    17    19    1
   20    17    20    1
   21    20    21    1
   22    22    23    1
   23    22    24    1
   24    22    25    1
   25    25    26    1
   26    25    27    1
   27    27    28    1
   28    25    29    1
   29    29    30    1
   30    29    31    1
   31    31    32    1
   32     3    33    1
   33    29    33    1
   34    33    34    1
   35    33    35    1
   36    35    36    1
   37    22    37    1
   38    35    37    1
   39    35    38    1
   40    38    39    1
   41    38    40    1
   42    38    41    1
   43    41    42    1
   44    43    44    1
   45    43    45    1
   46    43    46    1
   47    46    47    1
   48    46    48    1
   49    48    49    1
   50    46    50    1
   51    50    51    1
   52    50    52    1
   53    52    53    1
   54    24    54    1
   55    50    54    1
   56    54    55    1
   57    54    56    1
   58    56    57    1
   59    43    58    1
   60    56    58    1
   61    56    59    1
   62    59    60    1
   63    59    61    1
   64    59    62    1
   65    62    63    1
   66    64    65    1
   67    64    66    1
   68    64    67    1
   69    67    68    1
   70    67    69    1
   71    69    70    1
   72    67    71    1
   73    71    72    1
   74    71    73    1
   75    73    74    1
   76    45    75    1
   77    71    75    1
   78    75    76    1
   79    75    77    1
   80    77    78    1
   81    64    79    1
   82    77    79    1
   83    77    80    1
   84    80    81    1
   85    80    82    1
   86    80    83    1
   87    83    84    1
   88    85    86    1
   89    85    87    1
   90    85    88    1
   91    88    89    1
   92    88    90    1
   93    90    91    1
   94    88    92    1
   95    92    93    1
   96    92    94    1
   97    94    95    1
   98    66    96    1
   99    92    96    1
  100    96    97    1
  101    96    98    1
  102    98    99    1
  103    85   100    1
  104    98   100    1
  105    98   101    1
  106   101   102    1
  107   101   103    1
  108   101   104    1
  109   104   105    1
  110   106   107    1
  111    12   108    1
  112   106   108    1
  113   106   109    1
  114   109   110    1
  115   109   111    1
  116   111   112    1
  117   109   113    1
  118   113   114    1
  119   113   115    1
  120   115   116    1
  121    87   117    1
  122   113   117    1
  123   117   118    1
  124   117   119    1
  125   119   120    1
  126   106   121    1
  127   119   121    1
  128   119   122    1
  129   122   123    1
  130   122   124    1
  131   122   125    1
  132   125   126    1
  133   127   128    1
  134   127   129    1
  135   127   130    1
  136   130   131    1
  137   130   132    1
  138   130   133    1
  139   133   134    1
  140   127   135    1
  141   133   135    1
  142   135   136    1
  143   135   137    1
  144   133   138    1
  145   138   139    1
@<TRIPOS>SUBSTRUCTURE
       1 MOL1            1 RESIDUE      1      MOL     
       2 MOL1          139 RESIDUE      1      MOL     
@<SCITEGIC>MOL_PROPERTY
feprocess Rank
SciTegic.value.IntegerValue
10

@<SCITEGIC>MOL_PROPERTY
Conf_Id
SciTegic.value.IntegerValue
417

@<SCITEGIC>MOL_PROPERTY
Probability
SciTegic.value.DoubleValue
2.55

@<SCITEGIC>MOL_PROPERTY
G
SciTegic.value.DoubleValue
546.237

@<SCITEGIC>MOL_PROPERTY
E
SciTegic.value.DoubleValue
369.965

@<SCITEGIC>MOL_PROPERTY
-TS
SciTegic.value.DoubleValue
176.272

@<SCITEGIC>MOL_PROPERTY
U+W
SciTegic.value.DoubleValue
247.454

@<SCITEGIC>MOL_PROPERTY
U
SciTegic.value.DoubleValue
286.390

@<SCITEGIC>MOL_PROPERTY
W
SciTegic.value.DoubleValue
-38.935

@<SCITEGIC>MOL_PROPERTY
W(PB)
SciTegic.value.DoubleValue
-44.958

@<SCITEGIC>MOL_PROPERTY
W(SA)
SciTegic.value.DoubleValue
6.023

@<SCITEGIC>MOL_PROPERTY
Valence
SciTegic.value.DoubleValue
153.008

@<SCITEGIC>MOL_PROPERTY
Coulomb
SciTegic.value.DoubleValue
154.405

@<SCITEGIC>MOL_PROPERTY
VdW
SciTegic.value.DoubleValue
-21.024

@<SCITEGIC>MOL_PROPERTY
VdW6
SciTegic.value.DoubleValue
-165.529

@<SCITEGIC>MOL_PROPERTY
VdW12
SciTegic.value.DoubleValue
144.506

@<SCITEGIC>MOL_PROPERTY
Bond
SciTegic.value.DoubleValue
4.483

@<SCITEGIC>MOL_PROPERTY
Angle
SciTegic.value.DoubleValue
12.030

@<SCITEGIC>MOL_PROPERTY
Pdih
SciTegic.value.DoubleValue
136.495

@<SCITEGIC>MOL_PROPERTY
Idih
SciTegic.value.DoubleValue
0.000

@<SCITEGIC>MOL_PROPERTY
Tether
SciTegic.value.DoubleValue
0.000

@<TRIPOS>MOLECULE
CD_guest-s16_fast_vm2_rndm.mol2 : feprocess host+ligand conformer 11
         139         145           2
SMALL
USER_CHARGES
 
@<TRIPOS>ATOM
       1    C1      16.338985   15.346721   20.256358 C.3        1 MOL1         0.2972
       2    H1      15.342462   15.230080   19.811374 H          1 MOL1         0.0751
       3    O1      16.545242   16.691358   20.740054 O.3        1 MOL1        -0.3740
       4    C2      16.562869   14.331170   21.412673 C.3        1 MOL1         0.1003
       5    H2      16.496926   13.327292   20.973274 H          1 MOL1         0.0783
       6    O2      15.566705   14.447915   22.439034 O.3        1 MOL1        -0.5519
       7    H3      15.661637   15.351673   22.832999 H          1 MOL1         0.3769
       8    C3      17.982692   14.493001   22.009636 C.3        1 MOL1         0.1053
       9    H4      18.045210   15.481730   22.484382 H          1 MOL1         0.0783
      10    O3      18.217488   13.471976   22.984714 O.3        1 MOL1        -0.5519
      11    H5      17.389416   13.424771   23.512958 H          1 MOL1         0.3769
      12    C4      19.054465   14.415516   20.893898 C.3        1 MOL1         0.1018
      13    H6      19.117890   13.378575   20.538520 H          1 MOL1         0.0783
      14    C5      18.720646   15.342492   19.693097 C.3        1 MOL1         0.1043
      15    H7      18.802342   16.384210   20.026147 H          1 MOL1         0.0783
      16    O4      17.359228   15.087303   19.263377 O.3        1 MOL1        -0.3740
      17    C6      19.676655   15.191197   18.480437 C.3        1 MOL1         0.0138
      18    H8      20.501847   15.904411   18.601069 H          1 MOL1         0.0794
      19    H9      19.136724   15.483299   17.569891 H          1 MOL1         0.0794
      20    O5      20.208886   13.868263   18.335209 O.3        1 MOL1        -0.5486
      21    H10     20.856899   13.733072   19.065050 H          1 MOL1         0.3769
      22    C7      14.774983   20.240351   21.826447 C.3        1 MOL1         0.2972
      23    H11     14.119097   21.068554   22.124402 H          1 MOL1         0.0751
      24    O6      16.083443   20.708533   21.444027 O.3        1 MOL1        -0.3740
      25    C8      14.923016   19.228125   22.989597 C.3        1 MOL1         0.1003
      26    H12     13.922255   18.830388   23.202937 H          1 MOL1         0.0783
      27    O7      15.442335   19.857569   24.172442 O.3        1 MOL1        -0.5519
      28    H13     15.517913   20.823851   23.979082 H          1 MOL1         0.3769
      29    C9      15.831172   18.047402   22.577949 C.3        1 MOL1         0.1053
      30    H14     16.848522   18.435809   22.456216 H          1 MOL1         0.0783
      31    O8      15.818142   17.066588   23.619199 O.3        1 MOL1        -0.5519
      32    H15     15.949706   17.583994   24.445695 H          1 MOL1         0.3769
      33    C10     15.397113   17.413567   21.230647 C.3        1 MOL1         0.1018
      34    H16     14.537977   16.754011   21.410431 H          1 MOL1         0.0783
      35    C11     15.039925   18.473681   20.147479 C.3        1 MOL1         0.1043
      36    H17     15.978247   18.912350   19.785085 H          1 MOL1         0.0783
      37    O9      14.213451   19.528821   20.704030 O.3        1 MOL1        -0.3740
      38    C12     14.314477   17.878857   18.916905 C.3        1 MOL1         0.0138
      39    H18     15.034184   17.276846   18.345885 H          1 MOL1         0.0794
      40    H19     13.992432   18.704066   18.267634 H          1 MOL1         0.0794
      41    O10     13.191648   17.069806   19.288748 O.3        1 MOL1        -0.5486
      42    H20     12.735034   16.795920   18.463345 H          1 MOL1         0.3769
      43    C13     18.360804   24.182234   21.363392 C.3        1 MOL1         0.2972
      44    H21     18.730466   25.208883   21.245885 H          1 MOL1         0.0751
      45    O11     19.424034   23.273349   21.709841 O.3        1 MOL1        -0.3740
      46    C14     17.314350   24.128950   22.503691 C.3        1 MOL1         0.1003
      47    H22     16.495165   24.807747   22.232798 H          1 MOL1         0.0783
      48    O12     17.906103   24.564545   23.737981 O.3        1 MOL1        -0.5519
      49    H23     18.854783   24.288517   23.709406 H          1 MOL1         0.3769
      50    C15     16.724675   22.705573   22.663300 C.3        1 MOL1         0.1053
      51    H24     17.516359   22.051526   23.048658 H          1 MOL1         0.0783
      52    O13     15.643513   22.750036   23.599960 O.3        1 MOL1        -0.5519
      53    H25     15.964952   23.326776   24.329894 H          1 MOL1         0.3769
      54    C16     16.242395   22.133200   21.304146 C.3        1 MOL1         0.1018
      55    H26     15.301576   22.621709   21.019812 H          1 MOL1         0.0783
      56    C17     17.286448   22.339762   20.174346 C.3        1 MOL1         0.1043
      57    H27     18.143816   21.691350   20.389334 H          1 MOL1         0.0783
      58    O14     17.732250   23.718830   20.149145 O.3        1 MOL1        -0.3740
      59    C18     16.770590   21.950357   18.765964 C.3        1 MOL1         0.0138
      60    H28     16.782083   20.855768   18.681497 H          1 MOL1         0.0794
      61    H29     17.471811   22.338919   18.015685 H          1 MOL1         0.0794
      62    O15     15.450138   22.437989   18.501332 O.3        1 MOL1        -0.5486
      63    H30     14.825226   21.889505   19.023558 H          1 MOL1         0.3769
      64    C19     23.566319   22.763223   21.240716 C.3        1 MOL1         0.2972
      65    H31     24.619830   22.951038   20.997263 H          1 MOL1         0.0751
      66    O16     23.354432   21.403026   21.672403 O.3        1 MOL1        -0.3740
      67    C20     23.112723   23.690819   22.397545 C.3        1 MOL1         0.1003
      68    H32     23.296144   24.726098   22.081980 H          1 MOL1         0.0783
      69    O17     23.870986   23.414861   23.587020 O.3        1 MOL1        -0.5519
      70    H33     24.041337   22.439985   23.601722 H          1 MOL1         0.3769
      71    C21     21.595935   23.538624   22.677613 C.3        1 MOL1         0.1053
      72    H34     21.424718   22.533670   23.086981 H          1 MOL1         0.0783
      73    O18     21.181064   24.525369   23.628571 O.3        1 MOL1        -0.5519
      74    H35     21.857198   24.493841   24.341437 H          1 MOL1         0.3769
      75    C22     20.766155   23.677910   21.377044 C.3        1 MOL1         0.1018
      76    H36     20.810683   24.723004   21.043338 H          1 MOL1         0.0783
      77    C23     21.321326   22.748289   20.262203 C.3        1 MOL1         0.1043
      78    H37     21.194970   21.708121   20.585568 H          1 MOL1         0.0783
      79    O19     22.730620   23.025834   20.093147 O.3        1 MOL1        -0.3740
      80    C24     20.640343   22.883628   18.876695 C.3        1 MOL1         0.0138
      81    H38     19.777519   22.208255   18.843363 H          1 MOL1         0.0794
      82    H39     21.342937   22.534978   18.108153 H          1 MOL1         0.0794
      83    O20     20.218343   24.219240   18.581820 O.3        1 MOL1        -0.5486
      84    H40     19.332903   24.332859   18.998436 H          1 MOL1         0.3769
      85    C25     25.059197   17.604214   21.376618 C.3        1 MOL1         0.2972
      86    H41     25.736585   16.756550   21.210933 H          1 MOL1         0.0751
      87    O21     23.708156   17.166875   21.620419 O.3        1 MOL1        -0.3740
      88    C26     25.525166   18.455037   22.586940 C.3        1 MOL1         0.1003
      89    H42     26.531555   18.828106   22.356605 H          1 MOL1         0.0783
      90    O22     25.580581   17.667488   23.786688 O.3        1 MOL1        -0.5519
      91    H43     24.725864   17.169736   23.855379 H          1 MOL1         0.3769
      92    C27     24.597568   19.678968   22.783124 C.3        1 MOL1         0.1053
      93    H44     23.608209   19.307564   23.076883 H          1 MOL1         0.0783
      94    O23     25.121188   20.523182   23.814405 O.3        1 MOL1        -0.5519
      95    H45     25.363021   19.912291   24.545722 H          1 MOL1         0.3769
      96    C28     24.453027   20.488707   21.470283 C.3        1 MOL1         0.1018
      97    H46     25.398539   21.018868   21.296223 H          1 MOL1         0.0783
      98    C29     24.131826   19.579820   20.248880 C.3        1 MOL1         0.1043
      99    H47     23.105472   19.204709   20.354935 H          1 MOL1         0.0783
     100    O24     25.049825   18.459022   20.215085 O.3        1 MOL1        -0.3740
     101    C30     24.228563   20.303755   18.884377 C.3        1 MOL1         0.0138
     102    H48     23.363918   20.969856   18.777486 H          1 MOL1         0.0794
     103    H49     24.157100   19.553887   18.085254 H          1 MOL1         0.0794
     104    O25     25.443181   21.053858   18.753613 O.3        1 MOL1        -0.5486
     105    H50     25.440573   21.471105   17.864916 H          1 MOL1         0.3769
     106    C31     21.270917   13.848506   21.745029 C.3        1 MOL1         0.2972
     107    H51     20.812075   12.852582   21.797142 H          1 MOL1         0.0751
     108    O26     20.297197   14.868505   21.456202 O.3        1 MOL1        -0.3740
     109    C32     21.942770   14.191145   23.095705 C.3        1 MOL1         0.1003
     110    H52     22.739063   13.454944   23.265933 H          1 MOL1         0.0783
     111    O27     20.987957   14.112450   24.166365 O.3        1 MOL1        -0.5519
     112    H53     20.091299   14.171939   23.754994 H          1 MOL1         0.3769
     113    C33     22.591468   15.593950   23.043027 C.3        1 MOL1         0.1053
     114    H54     21.787725   16.335967   22.967627 H          1 MOL1         0.0783
     115    O28     23.338884   15.816069   24.243077 O.3        1 MOL1        -0.5519
     116    H55     22.704131   15.631125   24.970397 H          1 MOL1         0.3769
     117    C34     23.518517   15.749626   21.811112 C.3        1 MOL1         0.1018
     118    H56     24.462684   15.232450   22.027403 H          1 MOL1         0.0783
     119    C35     22.896630   15.192639   20.496811 C.3        1 MOL1         0.1043
     120    H57     22.127066   15.900589   20.167934 H          1 MOL1         0.0783
     121    O29     22.280268   13.896299   20.715514 O.3        1 MOL1        -0.3740
     122    C36     23.915485   15.060291   19.339764 C.3        1 MOL1         0.0138
     123    H58     24.194539   16.067997   19.003392 H          1 MOL1         0.0794
     124    H59     23.424104   14.559368   18.494804 H          1 MOL1         0.0794
     125    O30     25.088513   14.337728   19.734133 O.3        1 MOL1        -0.5486
     126    H60     25.656426   14.235338   18.939451 H          1 MOL1         0.3769
     127    C1      19.308386   19.301942   21.156763 C.3        1 MOL1        -0.1693
     128    H1      19.841612   19.871550   20.386908 H          1 MOL1         0.0829
     129    H2      18.303106   19.072748   20.787054 H          1 MOL1         0.0829
     130    C2      19.398997   19.891132   22.604517 C.3        1 MOL1        -0.1768
     131    H3      18.638970   19.526142   23.305618 H          1 MOL1         0.0829
     132    H4      19.458621   20.976558   22.689705 H          1 MOL1         0.0829
     133    C3      20.761225   19.148759   22.690450 C.3        1 MOL1         0.1211
     134    H5      21.591048   19.696969   22.232047 H          1 MOL1         0.0786
     135    C4      20.111333   18.099076   21.744817 C.3        1 MOL1        -0.1768
     136    H6      19.502317   17.348293   22.261543 H          1 MOL1         0.0829
     137    H7      20.796294   17.593982   21.058014 H          1 MOL1         0.0829
     138    O1      21.113048   18.683433   23.971516 O.3        1 MOL1        -0.5515
     139    H8      21.319264   19.465236   24.521112 H          1 MOL1         0.3773
@<TRIPOS>BOND
    1     1     2    1
    2     1     3    1
    3     1     4    1
    4     4     5    1
    5     4     6    1
    6     6     7    1
    7     4     8    1
    8     8     9    1
    9     8    10    1
   10    10    11    1
   11     8    12    1
   12    12    13    1
   13    12    14    1
   14    14    15    1
   15     1    16    1
   16    14    16    1
   17    14    17    1
   18    17    18    1
   19    17    19    1
   20    17    20    1
   21    20    21    1
   22    22    23    1
   23    22    24    1
   24    22    25    1
   25    25    26    1
   26    25    27    1
   27    27    28    1
   28    25    29    1
   29    29    30    1
   30    29    31    1
   31    31    32    1
   32     3    33    1
   33    29    33    1
   34    33    34    1
   35    33    35    1
   36    35    36    1
   37    22    37    1
   38    35    37    1
   39    35    38    1
   40    38    39    1
   41    38    40    1
   42    38    41    1
   43    41    42    1
   44    43    44    1
   45    43    45    1
   46    43    46    1
   47    46    47    1
   48    46    48    1
   49    48    49    1
   50    46    50    1
   51    50    51    1
   52    50    52    1
   53    52    53    1
   54    24    54    1
   55    50    54    1
   56    54    55    1
   57    54    56    1
   58    56    57    1
   59    43    58    1
   60    56    58    1
   61    56    59    1
   62    59    60    1
   63    59    61    1
   64    59    62    1
   65    62    63    1
   66    64    65    1
   67    64    66    1
   68    64    67    1
   69    67    68    1
   70    67    69    1
   71    69    70    1
   72    67    71    1
   73    71    72    1
   74    71    73    1
   75    73    74    1
   76    45    75    1
   77    71    75    1
   78    75    76    1
   79    75    77    1
   80    77    78    1
   81    64    79    1
   82    77    79    1
   83    77    80    1
   84    80    81    1
   85    80    82    1
   86    80    83    1
   87    83    84    1
   88    85    86    1
   89    85    87    1
   90    85    88    1
   91    88    89    1
   92    88    90    1
   93    90    91    1
   94    88    92    1
   95    92    93    1
   96    92    94    1
   97    94    95    1
   98    66    96    1
   99    92    96    1
  100    96    97    1
  101    96    98    1
  102    98    99    1
  103    85   100    1
  104    98   100    1
  105    98   101    1
  106   101   102    1
  107   101   103    1
  108   101   104    1
  109   104   105    1
  110   106   107    1
  111    12   108    1
  112   106   108    1
  113   106   109    1
  114   109   110    1
  115   109   111    1
  116   111   112    1
  117   109   113    1
  118   113   114    1
  119   113   115    1
  120   115   116    1
  121    87   117    1
  122   113   117    1
  123   117   118    1
  124   117   119    1
  125   119   120    1
  126   106   121    1
  127   119   121    1
  128   119   122    1
  129   122   123    1
  130   122   124    1
  131   122   125    1
  132   125   126    1
  133   127   128    1
  134   127   129    1
  135   127   130    1
  136   130   131    1
  137   130   132    1
  138   130   133    1
  139   133   134    1
  140   127   135    1
  141   133   135    1
  142   135   136    1
  143   135   137    1
  144   133   138    1
  145   138   139    1
@<TRIPOS>SUBSTRUCTURE
       1 MOL1            1 RESIDUE      1      MOL     
       2 MOL1          139 RESIDUE      1      MOL     
@<SCITEGIC>MOL_PROPERTY
feprocess Rank
SciTegic.value.IntegerValue
11

@<SCITEGIC>MOL_PROPERTY
Conf_Id
SciTegic.value.IntegerValue
867

@<SCITEGIC>MOL_PROPERTY
Probability
SciTegic.value.DoubleValue
1.81

@<SCITEGIC>MOL_PROPERTY
G
SciTegic.value.DoubleValue
546.442

@<SCITEGIC>MOL_PROPERTY
E
SciTegic.value.DoubleValue
368.923

@<SCITEGIC>MOL_PROPERTY
-TS
SciTegic.value.DoubleValue
177.519

@<SCITEGIC>MOL_PROPERTY
U+W
SciTegic.value.DoubleValue
246.411

@<SCITEGIC>MOL_PROPERTY
U
SciTegic.value.DoubleValue
285.980

@<SCITEGIC>MOL_PROPERTY
W
SciTegic.value.DoubleValue
-39.569

@<SCITEGIC>MOL_PROPERTY
W(PB)
SciTegic.value.DoubleValue
-45.593

@<SCITEGIC>MOL_PROPERTY
W(SA)
SciTegic.value.DoubleValue
6.025

@<SCITEGIC>MOL_PROPERTY
Valence
SciTegic.value.DoubleValue
152.660

@<SCITEGIC>MOL_PROPERTY
Coulomb
SciTegic.value.DoubleValue
155.495

@<SCITEGIC>MOL_PROPERTY
VdW
SciTegic.value.DoubleValue
-22.175

@<SCITEGIC>MOL_PROPERTY
VdW6
SciTegic.value.DoubleValue
-168.420

@<SCITEGIC>MOL_PROPERTY
VdW12
SciTegic.value.DoubleValue
146.245

@<SCITEGIC>MOL_PROPERTY
Bond
SciTegic.value.DoubleValue
4.605

@<SCITEGIC>MOL_PROPERTY
Angle
SciTegic.value.DoubleValue
11.696

@<SCITEGIC>MOL_PROPERTY
Pdih
SciTegic.value.DoubleValue
136.360

@<SCITEGIC>MOL_PROPERTY
Idih
SciTegic.value.DoubleValue
0.000

@<SCITEGIC>MOL_PROPERTY
Tether
SciTegic.value.DoubleValue
0.000

@<TRIPOS>MOLECULE
CD_guest-s16_fast_vm2_rndm.mol2 : feprocess host+ligand conformer 12
         139         145           2
SMALL
USER_CHARGES
 
@<TRIPOS>ATOM
       1    C1      16.228907   15.248374   21.696875 C.3        1 MOL1         0.2972
       2    H1      15.160533   15.119057   21.912832 H          1 MOL1         0.0751
       3    O1      16.517533   16.575107   21.207519 O.3        1 MOL1        -0.3740
       4    C2      17.072010   14.980579   22.969625 C.3        1 MOL1         0.1003
       5    H2      16.901211   13.936054   23.261036 H          1 MOL1         0.0783
       6    O2      16.686189   15.841338   24.053478 O.3        1 MOL1        -0.5519
       7    H3      15.887166   16.342551   23.759339 H          1 MOL1         0.3769
       8    C3      18.575844   15.155692   22.665391 C.3        1 MOL1         0.1053
       9    H4      18.739859   16.213968   22.434903 H          1 MOL1         0.0783
      10    O3      19.339301   14.785435   23.817265 O.3        1 MOL1        -0.5519
      11    H5      18.933743   15.290617   24.557262 H          1 MOL1         0.3769
      12    C4      19.024191   14.328309   21.434883 C.3        1 MOL1         0.1018
      13    H6      19.137919   13.278878   21.737275 H          1 MOL1         0.0783
      14    C5      18.030915   14.440838   20.241104 C.3        1 MOL1         0.1043
      15    H7      18.158293   15.433850   19.790614 H          1 MOL1         0.0783
      16    O4      16.658390   14.303713   20.693742 O.3        1 MOL1        -0.3740
      17    C6      18.286529   13.399874   19.125044 C.3        1 MOL1         0.0138
      18    H8      19.216654   13.667593   18.605714 H          1 MOL1         0.0794
      19    H9      17.472550   13.466853   18.390773 H          1 MOL1         0.0794
      20    O5      18.384607   12.066229   19.640410 O.3        1 MOL1        -0.5486
      21    H10     18.463728   11.455908   18.874849 H          1 MOL1         0.3769
      22    C7      14.727665   20.292176   20.778416 C.3        1 MOL1         0.2972
      23    H11     14.081059   21.146700   20.540560 H          1 MOL1         0.0751
      24    O6      16.036560   20.712620   21.213251 O.3        1 MOL1        -0.3740
      25    C8      14.109565   19.418777   21.898913 C.3        1 MOL1         0.1003
      26    H12     13.156045   19.029337   21.518906 H          1 MOL1         0.0783
      27    O7      13.859209   20.187134   23.086017 O.3        1 MOL1        -0.5519
      28    H13     14.687310   20.689545   23.295953 H          1 MOL1         0.3769
      29    C9      15.024461   18.209289   22.216692 C.3        1 MOL1         0.1053
      30    H14     15.955885   18.589038   22.659940 H          1 MOL1         0.0783
      31    O8      14.352630   17.358337   23.151162 O.3        1 MOL1        -0.5519
      32    H15     13.930403   17.973449   23.793555 H          1 MOL1         0.3769
      33    C10     15.385346   17.421656   20.926969 C.3        1 MOL1         0.1018
      34    H16     14.513282   16.834998   20.611330 H          1 MOL1         0.0783
      35    C11     15.818481   18.352764   19.759329 C.3        1 MOL1         0.1043
      36    H17     16.807659   18.762997   19.991551 H          1 MOL1         0.0783
      37    O9      14.882666   19.448438   19.617041 O.3        1 MOL1        -0.3740
      38    C12     15.949343   17.624996   18.398161 C.3        1 MOL1         0.0138
      39    H18     16.859217   17.010453   18.417345 H          1 MOL1         0.0794
      40    H19     16.085995   18.379652   17.612314 H          1 MOL1         0.0794
      41    O10     14.817273   16.800292   18.095862 O.3        1 MOL1        -0.5486
      42    H20     14.879696   15.997624   18.657285 H          1 MOL1         0.3769
      43    C13     18.481862   23.968950   21.816789 C.3        1 MOL1         0.2972
      44    H21     18.931026   24.958511   21.972638 H          1 MOL1         0.0751
      45    O11     19.488485   22.952284   21.642358 O.3        1 MOL1        -0.3740
      46    C14     17.614794   23.592901   23.040924 C.3        1 MOL1         0.1003
      47    H22     16.818275   24.343482   23.126787 H          1 MOL1         0.0783
      48    O12     18.407975   23.599983   24.239048 O.3        1 MOL1        -0.5519
      49    H23     19.354961   23.586696   23.955494 H          1 MOL1         0.3769
      50    C15     16.953810   22.211140   22.838965 C.3        1 MOL1         0.1053
      51    H24     17.748833   21.458635   22.848409 H          1 MOL1         0.0783
      52    O13     16.044964   21.958303   23.914288 O.3        1 MOL1        -0.5519
      53    H25     16.540081   22.210869   24.725668 H          1 MOL1         0.3769
      54    C16     16.214736   22.117304   21.480366 C.3        1 MOL1         0.1018
      55    H26     15.257869   22.649128   21.565996 H          1 MOL1         0.0783
      56    C17     17.045380   22.691023   20.297241 C.3        1 MOL1         0.1043
      57    H27     17.845607   21.973017   20.080245 H          1 MOL1         0.0783
      58    O14     17.639202   23.968685   20.645934 O.3        1 MOL1        -0.3740
      59    C18     16.224965   22.869460   18.997506 C.3        1 MOL1         0.0138
      60    H28     15.984188   21.875097   18.597652 H          1 MOL1         0.0794
      61    H29     16.852226   23.377220   18.252459 H          1 MOL1         0.0794
      62    O15     15.017597   23.608445   19.220325 O.3        1 MOL1        -0.5486
      63    H30     14.583215   23.738904   18.349210 H          1 MOL1         0.3769
      64    C19     23.584568   22.646460   20.834033 C.3        1 MOL1         0.2972
      65    H31     24.611360   22.836017   20.495553 H          1 MOL1         0.0751
      66    O16     23.404290   21.274376   21.232205 O.3        1 MOL1        -0.3740
      67    C20     23.196051   23.576981   22.017733 C.3        1 MOL1         0.1003
      68    H32     23.263785   24.609039   21.649722 H          1 MOL1         0.0783
      69    O17     24.086182   23.428059   23.134001 O.3        1 MOL1        -0.5519
      70    H33     24.040252   22.482327   23.424851 H          1 MOL1         0.3769
      71    C21     21.729560   23.325258   22.451199 C.3        1 MOL1         0.1053
      72    H34     21.657942   22.306515   22.856374 H          1 MOL1         0.0783
      73    O18     21.349441   24.274332   23.453267 O.3        1 MOL1        -0.5519
      74    H35     22.114651   24.318236   24.069373 H          1 MOL1         0.3769
      75    C22     20.780805   23.433887   21.232454 C.3        1 MOL1         0.1018
      76    H36     20.743705   24.483331   20.911134 H          1 MOL1         0.0783
      77    C23     21.266580   22.564713   20.041748 C.3        1 MOL1         0.1043
      78    H37     21.195188   21.507941   20.331343 H          1 MOL1         0.0783
      79    O19     22.649979   22.899041   19.759060 O.3        1 MOL1        -0.3740
      80    C24     20.436334   22.731471   18.741910 C.3        1 MOL1         0.0138
      81    H38     19.615310   22.004089   18.759315 H          1 MOL1         0.0794
      82    H39     21.071653   22.469050   17.885486 H          1 MOL1         0.0794
      83    O20     19.903455   24.051333   18.572644 O.3        1 MOL1        -0.5486
      84    H40     19.178282   24.160940   19.231278 H          1 MOL1         0.3769
      85    C25     25.021301   17.652570   22.045778 C.3        1 MOL1         0.2972
      86    H41     25.599282   16.750632   22.285499 H          1 MOL1         0.0751
      87    O21     23.705493   17.329140   21.556947 O.3        1 MOL1        -0.3740
      88    C26     24.871206   18.537813   23.304735 C.3        1 MOL1         0.1003
      89    H42     25.879148   18.828765   23.628070 H          1 MOL1         0.0783
      90    O22     24.209640   17.819980   24.360982 O.3        1 MOL1        -0.5519
      91    H43     24.189563   16.865765   24.098814 H          1 MOL1         0.3769
      92    C27     24.070254   19.815377   22.976812 C.3        1 MOL1         0.1053
      93    H44     23.041947   19.500124   22.789011 H          1 MOL1         0.0783
      94    O23     24.093948   20.697098   24.102948 O.3        1 MOL1        -0.5519
      95    H45     23.932762   20.118632   24.881858 H          1 MOL1         0.3769
      96    C28     24.557109   20.547038   21.700674 C.3        1 MOL1         0.1018
      97    H46     25.392414   21.209167   21.964184 H          1 MOL1         0.0783
      98    C29     24.961183   19.586040   20.542851 C.3        1 MOL1         0.1043
      99    H47     24.036866   19.235466   20.066691 H          1 MOL1         0.0783
     100    O24     25.692305   18.434385   21.036803 O.3        1 MOL1        -0.3740
     101    C30     25.802007   20.268938   19.438263 C.3        1 MOL1         0.0138
     102    H48     25.154988   20.965857   18.888629 H          1 MOL1         0.0794
     103    H49     26.133792   19.501760   18.725732 H          1 MOL1         0.0794
     104    O25     26.929454   20.972192   19.974189 O.3        1 MOL1        -0.5486
     105    H50     27.456877   21.310935   19.217866 H          1 MOL1         0.3769
     106    C31     21.352179   14.005852   20.681822 C.3        1 MOL1         0.2972
     107    H51     20.975042   13.033978   20.338386 H          1 MOL1         0.0751
     108    O26     20.271028   14.907050   20.998501 O.3        1 MOL1        -0.3740
     109    C32     22.279160   13.843632   21.920225 C.3        1 MOL1         0.1003
     110    H52     23.125057   13.219560   21.603779 H          1 MOL1         0.0783
     111    O27     21.611782   13.191626   23.010634 O.3        1 MOL1        -0.5519
     112    H53     20.849440   13.768377   23.271789 H          1 MOL1         0.3769
     113    C33     22.848529   15.212422   22.372371 C.3        1 MOL1         0.1053
     114    H54     22.018395   15.820146   22.756289 H          1 MOL1         0.0783
     115    O28     23.816606   15.007668   23.408403 O.3        1 MOL1        -0.5519
     116    H55     23.408397   14.345386   24.010462 H          1 MOL1         0.3769
     117    C34     23.496485   15.958720   21.176959 C.3        1 MOL1         0.1018
     118    H56     24.440248   15.460022   20.920411 H          1 MOL1         0.0783
     119    C35     22.582293   15.977658   19.922863 C.3        1 MOL1         0.1043
     120    H57     21.711370   16.609457   20.138152 H          1 MOL1         0.0783
     121    O29     22.137304   14.627947   19.638924 O.3        1 MOL1        -0.3740
     122    C36     23.254806   16.571072   18.657460 C.3        1 MOL1         0.0138
     123    H58     23.122223   17.660499   18.675843 H          1 MOL1         0.0794
     124    H59     22.722840   16.200477   17.771137 H          1 MOL1         0.0794
     125    O30     24.651301   16.263424   18.560713 O.3        1 MOL1        -0.5486
     126    H60     25.111699   16.780067   19.259597 H          1 MOL1         0.3769
     127    C1      19.197304   19.203858   22.047850 C.3        1 MOL1        -0.1693
     128    H1      19.255595   20.255867   21.746800 H          1 MOL1         0.0829
     129    H2      18.458555   18.696806   21.421316 H          1 MOL1         0.0829
     130    C2      19.064560   18.955646   23.586565 C.3        1 MOL1        -0.1768
     131    H3      18.533574   19.721980   24.160236 H          1 MOL1         0.0829
     132    H4      18.661685   17.975483   23.864487 H          1 MOL1         0.0829
     133    C3      20.618276   19.043945   23.624557 C.3        1 MOL1         0.1211
     134    H5      20.996043   20.071575   23.708911 H          1 MOL1         0.0786
     135    C4      20.582512   18.497433   22.164722 C.3        1 MOL1        -0.1768
     136    H6      21.358620   18.866724   21.486963 H          1 MOL1         0.0829
     137    H7      20.548004   17.407282   22.093900 H          1 MOL1         0.0829
     138    O1      21.239027   18.200133   24.568722 O.3        1 MOL1        -0.5515
     139    H8      22.205525   18.177852   24.383854 H          1 MOL1         0.3773
@<TRIPOS>BOND
    1     1     2    1
    2     1     3    1
    3     1     4    1
    4     4     5    1
    5     4     6    1
    6     6     7    1
    7     4     8    1
    8     8     9    1
    9     8    10    1
   10    10    11    1
   11     8    12    1
   12    12    13    1
   13    12    14    1
   14    14    15    1
   15     1    16    1
   16    14    16    1
   17    14    17    1
   18    17    18    1
   19    17    19    1
   20    17    20    1
   21    20    21    1
   22    22    23    1
   23    22    24    1
   24    22    25    1
   25    25    26    1
   26    25    27    1
   27    27    28    1
   28    25    29    1
   29    29    30    1
   30    29    31    1
   31    31    32    1
   32     3    33    1
   33    29    33    1
   34    33    34    1
   35    33    35    1
   36    35    36    1
   37    22    37    1
   38    35    37    1
   39    35    38    1
   40    38    39    1
   41    38    40    1
   42    38    41    1
   43    41    42    1
   44    43    44    1
   45    43    45    1
   46    43    46    1
   47    46    47    1
   48    46    48    1
   49    48    49    1
   50    46    50    1
   51    50    51    1
   52    50    52    1
   53    52    53    1
   54    24    54    1
   55    50    54    1
   56    54    55    1
   57    54    56    1
   58    56    57    1
   59    43    58    1
   60    56    58    1
   61    56    59    1
   62    59    60    1
   63    59    61    1
   64    59    62    1
   65    62    63    1
   66    64    65    1
   67    64    66    1
   68    64    67    1
   69    67    68    1
   70    67    69    1
   71    69    70    1
   72    67    71    1
   73    71    72    1
   74    71    73    1
   75    73    74    1
   76    45    75    1
   77    71    75    1
   78    75    76    1
   79    75    77    1
   80    77    78    1
   81    64    79    1
   82    77    79    1
   83    77    80    1
   84    80    81    1
   85    80    82    1
   86    80    83    1
   87    83    84    1
   88    85    86    1
   89    85    87    1
   90    85    88    1
   91    88    89    1
   92    88    90    1
   93    90    91    1
   94    88    92    1
   95    92    93    1
   96    92    94    1
   97    94    95    1
   98    66    96    1
   99    92    96    1
  100    96    97    1
  101    96    98    1
  102    98    99    1
  103    85   100    1
  104    98   100    1
  105    98   101    1
  106   101   102    1
  107   101   103    1
  108   101   104    1
  109   104   105    1
  110   106   107    1
  111    12   108    1
  112   106   108    1
  113   106   109    1
  114   109   110    1
  115   109   111    1
  116   111   112    1
  117   109   113    1
  118   113   114    1
  119   113   115    1
  120   115   116    1
  121    87   117    1
  122   113   117    1
  123   117   118    1
  124   117   119    1
  125   119   120    1
  126   106   121    1
  127   119   121    1
  128   119   122    1
  129   122   123    1
  130   122   124    1
  131   122   125    1
  132   125   126    1
  133   127   128    1
  134   127   129    1
  135   127   130    1
  136   130   131    1
  137   130   132    1
  138   130   133    1
  139   133   134    1
  140   127   135    1
  141   133   135    1
  142   135   136    1
  143   135   137    1
  144   133   138    1
  145   138   139    1
@<TRIPOS>SUBSTRUCTURE
       1 MOL1            1 RESIDUE      1      MOL     
       2 MOL1          139 RESIDUE      1      MOL     
@<SCITEGIC>MOL_PROPERTY
feprocess Rank
SciTegic.value.IntegerValue
12

@<SCITEGIC>MOL_PROPERTY
Conf_Id
SciTegic.value.IntegerValue
781

@<SCITEGIC>MOL_PROPERTY
Probability
SciTegic.value.DoubleValue
1.80

@<SCITEGIC>MOL_PROPERTY
G
SciTegic.value.DoubleValue
546.446

@<SCITEGIC>MOL_PROPERTY
E
SciTegic.value.DoubleValue
368.379

@<SCITEGIC>MOL_PROPERTY
-TS
SciTegic.value.DoubleValue
178.067

@<SCITEGIC>MOL_PROPERTY
U+W
SciTegic.value.DoubleValue
245.868

@<SCITEGIC>MOL_PROPERTY
U
SciTegic.value.DoubleValue
283.045

@<SCITEGIC>MOL_PROPERTY
W
SciTegic.value.DoubleValue
-37.177

@<SCITEGIC>MOL_PROPERTY
W(PB)
SciTegic.value.DoubleValue
-43.227

@<SCITEGIC>MOL_PROPERTY
W(SA)
SciTegic.value.DoubleValue
6.050

@<SCITEGIC>MOL_PROPERTY
Valence
SciTegic.value.DoubleValue
152.557

@<SCITEGIC>MOL_PROPERTY
Coulomb
SciTegic.value.DoubleValue
149.752

@<SCITEGIC>MOL_PROPERTY
VdW
SciTegic.value.DoubleValue
-19.264

@<SCITEGIC>MOL_PROPERTY
VdW6
SciTegic.value.DoubleValue
-166.440

@<SCITEGIC>MOL_PROPERTY
VdW12
SciTegic.value.DoubleValue
147.176

@<SCITEGIC>MOL_PROPERTY
Bond
SciTegic.value.DoubleValue
4.715

@<SCITEGIC>MOL_PROPERTY
Angle
SciTegic.value.DoubleValue
12.233

@<SCITEGIC>MOL_PROPERTY
Pdih
SciTegic.value.DoubleValue
135.608

@<SCITEGIC>MOL_PROPERTY
Idih
SciTegic.value.DoubleValue
0.000

@<SCITEGIC>MOL_PROPERTY
Tether
SciTegic.value.DoubleValue
0.000

@<TRIPOS>MOLECULE
CD_guest-s16_fast_vm2_rndm.mol2 : feprocess host+ligand conformer 13
         139         145           2
SMALL
USER_CHARGES
 
@<TRIPOS>ATOM
       1    C1      16.345382   15.453226   20.127650 C.3        1 MOL1         0.2972
       2    H1      15.371565   15.310149   19.642110 H          1 MOL1         0.0751
       3    O1      16.470505   16.784274   20.667348 O.3        1 MOL1        -0.3740
       4    C2      16.581217   14.395025   21.245128 C.3        1 MOL1         0.1003
       5    H2      16.570544   13.411774   20.756934 H          1 MOL1         0.0783
       6    O2      15.554201   14.415873   22.247183 O.3        1 MOL1        -0.5519
       7    H3      15.621041   15.288441   22.710525 H          1 MOL1         0.3769
       8    C3      17.975851   14.583206   21.891929 C.3        1 MOL1         0.1053
       9    H4      17.991817   15.552395   22.409498 H          1 MOL1         0.0783
      10    O3      18.222037   13.526930   22.826450 O.3        1 MOL1        -0.5519
      11    H5      17.379954   13.421483   23.323467 H          1 MOL1         0.3769
      12    C4      19.074399   14.593209   20.801950 C.3        1 MOL1         0.1018
      13    H6      19.157553   13.583429   20.378373 H          1 MOL1         0.0783
      14    C5      18.746273   15.587284   19.657294 C.3        1 MOL1         0.1043
      15    H7      18.774793   16.606425   20.064632 H          1 MOL1         0.0783
      16    O4      17.412556   15.298537   19.161560 O.3        1 MOL1        -0.3740
      17    C6      19.749243   15.551869   18.474248 C.3        1 MOL1         0.0138
      18    H8      20.557801   16.262866   18.686552 H          1 MOL1         0.0794
      19    H9      19.238869   15.912457   17.571245 H          1 MOL1         0.0794
      20    O5      20.307263   14.252280   18.240326 O.3        1 MOL1        -0.5486
      21    H10     20.926968   14.062009   18.982584 H          1 MOL1         0.3769
      22    C7      14.720000   20.208351   21.984541 C.3        1 MOL1         0.2972
      23    H11     14.100522   21.037826   22.349238 H          1 MOL1         0.0751
      24    O6      16.007397   20.665974   21.524654 O.3        1 MOL1        -0.3740
      25    C8      14.926258   19.159282   23.104891 C.3        1 MOL1         0.1003
      26    H12     13.934930   18.778480   23.383332 H          1 MOL1         0.0783
      27    O7      15.561551   19.735193   24.258329 O.3        1 MOL1        -0.5519
      28    H13     15.480573   20.718105   24.178731 H          1 MOL1         0.3769
      29    C9      15.779006   17.977879   22.598210 C.3        1 MOL1         0.1053
      30    H14     16.792539   18.359853   22.450708 H          1 MOL1         0.0783
      31    O8      15.801139   16.952415   23.595560 O.3        1 MOL1        -0.5519
      32    H15     15.939615   17.430196   24.444227 H          1 MOL1         0.3769
      33    C10     15.302328   17.408404   21.237762 C.3        1 MOL1         0.1018
      34    H16     14.486961   16.694685   21.412601 H          1 MOL1         0.0783
      35    C11     14.851710   18.505237   20.228177 C.3        1 MOL1         0.1043
      36    H17     15.755798   18.962746   19.806262 H          1 MOL1         0.0783
      37    O9      14.070927   19.536466   20.885719 O.3        1 MOL1        -0.3740
      38    C12     14.033511   17.949724   19.038281 C.3        1 MOL1         0.0138
      39    H18     14.706677   17.367931   18.394351 H          1 MOL1         0.0794
      40    H19     13.663406   18.795333   18.443108 H          1 MOL1         0.0794
      41    O10     12.941514   17.127600   19.468183 O.3        1 MOL1        -0.5486
      42    H20     12.425451   16.876046   18.671104 H          1 MOL1         0.3769
      43    C13     18.372353   24.069341   21.416079 C.3        1 MOL1         0.2972
      44    H21     18.768821   25.088443   21.321416 H          1 MOL1         0.0751
      45    O11     19.427534   23.107629   21.611645 O.3        1 MOL1        -0.3740
      46    C14     17.424419   23.990892   22.636734 C.3        1 MOL1         0.1003
      47    H22     16.605246   24.701270   22.465030 H          1 MOL1         0.0783
      48    O12     18.126825   24.356935   23.834621 O.3        1 MOL1        -0.5519
      49    H23     19.067756   24.085810   23.702811 H          1 MOL1         0.3769
      50    C15     16.809817   22.577852   22.779224 C.3        1 MOL1         0.1053
      51    H24     17.615541   21.885121   23.056081 H          1 MOL1         0.0783
      52    O13     15.815565   22.607020   23.809550 O.3        1 MOL1        -0.5519
      53    H25     16.233275   23.110946   24.544522 H          1 MOL1         0.3769
      54    C16     16.189236   22.092333   21.442331 C.3        1 MOL1         0.1018
      55    H26     15.239163   22.615404   21.274350 H          1 MOL1         0.0783
      56    C17     17.125871   22.335541   20.228145 C.3        1 MOL1         0.1043
      57    H27     17.969223   21.641498   20.316464 H          1 MOL1         0.0783
      58    O14     17.626867   23.696083   20.237935 O.3        1 MOL1        -0.3740
      59    C18     16.460126   22.057853   18.857136 C.3        1 MOL1         0.0138
      60    H28     16.380699   20.971371   18.720872 H          1 MOL1         0.0794
      61    H29     17.120993   22.434492   18.065081 H          1 MOL1         0.0794
      62    O15     15.163013   22.653605   18.738161 O.3        1 MOL1        -0.5486
      63    H30     14.541970   22.115495   19.275070 H          1 MOL1         0.3769
      64    C19     23.524334   22.602633   20.872512 C.3        1 MOL1         0.2972
      65    H31     24.553481   22.763669   20.526395 H          1 MOL1         0.0751
      66    O16     23.349726   21.286242   21.430791 O.3        1 MOL1        -0.3740
      67    C20     23.149134   23.632197   21.970531 C.3        1 MOL1         0.1003
      68    H32     23.279745   24.633308   21.539594 H          1 MOL1         0.0783
      69    O17     24.007091   23.495904   23.115465 O.3        1 MOL1        -0.5519
      70    H33     24.089781   22.527821   23.309741 H          1 MOL1         0.3769
      71    C21     21.664244   23.483399   22.387890 C.3        1 MOL1         0.1053
      72    H34     21.544472   22.516438   22.895764 H          1 MOL1         0.0783
      73    O18     21.307606   24.546625   23.277921 O.3        1 MOL1        -0.5519
      74    H35     22.042802   24.593145   23.928800 H          1 MOL1         0.3769
      75    C22     20.734762   23.496873   21.149536 C.3        1 MOL1         0.1018
      76    H36     20.736800   24.508239   20.722034 H          1 MOL1         0.0783
      77    C23     21.212120   22.484039   20.071926 C.3        1 MOL1         0.1043
      78    H37     21.117788   21.471270   20.481869 H          1 MOL1         0.0783
      79    O19     22.602064   22.752708   19.771496 O.3        1 MOL1        -0.3740
      80    C24     20.420946   22.512099   18.738933 C.3        1 MOL1         0.0138
      81    H38     19.571327   21.824208   18.820748 H          1 MOL1         0.0794
      82    H39     21.067275   22.118191   17.943275 H          1 MOL1         0.0794
      83    O20     19.952436   23.818423   18.385339 O.3        1 MOL1        -0.5486
      84    H40     19.148300   23.991257   18.928634 H          1 MOL1         0.3769
      85    C25     25.202768   17.608989   21.744681 C.3        1 MOL1         0.2972
      86    H41     25.887239   16.751813   21.777690 H          1 MOL1         0.0751
      87    O21     23.820232   17.199974   21.785704 O.3        1 MOL1        -0.3740
      88    C26     25.453867   18.560261   22.941459 C.3        1 MOL1         0.1003
      89    H42     26.475705   18.949739   22.844856 H          1 MOL1         0.0783
      90    O22     25.332173   17.867280   24.193442 O.3        1 MOL1        -0.5519
      91    H43     24.545293   17.268709   24.127563 H          1 MOL1         0.3769
      92    C27     24.478714   19.760500   22.885232 C.3        1 MOL1         0.1053
      93    H44     23.461473   19.379761   23.036668 H          1 MOL1         0.0783
      94    O23     24.803406   20.694181   23.920732 O.3        1 MOL1        -0.5519
      95    H45     24.940767   20.144176   24.724087 H          1 MOL1         0.3769
      96    C28     24.532559   20.466962   21.508532 C.3        1 MOL1         0.1018
      97    H46     25.450825   21.068023   21.473527 H          1 MOL1         0.0783
      98    C29     24.502046   19.472758   20.310518 C.3        1 MOL1         0.1043
      99    H47     23.484716   19.072747   20.220860 H          1 MOL1         0.0783
     100    O24     25.417892   18.373129   20.539783 O.3        1 MOL1        -0.3740
     101    C30     24.859113   20.124645   18.952853 C.3        1 MOL1         0.0138
     102    H48     24.025479   20.769239   18.644175 H          1 MOL1         0.0794
     103    H49     24.952900   19.332152   18.198397 H          1 MOL1         0.0794
     104    O25     26.067799   20.892080   19.021283 O.3        1 MOL1        -0.5486
     105    H50     26.263734   21.219770   18.116462 H          1 MOL1         0.3769
     106    C31     21.255823   13.968993   21.670390 C.3        1 MOL1         0.2972
     107    H51     20.781355   12.979030   21.659212 H          1 MOL1         0.0751
     108    O26     20.301422   15.018228   21.418759 O.3        1 MOL1        -0.3740
     109    C32     21.906414   14.220706   23.051053 C.3        1 MOL1         0.1003
     110    H52     22.677554   13.453505   23.199186 H          1 MOL1         0.0783
     111    O27     20.928612   14.121230   24.099365 O.3        1 MOL1        -0.5519
     112    H53     20.039771   14.114396   23.665235 H          1 MOL1         0.3769
     113    C33     22.591461   15.604462   23.082471 C.3        1 MOL1         0.1053
     114    H54     21.806795   16.365778   23.008867 H          1 MOL1         0.0783
     115    O28     23.293404   15.757873   24.319080 O.3        1 MOL1        -0.5519
     116    H55     22.665841   15.434092   25.003945 H          1 MOL1         0.3769
     117    C34     23.561290   15.786263   21.888202 C.3        1 MOL1         0.1018
     118    H56     24.473178   15.208420   22.087961 H          1 MOL1         0.0783
     119    C35     22.938860   15.343393   20.533644 C.3        1 MOL1         0.1043
     120    H57     22.195639   16.097650   20.247020 H          1 MOL1         0.0783
     121    O29     22.281968   14.054755   20.659827 O.3        1 MOL1        -0.3740
     122    C36     23.972503   15.256081   19.385759 C.3        1 MOL1         0.0138
     123    H58     24.306644   16.272992   19.139542 H          1 MOL1         0.0794
     124    H59     23.475217   14.850746   18.494309 H          1 MOL1         0.0794
     125    O30     25.101317   14.446792   19.738960 O.3        1 MOL1        -0.5486
     126    H60     25.692807   14.403208   18.956291 H          1 MOL1         0.3769
     127    C1      20.672073   18.760717   21.807034 C.3        1 MOL1        -0.1693
     128    H1      20.647114   17.690955   21.570402 H          1 MOL1         0.0829
     129    H2      21.406080   19.245519   21.156604 H          1 MOL1         0.0829
     130    C2      20.775196   19.102089   23.330166 C.3        1 MOL1        -0.1768
     131    H3      21.349885   18.407939   23.951548 H          1 MOL1         0.0829
     132    H4      21.106436   20.124517   23.549745 H          1 MOL1         0.0829
     133    C3      19.230327   18.909497   23.353268 C.3        1 MOL1         0.1211
     134    H5      18.917676   17.860370   23.445537 H          1 MOL1         0.0786
     135    C4      19.267930   19.439174   21.886801 C.3        1 MOL1        -0.1768
     136    H6      18.506885   19.047665   21.204204 H          1 MOL1         0.0829
     137    H7      19.284347   20.529939   21.810837 H          1 MOL1         0.0829
     138    O1      18.545391   19.722402   24.279339 O.3        1 MOL1        -0.5515
     139    H8      17.577001   19.600639   24.150482 H          1 MOL1         0.3773
@<TRIPOS>BOND
    1     1     2    1
    2     1     3    1
    3     1     4    1
    4     4     5    1
    5     4     6    1
    6     6     7    1
    7     4     8    1
    8     8     9    1
    9     8    10    1
   10    10    11    1
   11     8    12    1
   12    12    13    1
   13    12    14    1
   14    14    15    1
   15     1    16    1
   16    14    16    1
   17    14    17    1
   18    17    18    1
   19    17    19    1
   20    17    20    1
   21    20    21    1
   22    22    23    1
   23    22    24    1
   24    22    25    1
   25    25    26    1
   26    25    27    1
   27    27    28    1
   28    25    29    1
   29    29    30    1
   30    29    31    1
   31    31    32    1
   32     3    33    1
   33    29    33    1
   34    33    34    1
   35    33    35    1
   36    35    36    1
   37    22    37    1
   38    35    37    1
   39    35    38    1
   40    38    39    1
   41    38    40    1
   42    38    41    1
   43    41    42    1
   44    43    44    1
   45    43    45    1
   46    43    46    1
   47    46    47    1
   48    46    48    1
   49    48    49    1
   50    46    50    1
   51    50    51    1
   52    50    52    1
   53    52    53    1
   54    24    54    1
   55    50    54    1
   56    54    55    1
   57    54    56    1
   58    56    57    1
   59    43    58    1
   60    56    58    1
   61    56    59    1
   62    59    60    1
   63    59    61    1
   64    59    62    1
   65    62    63    1
   66    64    65    1
   67    64    66    1
   68    64    67    1
   69    67    68    1
   70    67    69    1
   71    69    70    1
   72    67    71    1
   73    71    72    1
   74    71    73    1
   75    73    74    1
   76    45    75    1
   77    71    75    1
   78    75    76    1
   79    75    77    1
   80    77    78    1
   81    64    79    1
   82    77    79    1
   83    77    80    1
   84    80    81    1
   85    80    82    1
   86    80    83    1
   87    83    84    1
   88    85    86    1
   89    85    87    1
   90    85    88    1
   91    88    89    1
   92    88    90    1
   93    90    91    1
   94    88    92    1
   95    92    93    1
   96    92    94    1
   97    94    95    1
   98    66    96    1
   99    92    96    1
  100    96    97    1
  101    96    98    1
  102    98    99    1
  103    85   100    1
  104    98   100    1
  105    98   101    1
  106   101   102    1
  107   101   103    1
  108   101   104    1
  109   104   105    1
  110   106   107    1
  111    12   108    1
  112   106   108    1
  113   106   109    1
  114   109   110    1
  115   109   111    1
  116   111   112    1
  117   109   113    1
  118   113   114    1
  119   113   115    1
  120   115   116    1
  121    87   117    1
  122   113   117    1
  123   117   118    1
  124   117   119    1
  125   119   120    1
  126   106   121    1
  127   119   121    1
  128   119   122    1
  129   122   123    1
  130   122   124    1
  131   122   125    1
  132   125   126    1
  133   127   128    1
  134   127   129    1
  135   127   130    1
  136   130   131    1
  137   130   132    1
  138   130   133    1
  139   133   134    1
  140   127   135    1
  141   133   135    1
  142   135   136    1
  143   135   137    1
  144   133   138    1
  145   138   139    1
@<TRIPOS>SUBSTRUCTURE
       1 MOL1            1 RESIDUE      1      MOL     
       2 MOL1          139 RESIDUE      1      MOL     
@<SCITEGIC>MOL_PROPERTY
feprocess Rank
SciTegic.value.IntegerValue
13

@<SCITEGIC>MOL_PROPERTY
Conf_Id
SciTegic.value.IntegerValue
506

@<SCITEGIC>MOL_PROPERTY
Probability
SciTegic.value.DoubleValue
1.54

@<SCITEGIC>MOL_PROPERTY
G
SciTegic.value.DoubleValue
546.539

@<SCITEGIC>MOL_PROPERTY
E
SciTegic.value.DoubleValue
367.866

@<SCITEGIC>MOL_PROPERTY
-TS
SciTegic.value.DoubleValue
178.673

@<SCITEGIC>MOL_PROPERTY
U+W
SciTegic.value.DoubleValue
245.354

@<SCITEGIC>MOL_PROPERTY
U
SciTegic.value.DoubleValue
283.769

@<SCITEGIC>MOL_PROPERTY
W
SciTegic.value.DoubleValue
-38.415

@<SCITEGIC>MOL_PROPERTY
W(PB)
SciTegic.value.DoubleValue
-44.447

@<SCITEGIC>MOL_PROPERTY
W(SA)
SciTegic.value.DoubleValue
6.032

@<SCITEGIC>MOL_PROPERTY
Valence
SciTegic.value.DoubleValue
153.117

@<SCITEGIC>MOL_PROPERTY
Coulomb
SciTegic.value.DoubleValue
151.329

@<SCITEGIC>MOL_PROPERTY
VdW
SciTegic.value.DoubleValue
-20.677

@<SCITEGIC>MOL_PROPERTY
VdW6
SciTegic.value.DoubleValue
-167.383

@<SCITEGIC>MOL_PROPERTY
VdW12
SciTegic.value.DoubleValue
146.706

@<SCITEGIC>MOL_PROPERTY
Bond
SciTegic.value.DoubleValue
4.583

@<SCITEGIC>MOL_PROPERTY
Angle
SciTegic.value.DoubleValue
12.189

@<SCITEGIC>MOL_PROPERTY
Pdih
SciTegic.value.DoubleValue
136.345

@<SCITEGIC>MOL_PROPERTY
Idih
SciTegic.value.DoubleValue
0.000

@<SCITEGIC>MOL_PROPERTY
Tether
SciTegic.value.DoubleValue
0.000

@<TRIPOS>MOLECULE
CD_guest-s16_fast_vm2_rndm.mol2 : feprocess host+ligand conformer 14
         139         145           2
SMALL
USER_CHARGES
 
@<TRIPOS>ATOM
       1    C1      16.167402   15.212261   20.685587 C.3        1 MOL1         0.2972
       2    H1      15.119758   15.046576   20.402703 H          1 MOL1         0.0751
       3    O1      16.391401   16.563994   21.138263 O.3        1 MOL1        -0.3740
       4    C2      16.596205   14.245063   21.818560 C.3        1 MOL1         0.1003
       5    H2      16.490610   13.223699   21.430028 H          1 MOL1         0.0783
       6    O2      15.761345   14.389835   22.978306 O.3        1 MOL1        -0.5519
       7    H3      15.709744   15.355621   23.193533 H          1 MOL1         0.3769
       8    C3      18.085088   14.459245   22.189735 C.3        1 MOL1         0.1053
       9    H4      18.187473   15.458272   22.635033 H          1 MOL1         0.0783
      10    O3      18.471127   13.462734   23.142344 O.3        1 MOL1        -0.5519
      11    H5      17.702972   13.387998   23.753717 H          1 MOL1         0.3769
      12    C4      18.990807   14.390647   20.928958 C.3        1 MOL1         0.1018
      13    H6      19.074902   13.345301   20.605468 H          1 MOL1         0.0783
      14    C5      18.434997   15.241239   19.754095 C.3        1 MOL1         0.1043
      15    H7      18.555237   16.298302   20.010810 H          1 MOL1         0.0783
      16    O4      17.028418   14.960891   19.554102 O.3        1 MOL1        -0.3740
      17    C6      19.185741   15.024943   18.416611 C.3        1 MOL1         0.0138
      18    H8      20.154854   15.538064   18.475082 H          1 MOL1         0.0794
      19    H9      18.613097   15.508556   17.614160 H          1 MOL1         0.0794
      20    O5      19.391277   13.640382   18.109796 O.3        1 MOL1        -0.5486
      21    H10     20.100430   13.310734   18.703097 H          1 MOL1         0.3769
      22    C7      14.708495   20.245115   21.696585 C.3        1 MOL1         0.2972
      23    H11     14.099951   21.148356   21.834756 H          1 MOL1         0.0751
      24    O6      16.105309   20.561019   21.544021 O.3        1 MOL1        -0.3740
      25    C8      14.566145   19.315375   22.922891 C.3        1 MOL1         0.1003
      26    H12     13.519275   18.989715   22.979197 H          1 MOL1         0.0783
      27    O7      14.916811   20.016981   24.126508 O.3        1 MOL1        -0.5519
      28    H13     15.416909   20.822382   23.848516 H          1 MOL1         0.3769
      29    C9      15.456497   18.064905   22.747700 C.3        1 MOL1         0.1053
      30    H14     16.498852   18.397769   22.778111 H          1 MOL1         0.0783
      31    O8      15.220455   17.152224   23.822891 O.3        1 MOL1        -0.5519
      32    H15     15.215137   17.712797   24.631083 H          1 MOL1         0.3769
      33    C10     15.214734   17.361407   21.387649 C.3        1 MOL1         0.1018
      34    H16     14.307857   16.748134   21.473640 H          1 MOL1         0.0783
      35    C11     15.085118   18.347762   20.188664 C.3        1 MOL1         0.1043
      36    H17     16.094214   18.686898   19.931856 H          1 MOL1         0.0783
      37    O9      14.282176   19.507239   20.532335 O.3        1 MOL1        -0.3740
      38    C12     14.493496   17.697307   18.915778 C.3        1 MOL1         0.0138
      39    H18     15.232035   16.993683   18.508134 H          1 MOL1         0.0794
      40    H19     14.338422   18.479942   18.160877 H          1 MOL1         0.0794
      41    O10     13.264293   17.011246   19.183160 O.3        1 MOL1        -0.5486
      42    H20     12.911834   16.686406   18.325869 H          1 MOL1         0.3769
      43    C13     18.566735   23.873593   20.847568 C.3        1 MOL1         0.2972
      44    H21     18.954339   24.841564   20.504510 H          1 MOL1         0.0751
      45    O11     19.606866   23.051565   21.408268 O.3        1 MOL1        -0.3740
      46    C14     17.477332   24.064401   21.937523 C.3        1 MOL1         0.1003
      47    H22     16.674906   24.670009   21.496726 H          1 MOL1         0.0783
      48    O12     18.008181   24.747646   23.084859 O.3        1 MOL1        -0.5519
      49    H23     18.847768   24.287679   23.340824 H          1 MOL1         0.3769
      50    C15     16.872171   22.700505   22.356867 C.3        1 MOL1         0.1053
      51    H24     17.656398   22.124231   22.864832 H          1 MOL1         0.0783
      52    O13     15.773066   22.911864   23.249443 O.3        1 MOL1        -0.5519
      53    H25     16.085002   23.597644   23.881437 H          1 MOL1         0.3769
      54    C16     16.409075   21.898404   21.115183 C.3        1 MOL1         0.1018
      55    H26     15.534057   22.394253   20.674526 H          1 MOL1         0.0783
      56    C17     17.530640   21.807373   20.046554 C.3        1 MOL1         0.1043
      57    H27     18.362688   21.224374   20.463433 H          1 MOL1         0.0783
      58    O14     17.981186   23.150029   19.741774 O.3        1 MOL1        -0.3740
      59    C18     17.111241   21.111144   18.725898 C.3        1 MOL1         0.0138
      60    H28     17.340564   20.041802   18.813885 H          1 MOL1         0.0794
      61    H29     17.736857   21.499178   17.911243 H          1 MOL1         0.0794
      62    O15     15.723753   21.285458   18.407682 O.3        1 MOL1        -0.5486
      63    H30     15.204970   20.798974   19.089447 H          1 MOL1         0.3769
      64    C19     23.670244   22.800418   21.963912 C.3        1 MOL1         0.2972
      65    H31     24.745975   22.960777   22.111690 H          1 MOL1         0.0751
      66    O16     23.356895   21.403472   21.805473 O.3        1 MOL1        -0.3740
      67    C20     22.891113   23.328284   23.191340 C.3        1 MOL1         0.1003
      68    H32     23.086094   24.405498   23.273197 H          1 MOL1         0.0783
      69    O17     23.339043   22.668339   24.386325 O.3        1 MOL1        -0.5519
      70    H33     23.695600   21.788924   24.109432 H          1 MOL1         0.3769
      71    C21     21.370834   23.127047   23.000874 C.3        1 MOL1         0.1053
      72    H34     21.171098   22.049566   23.022850 H          1 MOL1         0.0783
      73    O18     20.663278   23.766900   24.068250 O.3        1 MOL1        -0.5519
      74    H35     21.133719   23.489486   24.885734 H          1 MOL1         0.3769
      75    C22     20.880752   23.679467   21.640137 C.3        1 MOL1         0.1018
      76    H36     20.795854   24.771587   21.717489 H          1 MOL1         0.0783
      77    C23     21.808202   23.290116   20.452109 C.3        1 MOL1         0.1043
      78    H37     21.648225   22.224541   20.243299 H          1 MOL1         0.0783
      79    O19     23.203040   23.501353   20.793523 O.3        1 MOL1        -0.3740
      80    C24     21.505679   24.062288   19.145578 C.3        1 MOL1         0.0138
      81    H38     20.551900   23.700704   18.738303 H          1 MOL1         0.0794
      82    H39     22.284683   23.823787   18.408994 H          1 MOL1         0.0794
      83    O20     21.438605   25.477746   19.358606 O.3        1 MOL1        -0.5486
      84    H40     21.323432   25.905919   18.482277 H          1 MOL1         0.3769
      85    C25     25.050352   17.735417   20.838944 C.3        1 MOL1         0.2972
      86    H41     25.696515   16.913537   20.504669 H          1 MOL1         0.0751
      87    O21     23.698631   17.281915   21.070204 O.3        1 MOL1        -0.3740
      88    C26     25.611046   18.407980   22.123031 C.3        1 MOL1         0.1003
      89    H42     26.583757   18.842345   21.857717 H          1 MOL1         0.0783
      90    O22     25.806710   17.468415   23.189493 O.3        1 MOL1        -0.5519
      91    H43     24.912480   17.121072   23.435066 H          1 MOL1         0.3769
      92    C27     24.684057   19.564241   22.570893 C.3        1 MOL1         0.1053
      93    H44     23.715109   19.137561   22.864629 H          1 MOL1         0.0783
      94    O23     25.266159   20.252145   23.683494 O.3        1 MOL1        -0.5519
      95    H45     25.587991   19.544353   24.284922 H          1 MOL1         0.3769
      96    C28     24.449630   20.557579   21.406152 C.3        1 MOL1         0.1018
      97    H46     25.376356   21.124950   21.249455 H          1 MOL1         0.0783
      98    C29     24.058473   19.844862   20.079162 C.3        1 MOL1         0.1043
      99    H47     23.051776   19.426927   20.191771 H          1 MOL1         0.0783
     100    O24     24.992468   18.764343   19.823632 O.3        1 MOL1        -0.3740
     101    C30     24.009121   20.768825   18.833775 C.3        1 MOL1         0.0138
     102    H48     22.992503   21.170593   18.739981 H          1 MOL1         0.0794
     103    H49     24.190778   20.158490   17.939076 H          1 MOL1         0.0794
     104    O25     24.945388   21.851629   18.887945 O.3        1 MOL1        -0.5486
     105    H50     24.559436   22.533702   19.485541 H          1 MOL1         0.3769
     106    C31     21.257122   14.034590   21.788840 C.3        1 MOL1         0.2972
     107    H51     20.813472   13.057621   22.019932 H          1 MOL1         0.0751
     108    O26     20.279899   14.948244   21.251036 O.3        1 MOL1        -0.3740
     109    C32     21.878264   14.656562   23.064383 C.3        1 MOL1         0.1003
     110    H52     22.659444   13.968687   23.413457 H          1 MOL1         0.0783
     111    O27     20.898278   14.826465   24.102015 O.3        1 MOL1        -0.5519
     112    H53     20.099080   14.309525   23.836633 H          1 MOL1         0.3769
     113    C33     22.538446   16.015966   22.745340 C.3        1 MOL1         0.1053
     114    H54     21.739411   16.715600   22.478258 H          1 MOL1         0.0783
     115    O28     23.214837   16.483346   23.915517 O.3        1 MOL1        -0.5519
     116    H55     22.575177   16.325446   24.646283 H          1 MOL1         0.3769
     117    C34     23.513410   15.931003   21.542746 C.3        1 MOL1         0.1018
     118    H56     24.454459   15.476078   21.878894 H          1 MOL1         0.0783
     119    C35     22.922371   15.121095   20.352509 C.3        1 MOL1         0.1043
     120    H57     22.151357   15.739311   19.874242 H          1 MOL1         0.0783
     121    O29     22.314444   13.888456   20.817652 O.3        1 MOL1        -0.3740
     122    C36     23.967249   14.774373   19.265047 C.3        1 MOL1         0.0138
     123    H58     24.238992   15.698276   18.736756 H          1 MOL1         0.0794
     124    H59     23.499719   14.104483   18.530982 H          1 MOL1         0.0794
     125    O30     25.142373   14.167321   19.816905 O.3        1 MOL1        -0.5486
     126    H60     25.721498   13.904328   19.068396 H          1 MOL1         0.3769
     127    C1      20.513815   19.241182   23.693631 C.3        1 MOL1        -0.1693
     128    H1      20.993337   18.362869   24.143625 H          1 MOL1         0.0829
     129    H2      20.817648   20.129912   24.257998 H          1 MOL1         0.0829
     130    C2      18.981033   19.083320   23.432207 C.3        1 MOL1        -0.1768
     131    H3      18.436696   18.456639   24.146789 H          1 MOL1         0.0829
     132    H4      18.438287   20.026124   23.302602 H          1 MOL1         0.0829
     133    C3      19.399923   18.391607   22.100209 C.3        1 MOL1         0.1211
     134    H5      19.643858   17.328267   22.213098 H          1 MOL1         0.0786
     135    C4      20.638327   19.331734   22.137515 C.3        1 MOL1        -0.1768
     136    H6      20.459832   20.325181   21.710847 H          1 MOL1         0.0829
     137    H7      21.553172   18.921197   21.705974 H          1 MOL1         0.0829
     138    O1      18.537528   18.590161   21.005701 O.3        1 MOL1        -0.5515
     139    H8      17.766840   17.997754   21.136848 H          1 MOL1         0.3773
@<TRIPOS>BOND
    1     1     2    1
    2     1     3    1
    3     1     4    1
    4     4     5    1
    5     4     6    1
    6     6     7    1
    7     4     8    1
    8     8     9    1
    9     8    10    1
   10    10    11    1
   11     8    12    1
   12    12    13    1
   13    12    14    1
   14    14    15    1
   15     1    16    1
   16    14    16    1
   17    14    17    1
   18    17    18    1
   19    17    19    1
   20    17    20    1
   21    20    21    1
   22    22    23    1
   23    22    24    1
   24    22    25    1
   25    25    26    1
   26    25    27    1
   27    27    28    1
   28    25    29    1
   29    29    30    1
   30    29    31    1
   31    31    32    1
   32     3    33    1
   33    29    33    1
   34    33    34    1
   35    33    35    1
   36    35    36    1
   37    22    37    1
   38    35    37    1
   39    35    38    1
   40    38    39    1
   41    38    40    1
   42    38    41    1
   43    41    42    1
   44    43    44    1
   45    43    45    1
   46    43    46    1
   47    46    47    1
   48    46    48    1
   49    48    49    1
   50    46    50    1
   51    50    51    1
   52    50    52    1
   53    52    53    1
   54    24    54    1
   55    50    54    1
   56    54    55    1
   57    54    56    1
   58    56    57    1
   59    43    58    1
   60    56    58    1
   61    56    59    1
   62    59    60    1
   63    59    61    1
   64    59    62    1
   65    62    63    1
   66    64    65    1
   67    64    66    1
   68    64    67    1
   69    67    68    1
   70    67    69    1
   71    69    70    1
   72    67    71    1
   73    71    72    1
   74    71    73    1
   75    73    74    1
   76    45    75    1
   77    71    75    1
   78    75    76    1
   79    75    77    1
   80    77    78    1
   81    64    79    1
   82    77    79    1
   83    77    80    1
   84    80    81    1
   85    80    82    1
   86    80    83    1
   87    83    84    1
   88    85    86    1
   89    85    87    1
   90    85    88    1
   91    88    89    1
   92    88    90    1
   93    90    91    1
   94    88    92    1
   95    92    93    1
   96    92    94    1
   97    94    95    1
   98    66    96    1
   99    92    96    1
  100    96    97    1
  101    96    98    1
  102    98    99    1
  103    85   100    1
  104    98   100    1
  105    98   101    1
  106   101   102    1
  107   101   103    1
  108   101   104    1
  109   104   105    1
  110   106   107    1
  111    12   108    1
  112   106   108    1
  113   106   109    1
  114   109   110    1
  115   109   111    1
  116   111   112    1
  117   109   113    1
  118   113   114    1
  119   113   115    1
  120   115   116    1
  121    87   117    1
  122   113   117    1
  123   117   118    1
  124   117   119    1
  125   119   120    1
  126   106   121    1
  127   119   121    1
  128   119   122    1
  129   122   123    1
  130   122   124    1
  131   122   125    1
  132   125   126    1
  133   127   128    1
  134   127   129    1
  135   127   130    1
  136   130   131    1
  137   130   132    1
  138   130   133    1
  139   133   134    1
  140   127   135    1
  141   133   135    1
  142   135   136    1
  143   135   137    1
  144   133   138    1
  145   138   139    1
@<TRIPOS>SUBSTRUCTURE
       1 MOL1            1 RESIDUE      1      MOL     
       2 MOL1          139 RESIDUE      1      MOL     
@<SCITEGIC>MOL_PROPERTY
feprocess Rank
SciTegic.value.IntegerValue
14

@<SCITEGIC>MOL_PROPERTY
Conf_Id
SciTegic.value.IntegerValue
89

@<SCITEGIC>MOL_PROPERTY
Probability
SciTegic.value.DoubleValue
1.42

@<SCITEGIC>MOL_PROPERTY
G
SciTegic.value.DoubleValue
546.585

@<SCITEGIC>MOL_PROPERTY
E
SciTegic.value.DoubleValue
367.608

@<SCITEGIC>MOL_PROPERTY
-TS
SciTegic.value.DoubleValue
178.977

@<SCITEGIC>MOL_PROPERTY
U+W
SciTegic.value.DoubleValue
245.097

@<SCITEGIC>MOL_PROPERTY
U
SciTegic.value.DoubleValue
280.532

@<SCITEGIC>MOL_PROPERTY
W
SciTegic.value.DoubleValue
-35.435

@<SCITEGIC>MOL_PROPERTY
W(PB)
SciTegic.value.DoubleValue
-41.420

@<SCITEGIC>MOL_PROPERTY
W(SA)
SciTegic.value.DoubleValue
5.985

@<SCITEGIC>MOL_PROPERTY
Valence
SciTegic.value.DoubleValue
152.379

@<SCITEGIC>MOL_PROPERTY
Coulomb
SciTegic.value.DoubleValue
149.410

@<SCITEGIC>MOL_PROPERTY
VdW
SciTegic.value.DoubleValue
-21.257

@<SCITEGIC>MOL_PROPERTY
VdW6
SciTegic.value.DoubleValue
-169.616

@<SCITEGIC>MOL_PROPERTY
VdW12
SciTegic.value.DoubleValue
148.359

@<SCITEGIC>MOL_PROPERTY
Bond
SciTegic.value.DoubleValue
4.655

@<SCITEGIC>MOL_PROPERTY
Angle
SciTegic.value.DoubleValue
12.031

@<SCITEGIC>MOL_PROPERTY
Pdih
SciTegic.value.DoubleValue
135.694

@<SCITEGIC>MOL_PROPERTY
Idih
SciTegic.value.DoubleValue
0.000

@<SCITEGIC>MOL_PROPERTY
Tether
SciTegic.value.DoubleValue
0.000

@<TRIPOS>MOLECULE
CD_guest-s16_fast_vm2_rndm.mol2 : feprocess host+ligand conformer 15
         139         145           2
SMALL
USER_CHARGES
 
@<TRIPOS>ATOM
       1    C1      16.259448   15.197811   20.547601 C.3        1 MOL1         0.2972
       2    H1      15.236714   15.068240   20.170555 H          1 MOL1         0.0751
       3    O1      16.505001   16.556161   20.968498 O.3        1 MOL1        -0.3740
       4    C2      16.549934   14.244485   21.738447 C.3        1 MOL1         0.1003
       5    H2      16.467708   13.217537   21.359256 H          1 MOL1         0.0783
       6    O2      15.607400   14.419309   22.806401 O.3        1 MOL1        -0.5519
       7    H3      15.652553   15.368397   23.086844 H          1 MOL1         0.3769
       8    C3      17.999019   14.449610   22.245718 C.3        1 MOL1         0.1053
       9    H4      18.078955   15.465071   22.656311 H          1 MOL1         0.0783
      10    O3      18.299188   13.492264   23.266425 O.3        1 MOL1        -0.5519
      11    H5      17.500721   13.469754   23.840015 H          1 MOL1         0.3769
      12    C4      19.010116   14.316129   21.079743 C.3        1 MOL1         0.1018
      13    H6      19.078269   13.258353   20.793534 H          1 MOL1         0.0783
      14    C5      18.601506   15.155522   19.837407 C.3        1 MOL1         0.1043
      15    H7      18.705053   16.217220   20.090009 H          1 MOL1         0.0783
      16    O4      17.216251   14.881384   19.509870 O.3        1 MOL1        -0.3740
      17    C6      19.478785   14.915129   18.580038 C.3        1 MOL1         0.0138
      18    H8      20.300361   15.642351   18.587672 H          1 MOL1         0.0794
      19    H9      18.876781   15.129084   17.686834 H          1 MOL1         0.0794
      20    O5      20.017632   13.589156   18.504070 O.3        1 MOL1        -0.5486
      21    H10     20.714925   13.517661   19.196559 H          1 MOL1         0.3769
      22    C7      14.857412   20.248261   21.682023 C.3        1 MOL1         0.2972
      23    H11     14.229120   21.128586   21.870845 H          1 MOL1         0.0751
      24    O6      16.230274   20.614204   21.444721 O.3        1 MOL1        -0.3740
      25    C8      14.817385   19.300057   22.901681 C.3        1 MOL1         0.1003
      26    H12     13.780999   18.959762   23.025429 H          1 MOL1         0.0783
      27    O7      15.240182   19.985588   24.091903 O.3        1 MOL1        -0.5519
      28    H13     15.604756   20.859635   23.808687 H          1 MOL1         0.3769
      29    C9      15.706461   18.062717   22.648075 C.3        1 MOL1         0.1053
      30    H14     16.745434   18.406022   22.592871 H          1 MOL1         0.0783
      31    O8      15.561234   17.150009   23.739241 O.3        1 MOL1        -0.5519
      32    H15     15.614800   17.714685   24.543197 H          1 MOL1         0.3769
      33    C10     15.363248   17.368145   21.305032 C.3        1 MOL1         0.1018
      34    H16     14.451834   16.770004   21.437032 H          1 MOL1         0.0783
      35    C11     15.187299   18.376575   20.131903 C.3        1 MOL1         0.1043
      36    H17     16.186847   18.729838   19.850055 H          1 MOL1         0.0783
      37    O9      14.384339   19.518227   20.530941 O.3        1 MOL1        -0.3740
      38    C12     14.554748   17.747581   18.867786 C.3        1 MOL1         0.0138
      39    H18     15.284265   17.060275   18.418251 H          1 MOL1         0.0794
      40    H19     14.364119   18.544608   18.136477 H          1 MOL1         0.0794
      41    O10     13.343077   17.042942   19.165362 O.3        1 MOL1        -0.5486
      42    H20     12.958770   16.738223   18.314373 H          1 MOL1         0.3769
      43    C13     18.541484   24.028274   20.826576 C.3        1 MOL1         0.2972
      44    H21     18.916301   25.014432   20.523279 H          1 MOL1         0.0751
      45    O11     19.598586   23.180307   21.312535 O.3        1 MOL1        -0.3740
      46    C14     17.474174   24.150007   21.947812 C.3        1 MOL1         0.1003
      47    H22     16.638686   24.734743   21.541487 H          1 MOL1         0.0783
      48    O12     17.999015   24.824624   23.101809 O.3        1 MOL1        -0.5519
      49    H23     18.837680   24.363808   23.360259 H          1 MOL1         0.3769
      50    C15     16.933635   22.750426   22.336272 C.3        1 MOL1         0.1053
      51    H24     17.754457   22.182983   22.795199 H          1 MOL1         0.0783
      52    O13     15.859828   22.888231   23.272586 O.3        1 MOL1        -0.5519
      53    H25     16.168842   23.563516   23.917611 H          1 MOL1         0.3769
      54    C16     16.449636   21.986047   21.077759 C.3        1 MOL1         0.1018
      55    H26     15.531700   22.461774   20.707795 H          1 MOL1         0.0783
      56    C17     17.509159   21.991811   19.944898 C.3        1 MOL1         0.1043
      57    H27     18.371781   21.400279   20.275891 H          1 MOL1         0.0783
      58    O14     17.926364   23.358199   19.701684 O.3        1 MOL1        -0.3740
      59    C18     17.022888   21.362312   18.612781 C.3        1 MOL1         0.0138
      60    H28     17.253157   20.289562   18.634641 H          1 MOL1         0.0794
      61    H29     17.604605   21.794185   17.787537 H          1 MOL1         0.0794
      62    O15     15.620575   21.543971   18.376184 O.3        1 MOL1        -0.5486
      63    H30     15.138486   20.992888   19.034946 H          1 MOL1         0.3769
      64    C19     23.598119   22.789176   21.992691 C.3        1 MOL1         0.2972
      65    H31     24.677393   22.871830   22.175980 H          1 MOL1         0.0751
      66    O16     23.202859   21.425905   21.746614 O.3        1 MOL1        -0.3740
      67    C20     22.814621   23.301928   23.222847 C.3        1 MOL1         0.1003
      68    H32     23.059289   24.363711   23.356176 H          1 MOL1         0.0783
      69    O17     23.199171   22.570209   24.398619 O.3        1 MOL1        -0.5519
      70    H33     23.678205   21.763268   24.088924 H          1 MOL1         0.3769
      71    C21     21.292191   23.183409   22.983978 C.3        1 MOL1         0.1053
      72    H34     21.043090   22.116464   22.963531 H          1 MOL1         0.0783
      73    O18     20.586705   23.814878   24.056626 O.3        1 MOL1        -0.5519
      74    H35     20.944094   23.398189   24.872097 H          1 MOL1         0.3769
      75    C22     20.857143   23.801976   21.630833 C.3        1 MOL1         0.1018
      76    H36     20.765781   24.889334   21.753565 H          1 MOL1         0.0783
      77    C23     21.817560   23.464149   20.453515 C.3        1 MOL1         0.1043
      78    H37     21.619488   22.426135   20.161147 H          1 MOL1         0.0783
      79    O19     23.208224   23.579861   20.851515 O.3        1 MOL1        -0.3740
      80    C24     21.589915   24.338704   19.197632 C.3        1 MOL1         0.0138
      81    H38     20.630358   24.055335   18.744300 H          1 MOL1         0.0794
      82    H39     22.375784   24.111971   18.464534 H          1 MOL1         0.0794
      83    O20     21.586333   25.737402   19.508354 O.3        1 MOL1        -0.5486
      84    H40     21.513879   26.230677   18.662092 H          1 MOL1         0.3769
      85    C25     24.872087   17.699388   20.897468 C.3        1 MOL1         0.2972
      86    H41     25.520606   16.884352   20.550948 H          1 MOL1         0.0751
      87    O21     23.578486   17.212539   21.306163 O.3        1 MOL1        -0.3740
      88    C26     25.512990   18.459335   22.091181 C.3        1 MOL1         0.1003
      89    H42     26.462531   18.880313   21.735868 H          1 MOL1         0.0783
      90    O22     25.777724   17.582279   23.196792 O.3        1 MOL1        -0.5519
      91    H43     24.924827   17.135666   23.431407 H          1 MOL1         0.3769
      92    C27     24.607724   19.635293   22.535954 C.3        1 MOL1         0.1053
      93    H44     23.677082   19.216121   22.941852 H          1 MOL1         0.0783
      94    O23     25.270325   20.404765   23.544796 O.3        1 MOL1        -0.5519
      95    H45     25.665699   19.742071   24.154481 H          1 MOL1         0.3769
      96    C28     24.251761   20.537185   21.327853 C.3        1 MOL1         0.1018
      97    H46     25.152816   21.082814   21.017708 H          1 MOL1         0.0783
      98    C29     23.719349   19.715073   20.122817 C.3        1 MOL1         0.1043
      99    H47     22.751714   19.277149   20.400296 H          1 MOL1         0.0783
     100    O24     24.661667   18.653496   19.831661 O.3        1 MOL1        -0.3740
     101    C30     23.482748   20.542078   18.831437 C.3        1 MOL1         0.0138
     102    H48     22.444416   20.895970   18.832221 H          1 MOL1         0.0794
     103    H49     23.586475   19.875255   17.965079 H          1 MOL1         0.0794
     104    O25     24.370334   21.660110   18.699825 O.3        1 MOL1        -0.5486
     105    H50     24.113463   22.320907   19.384363 H          1 MOL1         0.3769
     106    C31     21.280942   13.853477   21.839416 C.3        1 MOL1         0.2972
     107    H51     20.851239   12.855286   21.994878 H          1 MOL1         0.0751
     108    O26     20.266187   14.831740   21.548294 O.3        1 MOL1        -0.3740
     109    C32     22.029721   14.311317   23.112323 C.3        1 MOL1         0.1003
     110    H52     22.854842   13.608301   23.285805 H          1 MOL1         0.0783
     111    O27     21.146673   14.301450   24.245807 O.3        1 MOL1        -0.5519
     112    H53     20.224983   14.283486   23.889568 H          1 MOL1         0.3769
     113    C33     22.630191   15.720724   22.908565 C.3        1 MOL1         0.1053
     114    H54     21.799401   16.429967   22.819252 H          1 MOL1         0.0783
     115    O28     23.430833   16.063598   24.043618 O.3        1 MOL1        -0.5519
     116    H55     22.882928   15.812574   24.820917 H          1 MOL1         0.3769
     117    C34     23.472598   15.808663   21.611287 C.3        1 MOL1         0.1018
     118    H56     24.452586   15.348977   21.796537 H          1 MOL1         0.0783
     119    C35     22.780943   15.137746   20.388090 C.3        1 MOL1         0.1043
     120    H57     21.969029   15.801369   20.066168 H          1 MOL1         0.0783
     121    O29     22.219077   13.846973   20.743530 O.3        1 MOL1        -0.3740
     122    C36     23.718934   14.945832   19.172591 C.3        1 MOL1         0.0138
     123    H58     23.932902   15.931556   18.737698 H          1 MOL1         0.0794
     124    H59     23.188542   14.361317   18.408758 H          1 MOL1         0.0794
     125    O30     24.944584   14.297862   19.534524 O.3        1 MOL1        -0.5486
     126    H60     25.451011   14.135201   18.708820 H          1 MOL1         0.3769
     127    C1      19.671476   18.258117   21.821381 C.3        1 MOL1        -0.1693
     128    H1      18.741604   18.311293   21.240983 H          1 MOL1         0.0829
     129    H2      20.338207   17.526431   21.352897 H          1 MOL1         0.0829
     130    C2      19.474490   18.129803   23.369543 C.3        1 MOL1        -0.1768
     131    H3      18.600033   17.562762   23.704351 H          1 MOL1         0.0829
     132    H4      20.351236   17.772726   23.922080 H          1 MOL1         0.0829
     133    C3      19.311770   19.679199   23.346018 C.3        1 MOL1         0.1211
     134    H5      18.302994   20.014775   23.075742 H          1 MOL1         0.0786
     135    C4      20.311057   19.643266   22.151118 C.3        1 MOL1        -0.1768
     136    H6      21.366128   19.597603   22.442024 H          1 MOL1         0.0829
     137    H7      20.187287   20.426428   21.396990 H          1 MOL1         0.0829
     138    O1      19.764954   20.355151   24.493593 O.3        1 MOL1        -0.5515
     139    H8      20.669119   20.033255   24.677136 H          1 MOL1         0.3773
@<TRIPOS>BOND
    1     1     2    1
    2     1     3    1
    3     1     4    1
    4     4     5    1
    5     4     6    1
    6     6     7    1
    7     4     8    1
    8     8     9    1
    9     8    10    1
   10    10    11    1
   11     8    12    1
   12    12    13    1
   13    12    14    1
   14    14    15    1
   15     1    16    1
   16    14    16    1
   17    14    17    1
   18    17    18    1
   19    17    19    1
   20    17    20    1
   21    20    21    1
   22    22    23    1
   23    22    24    1
   24    22    25    1
   25    25    26    1
   26    25    27    1
   27    27    28    1
   28    25    29    1
   29    29    30    1
   30    29    31    1
   31    31    32    1
   32     3    33    1
   33    29    33    1
   34    33    34    1
   35    33    35    1
   36    35    36    1
   37    22    37    1
   38    35    37    1
   39    35    38    1
   40    38    39    1
   41    38    40    1
   42    38    41    1
   43    41    42    1
   44    43    44    1
   45    43    45    1
   46    43    46    1
   47    46    47    1
   48    46    48    1
   49    48    49    1
   50    46    50    1
   51    50    51    1
   52    50    52    1
   53    52    53    1
   54    24    54    1
   55    50    54    1
   56    54    55    1
   57    54    56    1
   58    56    57    1
   59    43    58    1
   60    56    58    1
   61    56    59    1
   62    59    60    1
   63    59    61    1
   64    59    62    1
   65    62    63    1
   66    64    65    1
   67    64    66    1
   68    64    67    1
   69    67    68    1
   70    67    69    1
   71    69    70    1
   72    67    71    1
   73    71    72    1
   74    71    73    1
   75    73    74    1
   76    45    75    1
   77    71    75    1
   78    75    76    1
   79    75    77    1
   80    77    78    1
   81    64    79    1
   82    77    79    1
   83    77    80    1
   84    80    81    1
   85    80    82    1
   86    80    83    1
   87    83    84    1
   88    85    86    1
   89    85    87    1
   90    85    88    1
   91    88    89    1
   92    88    90    1
   93    90    91    1
   94    88    92    1
   95    92    93    1
   96    92    94    1
   97    94    95    1
   98    66    96    1
   99    92    96    1
  100    96    97    1
  101    96    98    1
  102    98    99    1
  103    85   100    1
  104    98   100    1
  105    98   101    1
  106   101   102    1
  107   101   103    1
  108   101   104    1
  109   104   105    1
  110   106   107    1
  111    12   108    1
  112   106   108    1
  113   106   109    1
  114   109   110    1
  115   109   111    1
  116   111   112    1
  117   109   113    1
  118   113   114    1
  119   113   115    1
  120   115   116    1
  121    87   117    1
  122   113   117    1
  123   117   118    1
  124   117   119    1
  125   119   120    1
  126   106   121    1
  127   119   121    1
  128   119   122    1
  129   122   123    1
  130   122   124    1
  131   122   125    1
  132   125   126    1
  133   127   128    1
  134   127   129    1
  135   127   130    1
  136   130   131    1
  137   130   132    1
  138   130   133    1
  139   133   134    1
  140   127   135    1
  141   133   135    1
  142   135   136    1
  143   135   137    1
  144   133   138    1
  145   138   139    1
@<TRIPOS>SUBSTRUCTURE
       1 MOL1            1 RESIDUE      1      MOL     
       2 MOL1          139 RESIDUE      1      MOL     
@<SCITEGIC>MOL_PROPERTY
feprocess Rank
SciTegic.value.IntegerValue
15

@<SCITEGIC>MOL_PROPERTY
Conf_Id
SciTegic.value.IntegerValue
4

@<SCITEGIC>MOL_PROPERTY
Probability
SciTegic.value.DoubleValue
1.18

@<SCITEGIC>MOL_PROPERTY
G
SciTegic.value.DoubleValue
546.696

@<SCITEGIC>MOL_PROPERTY
E
SciTegic.value.DoubleValue
368.826

@<SCITEGIC>MOL_PROPERTY
-TS
SciTegic.value.DoubleValue
177.870

@<SCITEGIC>MOL_PROPERTY
U+W
SciTegic.value.DoubleValue
246.314

@<SCITEGIC>MOL_PROPERTY
U
SciTegic.value.DoubleValue
283.398

@<SCITEGIC>MOL_PROPERTY
W
SciTegic.value.DoubleValue
-37.083

@<SCITEGIC>MOL_PROPERTY
W(PB)
SciTegic.value.DoubleValue
-43.094

@<SCITEGIC>MOL_PROPERTY
W(SA)
SciTegic.value.DoubleValue
6.010

@<SCITEGIC>MOL_PROPERTY
Valence
SciTegic.value.DoubleValue
153.547

@<SCITEGIC>MOL_PROPERTY
Coulomb
SciTegic.value.DoubleValue
150.836

@<SCITEGIC>MOL_PROPERTY
VdW
SciTegic.value.DoubleValue
-20.986

@<SCITEGIC>MOL_PROPERTY
VdW6
SciTegic.value.DoubleValue
-167.499

@<SCITEGIC>MOL_PROPERTY
VdW12
SciTegic.value.DoubleValue
146.513

@<SCITEGIC>MOL_PROPERTY
Bond
SciTegic.value.DoubleValue
4.577

@<SCITEGIC>MOL_PROPERTY
Angle
SciTegic.value.DoubleValue
12.119

@<SCITEGIC>MOL_PROPERTY
Pdih
SciTegic.value.DoubleValue
136.851

@<SCITEGIC>MOL_PROPERTY
Idih
SciTegic.value.DoubleValue
0.000

@<SCITEGIC>MOL_PROPERTY
Tether
SciTegic.value.DoubleValue
0.000

@<TRIPOS>MOLECULE
CD_guest-s16_fast_vm2_rndm.mol2 : feprocess host+ligand conformer 16
         139         145           2
SMALL
USER_CHARGES
 
@<TRIPOS>ATOM
       1    C1      16.239649   15.275477   20.981833 C.3        1 MOL1         0.2972
       2    H1      15.225337   15.046049   20.630692 H          1 MOL1         0.0751
       3    O1      16.308868   16.585195   21.575978 O.3        1 MOL1        -0.3740
       4    C2      16.672937   14.265011   22.077968 C.3        1 MOL1         0.1003
       5    H2      16.580298   13.256811   21.653769 H          1 MOL1         0.0783
       6    O2      15.816747   14.380012   23.226530 O.3        1 MOL1        -0.5519
       7    H3      15.643506   15.345044   23.354065 H          1 MOL1         0.3769
       8    C3      18.153011   14.477954   22.490961 C.3        1 MOL1         0.1053
       9    H4      18.231736   15.445775   23.005560 H          1 MOL1         0.0783
      10    O3      18.564203   13.425322   23.370057 O.3        1 MOL1        -0.5519
      11    H5      17.831983   13.333863   24.019957 H          1 MOL1         0.3769
      12    C4      19.067831   14.520679   21.243552 C.3        1 MOL1         0.1018
      13    H6      19.073550   13.529327   20.770920 H          1 MOL1         0.0783
      14    C5      18.548061   15.558998   20.216079 C.3        1 MOL1         0.1043
      15    H7      18.573967   16.556268   20.673606 H          1 MOL1         0.0783
      16    O4      17.183238   15.208475   19.888850 O.3        1 MOL1        -0.3740
      17    C6      19.364947   15.638437   18.901403 C.3        1 MOL1         0.0138
      18    H8      20.173500   16.366203   19.040797 H          1 MOL1         0.0794
      19    H9      18.716157   16.038727   18.111169 H          1 MOL1         0.0794
      20    O5      19.911530   14.375896   18.498205 O.3        1 MOL1        -0.5486
      21    H10     20.619606   14.143020   19.143005 H          1 MOL1         0.3769
      22    C7      14.558895   20.338851   21.347697 C.3        1 MOL1         0.2972
      23    H11     13.879294   21.193931   21.239912 H          1 MOL1         0.0751
      24    O6      15.915032   20.768813   21.568244 O.3        1 MOL1        -0.3740
      25    C8      14.126707   19.480066   22.559747 C.3        1 MOL1         0.1003
      26    H12     13.103390   19.129313   22.372850 H          1 MOL1         0.0783
      27    O7      14.150751   20.272146   23.757849 O.3        1 MOL1        -0.5519
      28    H13     14.855632   20.951839   23.629905 H          1 MOL1         0.3769
      29    C9      15.039622   18.241428   22.712832 C.3        1 MOL1         0.1053
      30    H14     16.035771   18.595226   23.005706 H          1 MOL1         0.0783
      31    O8      14.518251   17.383102   23.733832 O.3        1 MOL1        -0.5519
      32    H15     14.315166   17.978413   24.489104 H          1 MOL1         0.3769
      33    C10     15.172761   17.453183   21.385675 C.3        1 MOL1         0.1018
      34    H16     14.246333   16.884544   21.231761 H          1 MOL1         0.0783
      35    C11     15.443176   18.380405   20.163234 C.3        1 MOL1         0.1043
      36    H17     16.475345   18.746136   20.244639 H          1 MOL1         0.0783
      37    O9      14.528816   19.508292   20.170947 O.3        1 MOL1        -0.3740
      38    C12     15.298287   17.686475   18.786863 C.3        1 MOL1         0.0138
      39    H18     16.176728   17.054228   18.613042 H          1 MOL1         0.0794
      40    H19     15.303907   18.457733   18.005021 H          1 MOL1         0.0794
      41    O10     14.101499   16.902798   18.698232 O.3        1 MOL1        -0.5486
      42    H20     14.056573   16.530398   17.790875 H          1 MOL1         0.3769
      43    C13     18.533464   23.928320   20.790099 C.3        1 MOL1         0.2972
      44    H21     18.986511   24.867026   20.446105 H          1 MOL1         0.0751
      45    O11     19.519479   23.028941   21.333419 O.3        1 MOL1        -0.3740
      46    C14     17.463646   24.194269   21.881732 C.3        1 MOL1         0.1003
      47    H22     16.700972   24.848349   21.439556 H          1 MOL1         0.0783
      48    O12     18.038946   24.847123   23.025055 O.3        1 MOL1        -0.5519
      49    H23     18.821515   24.309894   23.309701 H          1 MOL1         0.3769
      50    C15     16.773018   22.874725   22.307410 C.3        1 MOL1         0.1053
      51    H24     17.517834   22.257572   22.827329 H          1 MOL1         0.0783
      52    O13     15.685281   23.164165   23.192232 O.3        1 MOL1        -0.5519
      53    H25     16.042819   23.816099   23.835187 H          1 MOL1         0.3769
      54    C16     16.256810   22.081026   21.079992 C.3        1 MOL1         0.1018
      55    H26     15.386667   22.608007   20.667031 H          1 MOL1         0.0783
      56    C17     17.348133   21.944853   19.979662 C.3        1 MOL1         0.1043
      57    H27     18.147733   21.304673   20.367843 H          1 MOL1         0.0783
      58    O14     17.884540   23.258486   19.688230 O.3        1 MOL1        -0.3740
      59    C18     16.879611   21.311897   18.644696 C.3        1 MOL1         0.0138
      60    H28     17.022470   20.226407   18.704692 H          1 MOL1         0.0794
      61    H29     17.538300   21.668330   17.841659 H          1 MOL1         0.0794
      62    O15     15.515005   21.605822   18.324552 O.3        1 MOL1        -0.5486
      63    H30     14.960773   20.990095   18.858649 H          1 MOL1         0.3769
      64    C19     23.572938   22.643531   22.012817 C.3        1 MOL1         0.2972
      65    H31     24.644246   22.791622   22.201963 H          1 MOL1         0.0751
      66    O16     23.264229   21.255229   21.784588 O.3        1 MOL1        -0.3740
      67    C20     22.756625   23.129010   23.234181 C.3        1 MOL1         0.1003
      68    H32     22.962909   24.199008   23.367454 H          1 MOL1         0.0783
      69    O17     23.153392   22.415572   24.416518 O.3        1 MOL1        -0.5519
      70    H33     23.669577   21.629811   24.114304 H          1 MOL1         0.3769
      71    C21     21.241384   22.958296   22.983530 C.3        1 MOL1         0.1053
      72    H34     21.027444   21.883430   22.944371 H          1 MOL1         0.0783
      73    O18     20.508353   23.555077   24.058256 O.3        1 MOL1        -0.5519
      74    H35     20.952550   23.234255   24.874838 H          1 MOL1         0.3769
      75    C22     20.810476   23.590088   21.637118 C.3        1 MOL1         0.1018
      76    H36     20.767534   24.680494   21.761144 H          1 MOL1         0.0783
      77    C23     21.762762   23.217619   20.463934 C.3        1 MOL1         0.1043
      78    H37     21.586917   22.163403   20.218140 H          1 MOL1         0.0783
      79    O19     23.150784   23.388342   20.851794 O.3        1 MOL1        -0.3740
      80    C24     21.514626   24.035341   19.173831 C.3        1 MOL1         0.0138
      81    H38     20.564095   23.709356   18.730305 H          1 MOL1         0.0794
      82    H39     22.307607   23.800302   18.451102 H          1 MOL1         0.0794
      83    O20     21.474684   25.444759   19.429037 O.3        1 MOL1        -0.5486
      84    H40     21.398264   25.902427   18.563438 H          1 MOL1         0.3769
      85    C25     25.106374   17.634847   20.939608 C.3        1 MOL1         0.2972
      86    H41     25.765313   16.823026   20.605510 H          1 MOL1         0.0751
      87    O21     23.831690   17.142310   21.395945 O.3        1 MOL1        -0.3740
      88    C26     25.740947   18.425871   22.113082 C.3        1 MOL1         0.1003
      89    H42     26.673770   18.872001   21.744449 H          1 MOL1         0.0783
      90    O22     26.036785   17.560782   23.221167 O.3        1 MOL1        -0.5519
      91    H43     25.235162   17.001696   23.384557 H          1 MOL1         0.3769
      92    C27     24.801939   19.575023   22.559654 C.3        1 MOL1         0.1053
      93    H44     23.902195   19.127763   23.001530 H          1 MOL1         0.0783
      94    O23     25.457695   20.386375   23.539384 O.3        1 MOL1        -0.5519
      95    H45     25.882439   19.749565   24.156783 H          1 MOL1         0.3769
      96    C28     24.372959   20.446772   21.351627 C.3        1 MOL1         0.1018
      97    H46     25.232686   21.057006   21.044977 H          1 MOL1         0.0783
      98    C29     23.895488   19.605491   20.134628 C.3        1 MOL1         0.1043
      99    H47     22.938062   19.136369   20.386267 H          1 MOL1         0.0783
     100    O24     24.869524   18.568839   19.860876 O.3        1 MOL1        -0.3740
     101    C30     23.652299   20.426184   18.840182 C.3        1 MOL1         0.0138
     102    H48     22.605070   20.752778   18.828418 H          1 MOL1         0.0794
     103    H49     23.785423   19.762772   17.975197 H          1 MOL1         0.0794
     104    O25     24.508175   21.569291   18.718707 O.3        1 MOL1        -0.5486
     105    H50     24.206717   22.232895   19.381964 H          1 MOL1         0.3769
     106    C31     21.374263   13.866370   21.682210 C.3        1 MOL1         0.2972
     107    H51     20.909061   12.873258   21.732749 H          1 MOL1         0.0751
     108    O26     20.384123   14.913661   21.672846 O.3        1 MOL1        -0.3740
     109    C32     22.295250   14.074533   22.907864 C.3        1 MOL1         0.1003
     110    H52     23.079861   13.307770   22.867417 H          1 MOL1         0.0783
     111    O27     21.547958   13.928120   24.126085 O.3        1 MOL1        -0.5519
     112    H53     20.592816   14.015588   23.886017 H          1 MOL1         0.3769
     113    C33     22.975526   15.461440   22.853655 C.3        1 MOL1         0.1053
     114    H54     22.197063   16.220111   22.998226 H          1 MOL1         0.0783
     115    O28     23.938283   15.564953   23.907230 O.3        1 MOL1        -0.5519
     116    H55     23.474678   15.226733   24.705945 H          1 MOL1         0.3769
     117    C34     23.660670   15.716475   21.486884 C.3        1 MOL1         0.1018
     118    H56     24.618525   15.180011   21.467834 H          1 MOL1         0.0783
     119    C35     22.780538   15.298536   20.275013 C.3        1 MOL1         0.1043
     120    H57     21.987192   16.048615   20.175572 H          1 MOL1         0.0783
     121    O29     22.175025   13.996960   20.489453 O.3        1 MOL1        -0.3740
     122    C36     23.550921   15.267068   18.933506 C.3        1 MOL1         0.0138
     123    H58     23.791330   16.299096   18.644641 H          1 MOL1         0.0794
     124    H59     22.889966   14.857658   18.157665 H          1 MOL1         0.0794
     125    O30     24.754564   14.494595   19.022147 O.3        1 MOL1        -0.5486
     126    H60     25.155802   14.464353   18.126266 H          1 MOL1         0.3769
     127    C1      19.964979   18.955344   23.460411 C.3        1 MOL1        -0.1693
     128    H1      20.356438   19.868322   23.926196 H          1 MOL1         0.0829
     129    H2      19.801314   18.204629   24.242372 H          1 MOL1         0.0829
     130    C2      20.752968   18.470977   22.203383 C.3        1 MOL1        -0.1768
     131    H3      20.593964   17.422200   21.940163 H          1 MOL1         0.0829
     132    H4      21.824166   18.676079   22.219404 H          1 MOL1         0.0829
     133    C3      19.871479   19.464911   21.395345 C.3        1 MOL1         0.1211
     134    H5      20.243757   20.495899   21.401890 H          1 MOL1         0.0786
     135    C4      18.780589   19.180292   22.469310 C.3        1 MOL1        -0.1768
     136    H6      18.179739   18.287355   22.272518 H          1 MOL1         0.0829
     137    H7      18.114724   20.012503   22.709236 H          1 MOL1         0.0829
     138    O1      19.547135   19.057778   20.084172 O.3        1 MOL1        -0.5515
     139    H8      20.355262   19.144229   19.544155 H          1 MOL1         0.3773
@<TRIPOS>BOND
    1     1     2    1
    2     1     3    1
    3     1     4    1
    4     4     5    1
    5     4     6    1
    6     6     7    1
    7     4     8    1
    8     8     9    1
    9     8    10    1
   10    10    11    1
   11     8    12    1
   12    12    13    1
   13    12    14    1
   14    14    15    1
   15     1    16    1
   16    14    16    1
   17    14    17    1
   18    17    18    1
   19    17    19    1
   20    17    20    1
   21    20    21    1
   22    22    23    1
   23    22    24    1
   24    22    25    1
   25    25    26    1
   26    25    27    1
   27    27    28    1
   28    25    29    1
   29    29    30    1
   30    29    31    1
   31    31    32    1
   32     3    33    1
   33    29    33    1
   34    33    34    1
   35    33    35    1
   36    35    36    1
   37    22    37    1
   38    35    37    1
   39    35    38    1
   40    38    39    1
   41    38    40    1
   42    38    41    1
   43    41    42    1
   44    43    44    1
   45    43    45    1
   46    43    46    1
   47    46    47    1
   48    46    48    1
   49    48    49    1
   50    46    50    1
   51    50    51    1
   52    50    52    1
   53    52    53    1
   54    24    54    1
   55    50    54    1
   56    54    55    1
   57    54    56    1
   58    56    57    1
   59    43    58    1
   60    56    58    1
   61    56    59    1
   62    59    60    1
   63    59    61    1
   64    59    62    1
   65    62    63    1
   66    64    65    1
   67    64    66    1
   68    64    67    1
   69    67    68    1
   70    67    69    1
   71    69    70    1
   72    67    71    1
   73    71    72    1
   74    71    73    1
   75    73    74    1
   76    45    75    1
   77    71    75    1
   78    75    76    1
   79    75    77    1
   80    77    78    1
   81    64    79    1
   82    77    79    1
   83    77    80    1
   84    80    81    1
   85    80    82    1
   86    80    83    1
   87    83    84    1
   88    85    86    1
   89    85    87    1
   90    85    88    1
   91    88    89    1
   92    88    90    1
   93    90    91    1
   94    88    92    1
   95    92    93    1
   96    92    94    1
   97    94    95    1
   98    66    96    1
   99    92    96    1
  100    96    97    1
  101    96    98    1
  102    98    99    1
  103    85   100    1
  104    98   100    1
  105    98   101    1
  106   101   102    1
  107   101   103    1
  108   101   104    1
  109   104   105    1
  110   106   107    1
  111    12   108    1
  112   106   108    1
  113   106   109    1
  114   109   110    1
  115   109   111    1
  116   111   112    1
  117   109   113    1
  118   113   114    1
  119   113   115    1
  120   115   116    1
  121    87   117    1
  122   113   117    1
  123   117   118    1
  124   117   119    1
  125   119   120    1
  126   106   121    1
  127   119   121    1
  128   119   122    1
  129   122   123    1
  130   122   124    1
  131   122   125    1
  132   125   126    1
  133   127   128    1
  134   127   129    1
  135   127   130    1
  136   130   131    1
  137   130   132    1
  138   130   133    1
  139   133   134    1
  140   127   135    1
  141   133   135    1
  142   135   136    1
  143   135   137    1
  144   133   138    1
  145   138   139    1
@<TRIPOS>SUBSTRUCTURE
       1 MOL1            1 RESIDUE      1      MOL     
       2 MOL1          139 RESIDUE      1      MOL     
@<SCITEGIC>MOL_PROPERTY
feprocess Rank
SciTegic.value.IntegerValue
16

@<SCITEGIC>MOL_PROPERTY
Conf_Id
SciTegic.value.IntegerValue
722

@<SCITEGIC>MOL_PROPERTY
Probability
SciTegic.value.DoubleValue
1.14

@<SCITEGIC>MOL_PROPERTY
G
SciTegic.value.DoubleValue
546.717

@<SCITEGIC>MOL_PROPERTY
E
SciTegic.value.DoubleValue
369.568

@<SCITEGIC>MOL_PROPERTY
-TS
SciTegic.value.DoubleValue
177.149

@<SCITEGIC>MOL_PROPERTY
U+W
SciTegic.value.DoubleValue
247.057

@<SCITEGIC>MOL_PROPERTY
U
SciTegic.value.DoubleValue
283.766

@<SCITEGIC>MOL_PROPERTY
W
SciTegic.value.DoubleValue
-36.709

@<SCITEGIC>MOL_PROPERTY
W(PB)
SciTegic.value.DoubleValue
-42.624

@<SCITEGIC>MOL_PROPERTY
W(SA)
SciTegic.value.DoubleValue
5.915

@<SCITEGIC>MOL_PROPERTY
Valence
SciTegic.value.DoubleValue
153.165

@<SCITEGIC>MOL_PROPERTY
Coulomb
SciTegic.value.DoubleValue
153.825

@<SCITEGIC>MOL_PROPERTY
VdW
SciTegic.value.DoubleValue
-23.223

@<SCITEGIC>MOL_PROPERTY
VdW6
SciTegic.value.DoubleValue
-168.498

@<SCITEGIC>MOL_PROPERTY
VdW12
SciTegic.value.DoubleValue
145.275

@<SCITEGIC>MOL_PROPERTY
Bond
SciTegic.value.DoubleValue
4.474

@<SCITEGIC>MOL_PROPERTY
Angle
SciTegic.value.DoubleValue
11.306

@<SCITEGIC>MOL_PROPERTY
Pdih
SciTegic.value.DoubleValue
137.385

@<SCITEGIC>MOL_PROPERTY
Idih
SciTegic.value.DoubleValue
0.000

@<SCITEGIC>MOL_PROPERTY
Tether
SciTegic.value.DoubleValue
0.000

@<TRIPOS>MOLECULE
CD_guest-s16_fast_vm2_rndm.mol2 : feprocess host+ligand conformer 17
         139         145           2
SMALL
USER_CHARGES
 
@<TRIPOS>ATOM
       1    C1      16.343262   15.420949   20.466718 C.3        1 MOL1         0.2972
       2    H1      15.346433   15.303458   20.022407 H          1 MOL1         0.0751
       3    O1      16.490464   16.698866   21.114518 O.3        1 MOL1        -0.3740
       4    C2      16.609047   14.319743   21.527105 C.3        1 MOL1         0.1003
       5    H2      16.517028   13.349536   21.021906 H          1 MOL1         0.0783
       6    O2      15.649673   14.387489   22.594747 O.3        1 MOL1        -0.5519
       7    H3      15.597272   15.332995   22.886865 H          1 MOL1         0.3769
       8    C3      18.049109   14.430995   22.087905 C.3        1 MOL1         0.1053
       9    H4      18.125099   15.366879   22.658938 H          1 MOL1         0.0783
      10    O3      18.319589   13.316436   22.944858 O.3        1 MOL1        -0.5519
      11    H5      17.523267   13.232881   23.515337 H          1 MOL1         0.3769
      12    C4      19.087983   14.478957   20.941015 C.3        1 MOL1         0.1018
      13    H6      19.126039   13.491730   20.461956 H          1 MOL1         0.0783
      14    C5      18.718415   15.551380   19.879927 C.3        1 MOL1         0.1043
      15    H7      18.785973   16.539362   20.350629 H          1 MOL1         0.0783
      16    O4      17.357725   15.319212   19.442771 O.3        1 MOL1        -0.3740
      17    C6      19.633481   15.584004   18.628429 C.3        1 MOL1         0.0138
      18    H8      20.470938   16.264031   18.825458 H          1 MOL1         0.0794
      19    H9      19.066230   16.017316   17.793902 H          1 MOL1         0.0794
      20    O5      20.138044   14.295176   18.260419 O.3        1 MOL1        -0.5486
      21    H10     20.886528   14.096657   18.869554 H          1 MOL1         0.3769
      22    C7      14.603601   20.326529   21.657801 C.3        1 MOL1         0.2972
      23    H11     13.912555   21.174222   21.747854 H          1 MOL1         0.0751
      24    O6      15.982296   20.741661   21.726059 O.3        1 MOL1        -0.3740
      25    C8      14.368625   19.307189   22.799526 C.3        1 MOL1         0.1003
      26    H12     13.345013   18.923927   22.697295 H          1 MOL1         0.0783
      27    O7      14.514123   19.932926   24.084717 O.3        1 MOL1        -0.5519
      28    H13     15.262355   20.578446   24.016736 H          1 MOL1         0.3769
      29    C9      15.343547   18.112613   22.664670 C.3        1 MOL1         0.1053
      30    H14     16.359912   18.484300   22.840889 H          1 MOL1         0.0783
      31    O8      15.020162   17.116432   23.640386 O.3        1 MOL1        -0.5519
      32    H15     14.892476   17.614778   24.478299 H          1 MOL1         0.3769
      33    C10     15.295867   17.493015   21.245887 C.3        1 MOL1         0.1018
      34    H16     14.386200   16.882590   21.169929 H          1 MOL1         0.0783
      35    C11     15.319963   18.561179   20.113884 C.3        1 MOL1         0.1043
      36    H17     16.334550   18.975287   20.055070 H          1 MOL1         0.0783
      37    O9      14.392196   19.634121   20.409821 O.3        1 MOL1        -0.3740
      38    C12     14.976422   17.993478   18.715561 C.3        1 MOL1         0.0138
      39    H18     15.818345   17.377589   18.371962 H          1 MOL1         0.0794
      40    H19     14.878559   18.831330   18.012365 H          1 MOL1         0.0794
      41    O10     13.775383   17.211404   18.728259 O.3        1 MOL1        -0.5486
      42    H20     13.581630   16.948260   17.802112 H          1 MOL1         0.3769
      43    C13     18.563405   23.948254   21.617721 C.3        1 MOL1         0.2972
      44    H21     19.050257   24.932161   21.599935 H          1 MOL1         0.0751
      45    O11     19.514030   22.884102   21.420726 O.3        1 MOL1        -0.3740
      46    C14     17.867851   23.734660   22.982927 C.3        1 MOL1         0.1003
      47    H22     17.103586   24.515072   23.092599 H          1 MOL1         0.0783
      48    O12     18.819196   23.843558   24.054392 O.3        1 MOL1        -0.5519
      49    H23     19.716988   23.840228   23.640984 H          1 MOL1         0.3769
      50    C15     17.164083   22.360133   23.023392 C.3        1 MOL1         0.1053
      51    H24     17.942159   21.588803   22.998238 H          1 MOL1         0.0783
      52    O13     16.413658   22.239013   24.235382 O.3        1 MOL1        -0.5519
      53    H25     17.017917   22.567336   24.938490 H          1 MOL1         0.3769
      54    C16     16.235661   22.157245   21.800061 C.3        1 MOL1         0.1018
      55    H26     15.317903   22.739100   21.956385 H          1 MOL1         0.0783
      56    C17     16.902011   22.568039   20.456675 C.3        1 MOL1         0.1043
      57    H27     17.644142   21.800222   20.207481 H          1 MOL1         0.0783
      58    O14     17.569482   23.851416   20.576866 O.3        1 MOL1        -0.3740
      59    C18     15.904564   22.645569   19.276505 C.3        1 MOL1         0.0138
      60    H28     15.564081   21.628849   19.039576 H          1 MOL1         0.0794
      61    H29     16.433686   23.026530   18.392667 H          1 MOL1         0.0794
      62    O15     14.777172   23.476799   19.579413 O.3        1 MOL1        -0.5486
      63    H30     14.206082   23.506418   18.781141 H          1 MOL1         0.3769
      64    C19     23.473626   22.361397   20.199164 C.3        1 MOL1         0.2972
      65    H31     24.455625   22.454774   19.717941 H          1 MOL1         0.0751
      66    O16     23.323189   21.080236   20.843227 O.3        1 MOL1        -0.3740
      67    C20     23.231614   23.506948   21.223974 C.3        1 MOL1         0.1003
      68    H32     23.241596   24.447285   20.657487 H          1 MOL1         0.0783
      69    O17     24.256237   23.569757   22.226248 O.3        1 MOL1        -0.5519
      70    H33     24.195001   22.734321   22.754093 H          1 MOL1         0.3769
      71    C21     21.833200   23.364625   21.875259 C.3        1 MOL1         0.1053
      72    H34     21.815077   22.435077   22.460943 H          1 MOL1         0.0783
      73    O18     21.578320   24.483407   22.731586 O.3        1 MOL1        -0.5519
      74    H35     22.416467   24.625754   23.225852 H          1 MOL1         0.3769
      75    C22     20.741214   23.274229   20.781371 C.3        1 MOL1         0.1018
      76    H36     20.653914   24.253576   20.292267 H          1 MOL1         0.0783
      77    C23     21.078670   22.207481   19.705484 C.3        1 MOL1         0.1043
      78    H37     21.036230   21.216888   20.176299 H          1 MOL1         0.0783
      79    O19     22.421206   22.451895   19.209645 O.3        1 MOL1        -0.3740
      80    C24     20.094195   22.172784   18.507001 C.3        1 MOL1         0.0138
      81    H38     19.284114   21.472390   18.745942 H          1 MOL1         0.0794
      82    H39     20.619288   21.762150   17.634300 H          1 MOL1         0.0794
      83    O20     19.538924   23.455713   18.189116 O.3        1 MOL1        -0.5486
      84    H40     18.926643   23.701021   18.921309 H          1 MOL1         0.3769
      85    C25     24.988280   17.737555   22.458828 C.3        1 MOL1         0.2972
      86    H41     25.586172   16.930687   22.902132 H          1 MOL1         0.0751
      87    O21     23.671596   17.280019   22.095181 O.3        1 MOL1        -0.3740
      88    C26     24.853109   18.903936   23.465829 C.3        1 MOL1         0.1003
      89    H42     25.861971   19.287832   23.665126 H          1 MOL1         0.0783
      90    O22     24.260852   18.456424   24.694231 O.3        1 MOL1        -0.5519
      91    H43     23.373776   18.086135   24.459762 H          1 MOL1         0.3769
      92    C27     24.007885   20.047150   22.868685 C.3        1 MOL1         0.1053
      93    H44     22.984172   19.674656   22.771111 H          1 MOL1         0.0783
      94    O23     24.024441   21.161006   23.766186 O.3        1 MOL1        -0.5519
      95    H45     23.859043   20.770631   24.653714 H          1 MOL1         0.3769
      96    C28     24.478768   20.472612   21.455127 C.3        1 MOL1         0.1018
      97    H46     25.322781   21.168717   21.546390 H          1 MOL1         0.0783
      98    C29     24.861007   19.267248   20.546561 C.3        1 MOL1         0.1043
      99    H47     23.922761   18.817919   20.201348 H          1 MOL1         0.0783
     100    O24     25.618930   18.260613   21.270244 O.3        1 MOL1        -0.3740
     101    C30     25.657736   19.674040   19.284563 C.3        1 MOL1         0.0138
     102    H48     24.987851   20.227679   18.612909 H          1 MOL1         0.0794
     103    H49     25.968902   18.762716   18.756236 H          1 MOL1         0.0794
     104    O25     26.798858   20.478833   19.604517 O.3        1 MOL1        -0.5486
     105    H50     27.297538   20.634168   18.772655 H          1 MOL1         0.3769
     106    C31     21.416419   13.887729   21.396773 C.3        1 MOL1         0.2972
     107    H51     21.037603   12.881838   21.174609 H          1 MOL1         0.0751
     108    O26     20.345047   14.840624   21.539805 O.3        1 MOL1        -0.3740
     109    C32     22.204963   13.866120   22.726153 C.3        1 MOL1         0.1003
     110    H52     23.045156   13.170755   22.601129 H          1 MOL1         0.0783
     111    O27     21.362327   13.406066   23.795111 O.3        1 MOL1        -0.5519
     112    H53     20.437994   13.667469   23.560764 H          1 MOL1         0.3769
     113    C33     22.785192   15.263059   23.051736 C.3        1 MOL1         0.1053
     114    H54     21.950162   15.931712   23.302624 H          1 MOL1         0.0783
     115    O28     23.668240   15.145432   24.171222 O.3        1 MOL1        -0.5519
     116    H55     23.146763   14.681811   24.862164 H          1 MOL1         0.3769
     117    C34     23.544139   15.867729   21.841296 C.3        1 MOL1         0.1018
     118    H56     24.520337   15.372227   21.760148 H          1 MOL1         0.0783
     119    C35     22.775050   15.709458   20.497497 C.3        1 MOL1         0.1043
     120    H57     21.912541   16.383729   20.525096 H          1 MOL1         0.0783
     121    O29     22.302815   14.346175   20.353294 O.3        1 MOL1        -0.3740
     122    C36     23.587664   16.085666   19.229473 C.3        1 MOL1         0.0138
     123    H58     23.381849   17.133803   18.981423 H          1 MOL1         0.0794
     124    H59     23.216699   15.488396   18.385693 H          1 MOL1         0.0794
     125    O30     25.000194   15.895491   19.377571 O.3        1 MOL1        -0.5486
     126    H60     25.324115   16.579344   20.009296 H          1 MOL1         0.3769
     127    C1      19.090333   19.163254   21.859379 C.3        1 MOL1        -0.1693
     128    H1      19.062880   20.229401   21.608448 H          1 MOL1         0.0829
     129    H2      18.389819   18.634987   21.206056 H          1 MOL1         0.0829
     130    C2      18.988537   18.833790   23.386503 C.3        1 MOL1        -0.1768
     131    H3      18.714584   17.795716   23.613252 H          1 MOL1         0.0829
     132    H4      18.363158   19.501777   23.988004 H          1 MOL1         0.0829
     133    C3      20.518546   19.121084   23.418745 C.3        1 MOL1         0.1211
     134    H5      20.767202   20.189178   23.486337 H          1 MOL1         0.0786
     135    C4      20.527145   18.561283   21.964851 C.3        1 MOL1        -0.1768
     136    H6      20.567939   17.469138   21.913273 H          1 MOL1         0.0829
     137    H7      21.282270   18.979068   21.291298 H          1 MOL1         0.0829
     138    O1      21.262636   18.374253   24.355159 O.3        1 MOL1        -0.5515
     139    H8      20.951498   18.640080   25.244113 H          1 MOL1         0.3773
@<TRIPOS>BOND
    1     1     2    1
    2     1     3    1
    3     1     4    1
    4     4     5    1
    5     4     6    1
    6     6     7    1
    7     4     8    1
    8     8     9    1
    9     8    10    1
   10    10    11    1
   11     8    12    1
   12    12    13    1
   13    12    14    1
   14    14    15    1
   15     1    16    1
   16    14    16    1
   17    14    17    1
   18    17    18    1
   19    17    19    1
   20    17    20    1
   21    20    21    1
   22    22    23    1
   23    22    24    1
   24    22    25    1
   25    25    26    1
   26    25    27    1
   27    27    28    1
   28    25    29    1
   29    29    30    1
   30    29    31    1
   31    31    32    1
   32     3    33    1
   33    29    33    1
   34    33    34    1
   35    33    35    1
   36    35    36    1
   37    22    37    1
   38    35    37    1
   39    35    38    1
   40    38    39    1
   41    38    40    1
   42    38    41    1
   43    41    42    1
   44    43    44    1
   45    43    45    1
   46    43    46    1
   47    46    47    1
   48    46    48    1
   49    48    49    1
   50    46    50    1
   51    50    51    1
   52    50    52    1
   53    52    53    1
   54    24    54    1
   55    50    54    1
   56    54    55    1
   57    54    56    1
   58    56    57    1
   59    43    58    1
   60    56    58    1
   61    56    59    1
   62    59    60    1
   63    59    61    1
   64    59    62    1
   65    62    63    1
   66    64    65    1
   67    64    66    1
   68    64    67    1
   69    67    68    1
   70    67    69    1
   71    69    70    1
   72    67    71    1
   73    71    72    1
   74    71    73    1
   75    73    74    1
   76    45    75    1
   77    71    75    1
   78    75    76    1
   79    75    77    1
   80    77    78    1
   81    64    79    1
   82    77    79    1
   83    77    80    1
   84    80    81    1
   85    80    82    1
   86    80    83    1
   87    83    84    1
   88    85    86    1
   89    85    87    1
   90    85    88    1
   91    88    89    1
   92    88    90    1
   93    90    91    1
   94    88    92    1
   95    92    93    1
   96    92    94    1
   97    94    95    1
   98    66    96    1
   99    92    96    1
  100    96    97    1
  101    96    98    1
  102    98    99    1
  103    85   100    1
  104    98   100    1
  105    98   101    1
  106   101   102    1
  107   101   103    1
  108   101   104    1
  109   104   105    1
  110   106   107    1
  111    12   108    1
  112   106   108    1
  113   106   109    1
  114   109   110    1
  115   109   111    1
  116   111   112    1
  117   109   113    1
  118   113   114    1
  119   113   115    1
  120   115   116    1
  121    87   117    1
  122   113   117    1
  123   117   118    1
  124   117   119    1
  125   119   120    1
  126   106   121    1
  127   119   121    1
  128   119   122    1
  129   122   123    1
  130   122   124    1
  131   122   125    1
  132   125   126    1
  133   127   128    1
  134   127   129    1
  135   127   130    1
  136   130   131    1
  137   130   132    1
  138   130   133    1
  139   133   134    1
  140   127   135    1
  141   133   135    1
  142   135   136    1
  143   135   137    1
  144   133   138    1
  145   138   139    1
@<TRIPOS>SUBSTRUCTURE
       1 MOL1            1 RESIDUE      1      MOL     
       2 MOL1          139 RESIDUE      1      MOL     
@<SCITEGIC>MOL_PROPERTY
feprocess Rank
SciTegic.value.IntegerValue
17

@<SCITEGIC>MOL_PROPERTY
Conf_Id
SciTegic.value.IntegerValue
22

@<SCITEGIC>MOL_PROPERTY
Probability
SciTegic.value.DoubleValue
1.12

@<SCITEGIC>MOL_PROPERTY
G
SciTegic.value.DoubleValue
546.727

@<SCITEGIC>MOL_PROPERTY
E
SciTegic.value.DoubleValue
368.212

@<SCITEGIC>MOL_PROPERTY
-TS
SciTegic.value.DoubleValue
178.515

@<SCITEGIC>MOL_PROPERTY
U+W
SciTegic.value.DoubleValue
245.701

@<SCITEGIC>MOL_PROPERTY
U
SciTegic.value.DoubleValue
284.687

@<SCITEGIC>MOL_PROPERTY
W
SciTegic.value.DoubleValue
-38.986

@<SCITEGIC>MOL_PROPERTY
W(PB)
SciTegic.value.DoubleValue
-44.988

@<SCITEGIC>MOL_PROPERTY
W(SA)
SciTegic.value.DoubleValue
6.002

@<SCITEGIC>MOL_PROPERTY
Valence
SciTegic.value.DoubleValue
153.358

@<SCITEGIC>MOL_PROPERTY
Coulomb
SciTegic.value.DoubleValue
153.256

@<SCITEGIC>MOL_PROPERTY
VdW
SciTegic.value.DoubleValue
-21.927

@<SCITEGIC>MOL_PROPERTY
VdW6
SciTegic.value.DoubleValue
-168.785

@<SCITEGIC>MOL_PROPERTY
VdW12
SciTegic.value.DoubleValue
146.858

@<SCITEGIC>MOL_PROPERTY
Bond
SciTegic.value.DoubleValue
4.574

@<SCITEGIC>MOL_PROPERTY
Angle
SciTegic.value.DoubleValue
12.538

@<SCITEGIC>MOL_PROPERTY
Pdih
SciTegic.value.DoubleValue
136.246

@<SCITEGIC>MOL_PROPERTY
Idih
SciTegic.value.DoubleValue
0.000

@<SCITEGIC>MOL_PROPERTY
Tether
SciTegic.value.DoubleValue
0.000

@<TRIPOS>MOLECULE
CD_guest-s16_fast_vm2_rndm.mol2 : feprocess host+ligand conformer 18
         139         145           2
SMALL
USER_CHARGES
 
@<TRIPOS>ATOM
       1    C1      16.080874   15.007161   21.751762 C.3        1 MOL1         0.2972
       2    H1      15.013659   14.828641   21.933665 H          1 MOL1         0.0751
       3    O1      16.397279   16.412172   21.712260 O.3        1 MOL1        -0.3740
       4    C2      16.930351   14.365553   22.873917 C.3        1 MOL1         0.1003
       5    H2      16.768870   13.280348   22.835901 H          1 MOL1         0.0783
       6    O2      16.531791   14.860607   24.162432 O.3        1 MOL1        -0.5519
       7    H3      16.228936   15.794978   24.037649 H          1 MOL1         0.3769
       8    C3      18.432936   14.636410   22.630926 C.3        1 MOL1         0.1053
       9    H4      18.602108   15.712764   22.747887 H          1 MOL1         0.0783
      10    O3      19.207067   13.922648   23.599724 O.3        1 MOL1        -0.5519
      11    H5      18.756773   14.093911   24.457111 H          1 MOL1         0.3769
      12    C4      18.869280   14.236244   21.198508 C.3        1 MOL1         0.1018
      13    H6      19.003348   13.146749   21.167800 H          1 MOL1         0.0783
      14    C5      17.861058   14.687340   20.099760 C.3        1 MOL1         0.1043
      15    H7      17.979311   15.769692   19.959584 H          1 MOL1         0.0783
      16    O4      16.493919   14.415362   20.503450 O.3        1 MOL1        -0.3740
      17    C6      18.106471   14.023594   18.723563 C.3        1 MOL1         0.0138
      18    H8      19.027258   14.441110   18.294154 H          1 MOL1         0.0794
      19    H9      17.281352   14.295335   18.051640 H          1 MOL1         0.0794
      20    O5      18.219152   12.598453   18.822563 O.3        1 MOL1        -0.5486
      21    H10     18.291340   12.240963   17.910594 H          1 MOL1         0.3769
      22    C7      14.834733   20.231468   21.492329 C.3        1 MOL1         0.2972
      23    H11     14.191683   21.118626   21.424263 H          1 MOL1         0.0751
      24    O6      16.230891   20.584707   21.443127 O.3        1 MOL1        -0.3740
      25    C8      14.573271   19.499051   22.830388 C.3        1 MOL1         0.1003
      26    H12     13.519161   19.192699   22.842299 H          1 MOL1         0.0783
      27    O7      14.827723   20.376715   23.938995 O.3        1 MOL1        -0.5519
      28    H13     15.390235   21.113548   23.595766 H          1 MOL1         0.3769
      29    C9      15.446001   18.227729   22.935598 C.3        1 MOL1         0.1053
      30    H14     16.493771   18.545194   23.007691 H          1 MOL1         0.0783
      31    O8      15.086890   17.492749   24.109201 O.3        1 MOL1        -0.5519
      32    H15     15.014416   18.170164   24.818602 H          1 MOL1         0.3769
      33    C10     15.293674   17.333087   21.680726 C.3        1 MOL1         0.1018
      34    H16     14.321112   16.826146   21.722848 H          1 MOL1         0.0783
      35    C11     15.412499   18.139578   20.358098 C.3        1 MOL1         0.1043
      36    H17     16.457299   18.453530   20.256224 H          1 MOL1         0.0783
      37    O9      14.566650   19.317460   20.406694 O.3        1 MOL1        -0.3740
      38    C12     15.064201   17.327533   19.086165 C.3        1 MOL1         0.0138
      39    H18     15.895040   16.644134   18.866919 H          1 MOL1         0.0794
      40    H19     14.987340   18.022652   18.239443 H          1 MOL1         0.0794
      41    O10     13.849395   16.581255   19.219950 O.3        1 MOL1        -0.5486
      42    H20     14.074905   15.731808   19.656435 H          1 MOL1         0.3769
      43    C13     18.694719   23.765284   20.308223 C.3        1 MOL1         0.2972
      44    H21     19.091904   24.677751   19.847060 H          1 MOL1         0.0751
      45    O11     19.739933   22.990478   20.930447 O.3        1 MOL1        -0.3740
      46    C14     17.597241   24.099730   21.356839 C.3        1 MOL1         0.1003
      47    H22     16.790041   24.616731   20.821695 H          1 MOL1         0.0783
      48    O12     18.089224   24.964433   22.391172 O.3        1 MOL1        -0.5519
      49    H23     18.810382   24.475820   22.863006 H          1 MOL1         0.3769
      50    C15     17.007171   22.801014   21.960140 C.3        1 MOL1         0.1053
      51    H24     17.798693   22.292324   22.527820 H          1 MOL1         0.0783
      52    O13     15.914228   23.120249   22.827967 O.3        1 MOL1        -0.5519
      53    H25     16.222706   23.886928   23.360641 H          1 MOL1         0.3769
      54    C16     16.526734   21.853444   20.833955 C.3        1 MOL1         0.1018
      55    H26     15.642166   22.296862   20.357696 H          1 MOL1         0.0783
      56    C17     17.622001   21.634330   19.755007 C.3        1 MOL1         0.1043
      57    H27     18.454992   21.086933   20.213300 H          1 MOL1         0.0783
      58    O14     18.088616   22.928640   19.297609 O.3        1 MOL1        -0.3740
      59    C18     17.165156   20.809525   18.523402 C.3        1 MOL1         0.0138
      60    H28     17.351177   19.747956   18.726768 H          1 MOL1         0.0794
      61    H29     17.797912   21.080990   17.667879 H          1 MOL1         0.0794
      62    O15     15.784163   21.000586   18.192014 O.3        1 MOL1        -0.5486
      63    H30     15.251836   20.526132   18.872640 H          1 MOL1         0.3769
      64    C19     23.617844   22.887800   22.249587 C.3        1 MOL1         0.2972
      65    H31     24.647394   23.052187   22.591960 H          1 MOL1         0.0751
      66    O16     23.356938   21.497565   21.967635 O.3        1 MOL1        -0.3740
      67    C20     22.609356   23.367797   23.321149 C.3        1 MOL1         0.1003
      68    H32     22.739461   24.451603   23.436993 H          1 MOL1         0.0783
      69    O17     22.847932   22.728706   24.583859 O.3        1 MOL1        -0.5519
      70    H33     23.076071   21.785313   24.391992 H          1 MOL1         0.3769
      71    C21     21.161299   23.108420   22.848523 C.3        1 MOL1         0.1053
      72    H34     21.020708   22.024434   22.794350 H          1 MOL1         0.0783
      73    O18     20.247347   23.663134   23.798872 O.3        1 MOL1        -0.5519
      74    H35     20.578165   23.348440   24.670325 H          1 MOL1         0.3769
      75    C22     20.893962   23.691619   21.436941 C.3        1 MOL1         0.1018
      76    H36     20.716352   24.770287   21.531762 H          1 MOL1         0.0783
      77    C23     22.055252   23.419375   20.434783 C.3        1 MOL1         0.1043
      78    H37     21.992490   22.366286   20.130054 H          1 MOL1         0.0783
      79    O19     23.346490   23.649259   21.054469 O.3        1 MOL1        -0.3740
      80    C24     21.977212   24.269675   19.143374 C.3        1 MOL1         0.0138
      81    H38     21.085226   23.971750   18.575952 H          1 MOL1         0.0794
      82    H39     22.849041   24.030212   18.520173 H          1 MOL1         0.0794
      83    O20     21.944290   25.678266   19.410566 O.3        1 MOL1        -0.5486
      84    H40     21.095632   25.892480   19.849475 H          1 MOL1         0.3769
      85    C25     24.971774   17.708409   21.704883 C.3        1 MOL1         0.2972
      86    H41     25.616717   16.823176   21.630428 H          1 MOL1         0.0751
      87    O21     23.578802   17.356089   21.606224 O.3        1 MOL1        -0.3740
      88    C26     25.202733   18.406619   23.065389 C.3        1 MOL1         0.1003
      89    H42     26.254725   18.717826   23.104747 H          1 MOL1         0.0783
      90    O22     24.935744   17.495422   24.143394 O.3        1 MOL1        -0.5519
      91    H43     24.321884   16.808765   23.786485 H          1 MOL1         0.3769
      92    C27     24.324251   19.672322   23.190102 C.3        1 MOL1         0.1053
      93    H44     23.276479   19.350052   23.237832 H          1 MOL1         0.0783
      94    O23     24.669788   20.368721   24.390277 O.3        1 MOL1        -0.5519
      95    H45     24.670507   19.678682   25.090279 H          1 MOL1         0.3769
      96    C28     24.488933   20.605527   21.963154 C.3        1 MOL1         0.1018
      97    H46     25.443139   21.142953   22.039997 H          1 MOL1         0.0783
      98    C29     24.436288   19.837109   20.613937 C.3        1 MOL1         0.1043
      99    H47     23.394262   19.541077   20.445099 H          1 MOL1         0.0783
     100    O24     25.269536   18.648845   20.653262 O.3        1 MOL1        -0.3740
     101    C30     24.875653   20.700067   19.407336 C.3        1 MOL1         0.0138
     102    H48     24.142361   21.505496   19.269121 H          1 MOL1         0.0794
     103    H49     24.854350   20.077787   18.502598 H          1 MOL1         0.0794
     104    O25     26.180831   21.261070   19.595495 O.3        1 MOL1        -0.5486
     105    H50     26.402933   21.776997   18.790229 H          1 MOL1         0.3769
     106    C31     21.158474   14.201177   20.308987 C.3        1 MOL1         0.2972
     107    H51     20.777327   13.301248   19.809241 H          1 MOL1         0.0751
     108    O26     20.100695   14.941056   20.948484 O.3        1 MOL1        -0.3740
     109    C32     22.222913   13.839110   21.380527 C.3        1 MOL1         0.1003
     110    H52     23.044000   13.327576   20.861660 H          1 MOL1         0.0783
     111    O27     21.687416   12.960601   22.382388 O.3        1 MOL1        -0.5519
     112    H53     20.876637   13.393079   22.753283 H          1 MOL1         0.3769
     113    C33     22.799164   15.120534   22.033663 C.3        1 MOL1         0.1053
     114    H54     21.995420   15.611933   22.599583 H          1 MOL1         0.0783
     115    O28     23.871450   14.772147   22.915605 O.3        1 MOL1        -0.5519
     116    H55     23.544671   13.995949   23.422983 H          1 MOL1         0.3769
     117    C34     23.303109   16.105537   20.950509 C.3        1 MOL1         0.1018
     118    H56     24.199979   15.680999   20.480154 H          1 MOL1         0.0783
     119    C35     22.231620   16.356329   19.855608 C.3        1 MOL1         0.1043
     120    H57     21.386488   16.882352   20.314848 H          1 MOL1         0.0783
     121    O29     21.782466   15.077403   19.343183 O.3        1 MOL1        -0.3740
     122    C36     22.709705   17.226448   18.663984 C.3        1 MOL1         0.0138
     123    H58     22.510078   18.278790   18.899715 H          1 MOL1         0.0794
     124    H59     22.098792   16.980157   17.785310 H          1 MOL1         0.0794
     125    O30     24.099442   17.057259   18.357943 O.3        1 MOL1        -0.5486
     126    H60     24.612212   17.508172   19.069264 H          1 MOL1         0.3769
     127    C1      19.246817   18.441817   21.772811 C.3        1 MOL1        -0.1693
     128    H1      18.297386   18.937528   21.546947 H          1 MOL1         0.0829
     129    H2      19.360248   17.584445   21.101845 H          1 MOL1         0.0829
     130    C2      19.494571   18.164974   23.292313 C.3        1 MOL1        -0.1768
     131    H3      20.272951   17.420394   23.501628 H          1 MOL1         0.0829
     132    H4      18.610685   17.929678   23.894388 H          1 MOL1         0.0829
     133    C3      19.983087   19.641612   23.349552 C.3        1 MOL1         0.1211
     134    H5      19.171805   20.377577   23.433357 H          1 MOL1         0.0786
     135    C4      20.470388   19.407634   21.886853 C.3        1 MOL1        -0.1768
     136    H6      21.448219   18.921665   21.810409 H          1 MOL1         0.0829
     137    H7      20.462640   20.284934   21.232858 H          1 MOL1         0.0829
     138    O1      20.994305   19.905284   24.293990 O.3        1 MOL1        -0.5515
     139    H8      20.588476   19.842450   25.181268 H          1 MOL1         0.3773
@<TRIPOS>BOND
    1     1     2    1
    2     1     3    1
    3     1     4    1
    4     4     5    1
    5     4     6    1
    6     6     7    1
    7     4     8    1
    8     8     9    1
    9     8    10    1
   10    10    11    1
   11     8    12    1
   12    12    13    1
   13    12    14    1
   14    14    15    1
   15     1    16    1
   16    14    16    1
   17    14    17    1
   18    17    18    1
   19    17    19    1
   20    17    20    1
   21    20    21    1
   22    22    23    1
   23    22    24    1
   24    22    25    1
   25    25    26    1
   26    25    27    1
   27    27    28    1
   28    25    29    1
   29    29    30    1
   30    29    31    1
   31    31    32    1
   32     3    33    1
   33    29    33    1
   34    33    34    1
   35    33    35    1
   36    35    36    1
   37    22    37    1
   38    35    37    1
   39    35    38    1
   40    38    39    1
   41    38    40    1
   42    38    41    1
   43    41    42    1
   44    43    44    1
   45    43    45    1
   46    43    46    1
   47    46    47    1
   48    46    48    1
   49    48    49    1
   50    46    50    1
   51    50    51    1
   52    50    52    1
   53    52    53    1
   54    24    54    1
   55    50    54    1
   56    54    55    1
   57    54    56    1
   58    56    57    1
   59    43    58    1
   60    56    58    1
   61    56    59    1
   62    59    60    1
   63    59    61    1
   64    59    62    1
   65    62    63    1
   66    64    65    1
   67    64    66    1
   68    64    67    1
   69    67    68    1
   70    67    69    1
   71    69    70    1
   72    67    71    1
   73    71    72    1
   74    71    73    1
   75    73    74    1
   76    45    75    1
   77    71    75    1
   78    75    76    1
   79    75    77    1
   80    77    78    1
   81    64    79    1
   82    77    79    1
   83    77    80    1
   84    80    81    1
   85    80    82    1
   86    80    83    1
   87    83    84    1
   88    85    86    1
   89    85    87    1
   90    85    88    1
   91    88    89    1
   92    88    90    1
   93    90    91    1
   94    88    92    1
   95    92    93    1
   96    92    94    1
   97    94    95    1
   98    66    96    1
   99    92    96    1
  100    96    97    1
  101    96    98    1
  102    98    99    1
  103    85   100    1
  104    98   100    1
  105    98   101    1
  106   101   102    1
  107   101   103    1
  108   101   104    1
  109   104   105    1
  110   106   107    1
  111    12   108    1
  112   106   108    1
  113   106   109    1
  114   109   110    1
  115   109   111    1
  116   111   112    1
  117   109   113    1
  118   113   114    1
  119   113   115    1
  120   115   116    1
  121    87   117    1
  122   113   117    1
  123   117   118    1
  124   117   119    1
  125   119   120    1
  126   106   121    1
  127   119   121    1
  128   119   122    1
  129   122   123    1
  130   122   124    1
  131   122   125    1
  132   125   126    1
  133   127   128    1
  134   127   129    1
  135   127   130    1
  136   130   131    1
  137   130   132    1
  138   130   133    1
  139   133   134    1
  140   127   135    1
  141   133   135    1
  142   135   136    1
  143   135   137    1
  144   133   138    1
  145   138   139    1
@<TRIPOS>SUBSTRUCTURE
       1 MOL1            1 RESIDUE      1      MOL     
       2 MOL1          139 RESIDUE      1      MOL     
@<SCITEGIC>MOL_PROPERTY
feprocess Rank
SciTegic.value.IntegerValue
18

@<SCITEGIC>MOL_PROPERTY
Conf_Id
SciTegic.value.IntegerValue
87

@<SCITEGIC>MOL_PROPERTY
Probability
SciTegic.value.DoubleValue
1.06

@<SCITEGIC>MOL_PROPERTY
G
SciTegic.value.DoubleValue
546.760

@<SCITEGIC>MOL_PROPERTY
E
SciTegic.value.DoubleValue
370.259

@<SCITEGIC>MOL_PROPERTY
-TS
SciTegic.value.DoubleValue
176.500

@<SCITEGIC>MOL_PROPERTY
U+W
SciTegic.value.DoubleValue
247.748

@<SCITEGIC>MOL_PROPERTY
U
SciTegic.value.DoubleValue
288.518

@<SCITEGIC>MOL_PROPERTY
W
SciTegic.value.DoubleValue
-40.770

@<SCITEGIC>MOL_PROPERTY
W(PB)
SciTegic.value.DoubleValue
-46.771

@<SCITEGIC>MOL_PROPERTY
W(SA)
SciTegic.value.DoubleValue
6.001

@<SCITEGIC>MOL_PROPERTY
Valence
SciTegic.value.DoubleValue
153.639

@<SCITEGIC>MOL_PROPERTY
Coulomb
SciTegic.value.DoubleValue
157.466

@<SCITEGIC>MOL_PROPERTY
VdW
SciTegic.value.DoubleValue
-22.586

@<SCITEGIC>MOL_PROPERTY
VdW6
SciTegic.value.DoubleValue
-166.984

@<SCITEGIC>MOL_PROPERTY
VdW12
SciTegic.value.DoubleValue
144.397

@<SCITEGIC>MOL_PROPERTY
Bond
SciTegic.value.DoubleValue
4.450

@<SCITEGIC>MOL_PROPERTY
Angle
SciTegic.value.DoubleValue
12.175

@<SCITEGIC>MOL_PROPERTY
Pdih
SciTegic.value.DoubleValue
137.014

@<SCITEGIC>MOL_PROPERTY
Idih
SciTegic.value.DoubleValue
0.000

@<SCITEGIC>MOL_PROPERTY
Tether
SciTegic.value.DoubleValue
0.000

@<TRIPOS>MOLECULE
CD_guest-s16_fast_vm2_rndm.mol2 : feprocess host+ligand conformer 19
         139         145           2
SMALL
USER_CHARGES
 
@<TRIPOS>ATOM
       1    C1      16.178937   15.063643   21.289046 C.3        1 MOL1         0.2972
       2    H1      15.093182   14.968126   21.159446 H          1 MOL1         0.0751
       3    O1      16.566509   16.432288   21.514747 O.3        1 MOL1        -0.3740
       4    C2      16.633316   14.222540   22.505177 C.3        1 MOL1         0.1003
       5    H2      16.372528   13.175633   22.302483 H          1 MOL1         0.0783
       6    O2      15.957276   14.661783   23.694400 O.3        1 MOL1        -0.5519
       7    H3      15.690251   15.601499   23.539501 H          1 MOL1         0.3769
       8    C3      18.165310   14.308645   22.689867 C.3        1 MOL1         0.1053
       9    H4      18.407566   15.336830   22.987818 H          1 MOL1         0.0783
      10    O3      18.579377   13.403311   23.719410 O.3        1 MOL1        -0.5519
      11    H5      17.949468   13.554467   24.458829 H          1 MOL1         0.3769
      12    C4      18.925483   13.991882   21.377454 C.3        1 MOL1         0.1018
      13    H6      18.912571   12.905362   21.220840 H          1 MOL1         0.0783
      14    C5      18.322924   14.726300   20.143406 C.3        1 MOL1         0.1043
      15    H7      18.584935   15.788495   20.230678 H          1 MOL1         0.0783
      16    O4      16.877607   14.586703   20.122169 O.3        1 MOL1        -0.3740
      17    C6      18.856690   14.224934   18.779984 C.3        1 MOL1         0.0138
      18    H8      19.879897   14.593823   18.642218 H          1 MOL1         0.0794
      19    H9      18.247807   14.670121   17.981604 H          1 MOL1         0.0794
      20    O5      18.832875   12.795256   18.682843 O.3        1 MOL1        -0.5486
      21    H10     19.144455   12.552990   17.783789 H          1 MOL1         0.3769
      22    C7      15.009178   20.298358   20.884310 C.3        1 MOL1         0.2972
      23    H11     14.350824   21.103272   20.532801 H          1 MOL1         0.0751
      24    O6      16.186493   20.820876   21.525930 O.3        1 MOL1        -0.3740
      25    C8      14.274633   19.413438   21.926622 C.3        1 MOL1         0.1003
      26    H12     13.352128   19.048288   21.456919 H          1 MOL1         0.0783
      27    O7      13.941769   20.183480   23.094102 O.3        1 MOL1        -0.5519
      28    H13     14.731548   20.740265   23.307858 H          1 MOL1         0.3769
      29    C9      15.128942   18.182340   22.324162 C.3        1 MOL1         0.1053
      30    H14     16.005653   18.537363   22.883691 H          1 MOL1         0.0783
      31    O8      14.351844   17.302284   23.144046 O.3        1 MOL1        -0.5519
      32    H15     13.917367   17.885242   23.805833 H          1 MOL1         0.3769
      33    C10     15.631323   17.431651   21.067899 C.3        1 MOL1         0.1018
      34    H16     14.768904   16.985548   20.554989 H          1 MOL1         0.0783
      35    C11     16.349034   18.403410   20.093721 C.3        1 MOL1         0.1043
      36    H17     17.234338   18.816504   20.594077 H          1 MOL1         0.0783
      37    O9      15.426590   19.472210   19.774376 O.3        1 MOL1        -0.3740
      38    C12     16.830438   17.765682   18.765559 C.3        1 MOL1         0.0138
      39    H18     17.834381   17.352655   18.921126 H          1 MOL1         0.0794
      40    H19     16.932019   18.560695   18.015137 H          1 MOL1         0.0794
      41    O10     15.954406   16.740651   18.280731 O.3        1 MOL1        -0.5486
      42    H20     16.117925   15.939645   18.831437 H          1 MOL1         0.3769
      43    C13     18.470789   24.259754   21.722972 C.3        1 MOL1         0.2972
      44    H21     18.860009   25.285606   21.755009 H          1 MOL1         0.0751
      45    O11     19.537616   23.292423   21.745582 O.3        1 MOL1        -0.3740
      46    C14     17.566516   24.006150   22.953291 C.3        1 MOL1         0.1003
      47    H22     16.731677   24.717543   22.907001 H          1 MOL1         0.0783
      48    O12     18.309711   24.217872   24.163542 O.3        1 MOL1        -0.5519
      49    H23     19.245242   23.981179   23.959682 H          1 MOL1         0.3769
      50    C15     16.982073   22.574972   22.922704 C.3        1 MOL1         0.1053
      51    H24     17.809763   21.871707   23.077681 H          1 MOL1         0.0783
      52    O13     16.021942   22.421650   23.974066 O.3        1 MOL1        -0.5519
      53    H25     16.459627   22.786287   24.775068 H          1 MOL1         0.3769
      54    C16     16.315088   22.256130   21.562288 C.3        1 MOL1         0.1018
      55    H26     15.337594   22.755699   21.535268 H          1 MOL1         0.0783
      56    C17     17.178366   22.697422   20.344200 C.3        1 MOL1         0.1043
      57    H27     18.021681   21.999765   20.271785 H          1 MOL1         0.0783
      58    O14     17.686626   24.044055   20.533004 O.3        1 MOL1        -0.3740
      59    C18     16.429166   22.664815   18.989687 C.3        1 MOL1         0.0138
      60    H28     16.298345   21.619567   18.682368 H          1 MOL1         0.0794
      61    H29     17.058976   23.146048   18.229431 H          1 MOL1         0.0794
      62    O15     15.155136   23.316743   19.061833 O.3        1 MOL1        -0.5486
      63    H30     14.770401   23.319563   18.158335 H          1 MOL1         0.3769
      64    C19     23.512638   22.675679   20.737661 C.3        1 MOL1         0.2972
      65    H31     24.540100   22.734185   20.355903 H          1 MOL1         0.0751
      66    O16     23.202083   21.354651   21.230360 O.3        1 MOL1        -0.3740
      67    C20     23.278107   23.706513   21.872628 C.3        1 MOL1         0.1003
      68    H32     23.432421   24.704454   21.441965 H          1 MOL1         0.0783
      69    O17     24.199819   23.519872   22.957548 O.3        1 MOL1        -0.5519
      70    H33     24.096068   22.587220   23.275567 H          1 MOL1         0.3769
      71    C21     21.817803   23.627487   22.379858 C.3        1 MOL1         0.1053
      72    H34     21.683936   22.655473   22.872940 H          1 MOL1         0.0783
      73    O18     21.578148   24.678560   23.321329 O.3        1 MOL1        -0.5519
      74    H35     22.360100   24.674976   23.916938 H          1 MOL1         0.3769
      75    C22     20.803219   23.727946   21.210519 C.3        1 MOL1         0.1018
      76    H36     20.772185   24.772675   20.874629 H          1 MOL1         0.0783
      77    C23     21.177459   22.809219   20.007779 C.3        1 MOL1         0.1043
      78    H37     21.011606   21.766498   20.302251 H          1 MOL1         0.0783
      79    O19     22.577630   22.987803   19.683204 O.3        1 MOL1        -0.3740
      80    C24     20.354869   23.041404   18.712655 C.3        1 MOL1         0.0138
      81    H38     19.495103   22.361611   18.715113 H          1 MOL1         0.0794
      82    H39     20.973910   22.755267   17.851792 H          1 MOL1         0.0794
      83    O20     19.901181   24.390864   18.557583 O.3        1 MOL1        -0.5486
      84    H40     19.130997   24.505962   19.162204 H          1 MOL1         0.3769
      85    C25     24.859676   17.653932   22.031118 C.3        1 MOL1         0.2972
      86    H41     25.515170   16.799807   22.246187 H          1 MOL1         0.0751
      87    O21     23.504170   17.231366   21.793949 O.3        1 MOL1        -0.3740
      88    C26     24.858998   18.629239   23.231879 C.3        1 MOL1         0.1003
      89    H42     25.889685   18.979931   23.373082 H          1 MOL1         0.0783
      90    O22     24.416316   17.958205   24.423048 O.3        1 MOL1        -0.5519
      91    H43     24.084803   17.070889   24.143151 H          1 MOL1         0.3769
      92    C27     23.966765   19.858351   22.943009 C.3        1 MOL1         0.1053
      93    H44     22.926413   19.516631   22.898618 H          1 MOL1         0.0783
      94    O23     24.111717   20.804780   24.005847 O.3        1 MOL1        -0.5519
      95    H45     24.041451   20.269904   24.828378 H          1 MOL1         0.3769
      96    C28     24.321238   20.517840   21.585911 C.3        1 MOL1         0.1018
      97    H46     25.246272   21.096708   21.710182 H          1 MOL1         0.0783
      98    C29     24.489123   19.480933   20.438013 C.3        1 MOL1         0.1043
      99    H47     23.490768   19.107858   20.181051 H          1 MOL1         0.0783
     100    O24     25.315056   18.365716   20.861741 O.3        1 MOL1        -0.3740
     101    C30     25.098705   20.077244   19.146739 C.3        1 MOL1         0.0138
     102    H48     24.354356   20.738001   18.682040 H          1 MOL1         0.0794
     103    H49     25.293916   19.259484   18.439907 H          1 MOL1         0.0794
     104    O25     26.302627   20.809158   19.407601 O.3        1 MOL1        -0.5486
     105    H50     26.677109   21.085208   18.542631 H          1 MOL1         0.3769
     106    C31     21.360708   13.719988   21.085294 C.3        1 MOL1         0.2972
     107    H51     21.047377   12.715211   20.773961 H          1 MOL1         0.0751
     108    O26     20.257793   14.488977   21.601314 O.3        1 MOL1        -0.3740
     109    C32     22.401013   13.637853   22.232789 C.3        1 MOL1         0.1003
     110    H52     23.262035   13.065587   21.863778 H          1 MOL1         0.0783
     111    O27     21.832255   12.970611   23.371448 O.3        1 MOL1        -0.5519
     112    H53     20.902809   13.297197   23.455782 H          1 MOL1         0.3769
     113    C33     22.894141   15.052623   22.634915 C.3        1 MOL1         0.1053
     114    H54     22.055735   15.586199   23.100706 H          1 MOL1         0.0783
     115    O28     23.968469   14.943518   23.574497 O.3        1 MOL1        -0.5519
     116    H55     23.675915   14.262201   24.220529 H          1 MOL1         0.3769
     117    C34     23.348629   15.859186   21.392595 C.3        1 MOL1         0.1018
     118    H56     24.289452   15.433175   21.019393 H          1 MOL1         0.0783
     119    C35     22.294763   15.819449   20.254484 C.3        1 MOL1         0.1043
     120    H57     21.394137   16.346682   20.589323 H          1 MOL1         0.0783
     121    O29     21.962557   14.437700   19.983832 O.3        1 MOL1        -0.3740
     122    C36     22.745834   16.501310   18.936758 C.3        1 MOL1         0.0138
     123    H58     22.453317   17.557944   18.978971 H          1 MOL1         0.0794
     124    H59     22.189852   16.053962   18.102226 H          1 MOL1         0.0794
     125    O30     24.156509   16.402370   18.699961 O.3        1 MOL1        -0.5486
     126    H60     24.608801   16.948157   19.384030 H          1 MOL1         0.3769
     127    C1      19.914173   18.999902   23.452920 C.3        1 MOL1        -0.1693
     128    H1      20.891692   19.019525   23.951034 H          1 MOL1         0.0829
     129    H2      19.130739   19.098721   24.213367 H          1 MOL1         0.0829
     130    C2      19.728063   17.839537   22.426377 C.3        1 MOL1        -0.1768
     131    H3      20.254922   16.911150   22.658008 H          1 MOL1         0.0829
     132    H4      18.686020   17.607145   22.193103 H          1 MOL1         0.0829
     133    C3      20.420421   18.780864   21.397743 C.3        1 MOL1         0.1211
     134    H5      21.514176   18.756020   21.439873 H          1 MOL1         0.0786
     135    C4      19.787092   19.942855   22.214469 C.3        1 MOL1        -0.1768
     136    H6      20.371580   20.862946   22.270323 H          1 MOL1         0.0829
     137    H7      18.759880   20.184938   21.924591 H          1 MOL1         0.0829
     138    O1      19.973724   18.656772   20.066406 O.3        1 MOL1        -0.5515
     139    H8      20.337912   19.412333   19.567069 H          1 MOL1         0.3773
@<TRIPOS>BOND
    1     1     2    1
    2     1     3    1
    3     1     4    1
    4     4     5    1
    5     4     6    1
    6     6     7    1
    7     4     8    1
    8     8     9    1
    9     8    10    1
   10    10    11    1
   11     8    12    1
   12    12    13    1
   13    12    14    1
   14    14    15    1
   15     1    16    1
   16    14    16    1
   17    14    17    1
   18    17    18    1
   19    17    19    1
   20    17    20    1
   21    20    21    1
   22    22    23    1
   23    22    24    1
   24    22    25    1
   25    25    26    1
   26    25    27    1
   27    27    28    1
   28    25    29    1
   29    29    30    1
   30    29    31    1
   31    31    32    1
   32     3    33    1
   33    29    33    1
   34    33    34    1
   35    33    35    1
   36    35    36    1
   37    22    37    1
   38    35    37    1
   39    35    38    1
   40    38    39    1
   41    38    40    1
   42    38    41    1
   43    41    42    1
   44    43    44    1
   45    43    45    1
   46    43    46    1
   47    46    47    1
   48    46    48    1
   49    48    49    1
   50    46    50    1
   51    50    51    1
   52    50    52    1
   53    52    53    1
   54    24    54    1
   55    50    54    1
   56    54    55    1
   57    54    56    1
   58    56    57    1
   59    43    58    1
   60    56    58    1
   61    56    59    1
   62    59    60    1
   63    59    61    1
   64    59    62    1
   65    62    63    1
   66    64    65    1
   67    64    66    1
   68    64    67    1
   69    67    68    1
   70    67    69    1
   71    69    70    1
   72    67    71    1
   73    71    72    1
   74    71    73    1
   75    73    74    1
   76    45    75    1
   77    71    75    1
   78    75    76    1
   79    75    77    1
   80    77    78    1
   81    64    79    1
   82    77    79    1
   83    77    80    1
   84    80    81    1
   85    80    82    1
   86    80    83    1
   87    83    84    1
   88    85    86    1
   89    85    87    1
   90    85    88    1
   91    88    89    1
   92    88    90    1
   93    90    91    1
   94    88    92    1
   95    92    93    1
   96    92    94    1
   97    94    95    1
   98    66    96    1
   99    92    96    1
  100    96    97    1
  101    96    98    1
  102    98    99    1
  103    85   100    1
  104    98   100    1
  105    98   101    1
  106   101   102    1
  107   101   103    1
  108   101   104    1
  109   104   105    1
  110   106   107    1
  111    12   108    1
  112   106   108    1
  113   106   109    1
  114   109   110    1
  115   109   111    1
  116   111   112    1
  117   109   113    1
  118   113   114    1
  119   113   115    1
  120   115   116    1
  121    87   117    1
  122   113   117    1
  123   117   118    1
  124   117   119    1
  125   119   120    1
  126   106   121    1
  127   119   121    1
  128   119   122    1
  129   122   123    1
  130   122   124    1
  131   122   125    1
  132   125   126    1
  133   127   128    1
  134   127   129    1
  135   127   130    1
  136   130   131    1
  137   130   132    1
  138   130   133    1
  139   133   134    1
  140   127   135    1
  141   133   135    1
  142   135   136    1
  143   135   137    1
  144   133   138    1
  145   138   139    1
@<TRIPOS>SUBSTRUCTURE
       1 MOL1            1 RESIDUE      1      MOL     
       2 MOL1          139 RESIDUE      1      MOL     
@<SCITEGIC>MOL_PROPERTY
feprocess Rank
SciTegic.value.IntegerValue
19

@<SCITEGIC>MOL_PROPERTY
Conf_Id
SciTegic.value.IntegerValue
171

@<SCITEGIC>MOL_PROPERTY
Probability
SciTegic.value.DoubleValue
1.05

@<SCITEGIC>MOL_PROPERTY
G
SciTegic.value.DoubleValue
546.768

@<SCITEGIC>MOL_PROPERTY
E
SciTegic.value.DoubleValue
369.131

@<SCITEGIC>MOL_PROPERTY
-TS
SciTegic.value.DoubleValue
177.637

@<SCITEGIC>MOL_PROPERTY
U+W
SciTegic.value.DoubleValue
246.619

@<SCITEGIC>MOL_PROPERTY
U
SciTegic.value.DoubleValue
283.167

@<SCITEGIC>MOL_PROPERTY
W
SciTegic.value.DoubleValue
-36.548

@<SCITEGIC>MOL_PROPERTY
W(PB)
SciTegic.value.DoubleValue
-42.447

@<SCITEGIC>MOL_PROPERTY
W(SA)
SciTegic.value.DoubleValue
5.900

@<SCITEGIC>MOL_PROPERTY
Valence
SciTegic.value.DoubleValue
152.654

@<SCITEGIC>MOL_PROPERTY
Coulomb
SciTegic.value.DoubleValue
154.090

@<SCITEGIC>MOL_PROPERTY
VdW
SciTegic.value.DoubleValue
-23.577

@<SCITEGIC>MOL_PROPERTY
VdW6
SciTegic.value.DoubleValue
-169.265

@<SCITEGIC>MOL_PROPERTY
VdW12
SciTegic.value.DoubleValue
145.688

@<SCITEGIC>MOL_PROPERTY
Bond
SciTegic.value.DoubleValue
4.478

@<SCITEGIC>MOL_PROPERTY
Angle
SciTegic.value.DoubleValue
11.325

@<SCITEGIC>MOL_PROPERTY
Pdih
SciTegic.value.DoubleValue
136.852

@<SCITEGIC>MOL_PROPERTY
Idih
SciTegic.value.DoubleValue
0.000

@<SCITEGIC>MOL_PROPERTY
Tether
SciTegic.value.DoubleValue
0.000

@<TRIPOS>MOLECULE
CD_guest-s16_fast_vm2_rndm.mol2 : feprocess host+ligand conformer 20
         139         145           2
SMALL
USER_CHARGES
 
@<TRIPOS>ATOM
       1    C1      16.197703   15.179885   21.552069 C.3        1 MOL1         0.2972
       2    H1      15.106621   15.091780   21.636279 H          1 MOL1         0.0751
       3    O1      16.611211   16.553261   21.410575 O.3        1 MOL1        -0.3740
       4    C2      16.869133   14.601703   22.818111 C.3        1 MOL1         0.1003
       5    H2      16.608690   13.536926   22.877076 H          1 MOL1         0.0783
       6    O2      16.390942   15.276995   23.993668 O.3        1 MOL1        -0.5519
       7    H3      15.859690   16.051721   23.685740 H          1 MOL1         0.3769
       8    C3      18.405974   14.718616   22.713536 C.3        1 MOL1         0.1053
       9    H4      18.658856   15.784061   22.740358 H          1 MOL1         0.0783
      10    O3      19.008271   14.055251   23.828016 O.3        1 MOL1        -0.5519
      11    H5      18.564374   14.441775   24.615956 H          1 MOL1         0.3769
      12    C4      18.949704   14.138472   21.383094 C.3        1 MOL1         0.1018
      13    H6      18.997185   13.044562   21.465213 H          1 MOL1         0.0783
      14    C5      18.105480   14.557920   20.144592 C.3        1 MOL1         0.1043
      15    H7      18.341318   15.606986   19.927454 H          1 MOL1         0.0783
      16    O4      16.682990   14.445251   20.409309 O.3        1 MOL1        -0.3740
      17    C6      18.436800   13.744925   18.870696 C.3        1 MOL1         0.0138
      18    H8      19.441980   14.027120   18.529066 H          1 MOL1         0.0794
      19    H9      17.731114   14.029460   18.078592 H          1 MOL1         0.0794
      20    O5      18.382204   12.332170   19.104027 O.3        1 MOL1        -0.5486
      21    H10     18.533715   11.882062   18.244294 H          1 MOL1         0.3769
      22    C7      14.931654   20.310488   20.716904 C.3        1 MOL1         0.2972
      23    H11     14.290869   21.135557   20.379766 H          1 MOL1         0.0751
      24    O6      16.163001   20.789172   21.288886 O.3        1 MOL1        -0.3740
      25    C8      14.218435   19.456529   21.799158 C.3        1 MOL1         0.1003
      26    H12     13.297726   19.060552   21.351355 H          1 MOL1         0.0783
      27    O7      13.881299   20.253371   22.946442 O.3        1 MOL1        -0.5519
      28    H13     14.692874   20.759547   23.205053 H          1 MOL1         0.3769
      29    C9      15.102108   18.255148   22.221081 C.3        1 MOL1         0.1053
      30    H14     15.983893   18.646979   22.744497 H          1 MOL1         0.0783
      31    O8      14.365441   17.397596   23.098921 O.3        1 MOL1        -0.5519
      32    H15     13.911486   18.003531   23.726897 H          1 MOL1         0.3769
      33    C10     15.584152   17.462266   20.980482 C.3        1 MOL1         0.1018
      34    H16     14.725554   16.934301   20.544641 H          1 MOL1         0.0783
      35    C11     16.204098   18.386117   19.899651 C.3        1 MOL1         0.1043
      36    H17     17.129447   18.819335   20.298920 H          1 MOL1         0.0783
      37    O9      15.264035   19.447506   19.604740 O.3        1 MOL1        -0.3740
      38    C12     16.583892   17.662987   18.580578 C.3        1 MOL1         0.0138
      39    H18     17.618865   17.308817   18.667430 H          1 MOL1         0.0794
      40    H19     16.567773   18.395064   17.762215 H          1 MOL1         0.0794
      41    O10     15.725795   16.557314   18.270022 O.3        1 MOL1        -0.5486
      42    H20     15.914669   15.846630   18.925722 H          1 MOL1         0.3769
      43    C13     18.477906   24.127839   21.860395 C.3        1 MOL1         0.2972
      44    H21     18.906337   25.128066   22.006368 H          1 MOL1         0.0751
      45    O11     19.508089   23.127911   21.730867 O.3        1 MOL1        -0.3740
      46    C14     17.592467   23.755983   23.073486 C.3        1 MOL1         0.1003
      47    H22     16.774347   24.485954   23.128111 H          1 MOL1         0.0783
      48    O12     18.363414   23.808173   24.283705 O.3        1 MOL1        -0.5519
      49    H23     19.300050   23.644583   24.023184 H          1 MOL1         0.3769
      50    C15     16.975269   22.351679   22.887746 C.3        1 MOL1         0.1053
      51    H24     17.792254   21.622353   22.933247 H          1 MOL1         0.0783
      52    O13     16.042540   22.089075   23.941214 O.3        1 MOL1        -0.5519
      53    H25     16.508035   22.357358   24.764591 H          1 MOL1         0.3769
      54    C16     16.271106   22.206324   21.516412 C.3        1 MOL1         0.1018
      55    H26     15.288926   22.694186   21.573414 H          1 MOL1         0.0783
      56    C17     17.101157   22.789324   20.337447 C.3        1 MOL1         0.1043
      57    H27     17.922132   22.089050   20.147132 H          1 MOL1         0.0783
      58    O14     17.657230   24.086969   20.674777 O.3        1 MOL1        -0.3740
      59    C18     16.301790   22.928198   19.019622 C.3        1 MOL1         0.0138
      60    H28     16.111983   21.923994   18.617473 H          1 MOL1         0.0794
      61    H29     16.922797   23.459337   18.285728 H          1 MOL1         0.0794
      62    O15     15.060625   23.617233   19.213358 O.3        1 MOL1        -0.5486
      63    H30     14.645081   23.736654   18.331506 H          1 MOL1         0.3769
      64    C19     23.524698   22.652789   20.783557 C.3        1 MOL1         0.2972
      65    H31     24.551968   22.753279   20.410101 H          1 MOL1         0.0751
      66    O16     23.262679   21.321399   21.269327 O.3        1 MOL1        -0.3740
      67    C20     23.238107   23.667430   21.922663 C.3        1 MOL1         0.1003
      68    H32     23.371121   24.673093   21.503099 H          1 MOL1         0.0783
      69    O17     24.145157   23.495327   23.022715 O.3        1 MOL1        -0.5519
      70    H33     24.059539   22.557547   23.331081 H          1 MOL1         0.3769
      71    C21     21.772782   23.542942   22.408452 C.3        1 MOL1         0.1053
      72    H34     21.665875   22.570799   22.903978 H          1 MOL1         0.0783
      73    O18     21.482599   24.588782   23.341103 O.3        1 MOL1        -0.5519
      74    H35     22.255607   24.616214   23.947685 H          1 MOL1         0.3769
      75    C22     20.772303   23.597220   21.225053 C.3        1 MOL1         0.1018
      76    H36     20.714650   24.633688   20.867417 H          1 MOL1         0.0783
      77    C23     21.191225   22.673490   20.045434 C.3        1 MOL1         0.1043
      78    H37     21.070387   21.629962   20.364605 H          1 MOL1         0.0783
      79    O19     22.582251   22.919897   19.722986 O.3        1 MOL1        -0.3740
      80    C24     20.357861   22.845597   18.747520 C.3        1 MOL1         0.0138
      81    H38     19.535181   22.121198   18.760380 H          1 MOL1         0.0794
      82    H39     20.990601   22.579705   17.890163 H          1 MOL1         0.0794
      83    O20     19.835052   24.168722   18.574557 O.3        1 MOL1        -0.5486
      84    H40     19.121822   24.292555   19.243903 H          1 MOL1         0.3769
      85    C25     24.928507   17.649752   22.039198 C.3        1 MOL1         0.2972
      86    H41     25.561933   16.780541   22.259474 H          1 MOL1         0.0751
      87    O21     23.577224   17.258907   21.729793 O.3        1 MOL1        -0.3740
      88    C26     24.888313   18.593878   23.263020 C.3        1 MOL1         0.1003
      89    H42     25.912306   18.943201   23.448945 H          1 MOL1         0.0783
      90    O22     24.402383   17.896472   24.421866 O.3        1 MOL1        -0.5519
      91    H43     24.026760   17.038153   24.105728 H          1 MOL1         0.3769
      92    C27     24.003273   19.824535   22.966174 C.3        1 MOL1         0.1053
      93    H44     22.971117   19.472448   22.862241 H          1 MOL1         0.0783
      94    O23     24.088781   20.749088   24.055002 O.3        1 MOL1        -0.5519
      95    H45     23.995146   20.194621   24.861963 H          1 MOL1         0.3769
      96    C28     24.399944   20.520155   21.640974 C.3        1 MOL1         0.1018
      97    H46     25.297941   21.127881   21.815053 H          1 MOL1         0.0783
      98    C29     24.639778   19.515238   20.476444 C.3        1 MOL1         0.1043
      99    H47     23.658334   19.145757   20.154579 H          1 MOL1         0.0783
     100    O24     25.445289   18.389577   20.913720 O.3        1 MOL1        -0.3740
     101    C30     25.315510   20.148923   19.237126 C.3        1 MOL1         0.0138
     102    H48     24.592110   20.814582   18.747116 H          1 MOL1         0.0794
     103    H49     25.558419   19.350482   18.523027 H          1 MOL1         0.0794
     104    O25     26.495514   20.884128   19.583547 O.3        1 MOL1        -0.5486
     105    H50     26.916131   21.183950   18.748142 H          1 MOL1         0.3769
     106    C31     21.341100   13.861373   20.842164 C.3        1 MOL1         0.2972
     107    H51     20.987335   12.879012   20.503473 H          1 MOL1         0.0751
     108    O26     20.249047   14.731284   21.198450 O.3        1 MOL1        -0.3740
     109    C32     22.279353   13.732803   22.072738 C.3        1 MOL1         0.1003
     110    H52     23.156212   13.154221   21.754178 H          1 MOL1         0.0783
     111    O27     21.640410   13.044667   23.158117 O.3        1 MOL1        -0.5519
     112    H53     20.777701   13.500432   23.332244 H          1 MOL1         0.3769
     113    C33     22.770944   15.131869   22.523042 C.3        1 MOL1         0.1053
     114    H54     21.904071   15.706850   22.878195 H          1 MOL1         0.0783
     115    O28     23.726217   14.995087   23.580500 O.3        1 MOL1        -0.5519
     116    H55     23.343120   14.319640   24.184123 H          1 MOL1         0.3769
     117    C34     23.406382   15.888879   21.330419 C.3        1 MOL1         0.1018
     118    H56     24.363531   15.410714   21.083618 H          1 MOL1         0.0783
     119    C35     22.499079   15.875991   20.069795 C.3        1 MOL1         0.1043
     120    H57     21.607846   16.479469   20.277702 H          1 MOL1         0.0783
     121    O29     22.094546   14.511818   19.792154 O.3        1 MOL1        -0.3740
     122    C36     23.155546   16.479131   18.799796 C.3        1 MOL1         0.0138
     123    H58     22.925270   17.551456   18.767881 H          1 MOL1         0.0794
     124    H59     22.685717   16.028870   17.915207 H          1 MOL1         0.0794
     125    O30     24.576230   16.295201   18.750008 O.3        1 MOL1        -0.5486
     126    H60     24.971659   16.885943   19.432402 H          1 MOL1         0.3769
     127    C1      19.237414   19.498086   22.170443 C.3        1 MOL1        -0.1693
     128    H1      19.208457   20.240085   21.364720 H          1 MOL1         0.0829
     129    H2      18.210965   19.187858   22.395481 H          1 MOL1         0.0829
     130    C2      20.091477   19.879777   23.423878 C.3        1 MOL1        -0.1768
     131    H3      20.952341   20.518538   23.205737 H          1 MOL1         0.0829
     132    H4      19.544368   20.309889   24.269989 H          1 MOL1         0.0829
     133    C3      20.437709   18.363232   23.534486 C.3        1 MOL1         0.1211
     134    H5      21.454626   18.142593   23.882011 H          1 MOL1         0.0786
     135    C4      20.249872   18.323481   21.985121 C.3        1 MOL1        -0.1768
     136    H6      21.149286   18.590667   21.418272 H          1 MOL1         0.0829
     137    H7      19.837420   17.397596   21.573407 H          1 MOL1         0.0829
     138    O1      19.507872   17.604951   24.274877 O.3        1 MOL1        -0.5515
     139    H8      18.623189   17.843082   23.937658 H          1 MOL1         0.3773
@<TRIPOS>BOND
    1     1     2    1
    2     1     3    1
    3     1     4    1
    4     4     5    1
    5     4     6    1
    6     6     7    1
    7     4     8    1
    8     8     9    1
    9     8    10    1
   10    10    11    1
   11     8    12    1
   12    12    13    1
   13    12    14    1
   14    14    15    1
   15     1    16    1
   16    14    16    1
   17    14    17    1
   18    17    18    1
   19    17    19    1
   20    17    20    1
   21    20    21    1
   22    22    23    1
   23    22    24    1
   24    22    25    1
   25    25    26    1
   26    25    27    1
   27    27    28    1
   28    25    29    1
   29    29    30    1
   30    29    31    1
   31    31    32    1
   32     3    33    1
   33    29    33    1
   34    33    34    1
   35    33    35    1
   36    35    36    1
   37    22    37    1
   38    35    37    1
   39    35    38    1
   40    38    39    1
   41    38    40    1
   42    38    41    1
   43    41    42    1
   44    43    44    1
   45    43    45    1
   46    43    46    1
   47    46    47    1
   48    46    48    1
   49    48    49    1
   50    46    50    1
   51    50    51    1
   52    50    52    1
   53    52    53    1
   54    24    54    1
   55    50    54    1
   56    54    55    1
   57    54    56    1
   58    56    57    1
   59    43    58    1
   60    56    58    1
   61    56    59    1
   62    59    60    1
   63    59    61    1
   64    59    62    1
   65    62    63    1
   66    64    65    1
   67    64    66    1
   68    64    67    1
   69    67    68    1
   70    67    69    1
   71    69    70    1
   72    67    71    1
   73    71    72    1
   74    71    73    1
   75    73    74    1
   76    45    75    1
   77    71    75    1
   78    75    76    1
   79    75    77    1
   80    77    78    1
   81    64    79    1
   82    77    79    1
   83    77    80    1
   84    80    81    1
   85    80    82    1
   86    80    83    1
   87    83    84    1
   88    85    86    1
   89    85    87    1
   90    85    88    1
   91    88    89    1
   92    88    90    1
   93    90    91    1
   94    88    92    1
   95    92    93    1
   96    92    94    1
   97    94    95    1
   98    66    96    1
   99    92    96    1
  100    96    97    1
  101    96    98    1
  102    98    99    1
  103    85   100    1
  104    98   100    1
  105    98   101    1
  106   101   102    1
  107   101   103    1
  108   101   104    1
  109   104   105    1
  110   106   107    1
  111    12   108    1
  112   106   108    1
  113   106   109    1
  114   109   110    1
  115   109   111    1
  116   111   112    1
  117   109   113    1
  118   113   114    1
  119   113   115    1
  120   115   116    1
  121    87   117    1
  122   113   117    1
  123   117   118    1
  124   117   119    1
  125   119   120    1
  126   106   121    1
  127   119   121    1
  128   119   122    1
  129   122   123    1
  130   122   124    1
  131   122   125    1
  132   125   126    1
  133   127   128    1
  134   127   129    1
  135   127   130    1
  136   130   131    1
  137   130   132    1
  138   130   133    1
  139   133   134    1
  140   127   135    1
  141   133   135    1
  142   135   136    1
  143   135   137    1
  144   133   138    1
  145   138   139    1
@<TRIPOS>SUBSTRUCTURE
       1 MOL1            1 RESIDUE      1      MOL     
       2 MOL1          139 RESIDUE      1      MOL     
@<SCITEGIC>MOL_PROPERTY
feprocess Rank
SciTegic.value.IntegerValue
20

@<SCITEGIC>MOL_PROPERTY
Conf_Id
SciTegic.value.IntegerValue
585

@<SCITEGIC>MOL_PROPERTY
Probability
SciTegic.value.DoubleValue
0.96

@<SCITEGIC>MOL_PROPERTY
G
SciTegic.value.DoubleValue
546.820

@<SCITEGIC>MOL_PROPERTY
E
SciTegic.value.DoubleValue
370.038

@<SCITEGIC>MOL_PROPERTY
-TS
SciTegic.value.DoubleValue
176.782

@<SCITEGIC>MOL_PROPERTY
U+W
SciTegic.value.DoubleValue
247.526

@<SCITEGIC>MOL_PROPERTY
U
SciTegic.value.DoubleValue
284.559

@<SCITEGIC>MOL_PROPERTY
W
SciTegic.value.DoubleValue
-37.032

@<SCITEGIC>MOL_PROPERTY
W(PB)
SciTegic.value.DoubleValue
-42.985

@<SCITEGIC>MOL_PROPERTY
W(SA)
SciTegic.value.DoubleValue
5.952

@<SCITEGIC>MOL_PROPERTY
Valence
SciTegic.value.DoubleValue
153.866

@<SCITEGIC>MOL_PROPERTY
Coulomb
SciTegic.value.DoubleValue
151.746

@<SCITEGIC>MOL_PROPERTY
VdW
SciTegic.value.DoubleValue
-21.053

@<SCITEGIC>MOL_PROPERTY
VdW6
SciTegic.value.DoubleValue
-167.190

@<SCITEGIC>MOL_PROPERTY
VdW12
SciTegic.value.DoubleValue
146.137

@<SCITEGIC>MOL_PROPERTY
Bond
SciTegic.value.DoubleValue
4.506

@<SCITEGIC>MOL_PROPERTY
Angle
SciTegic.value.DoubleValue
11.557

@<SCITEGIC>MOL_PROPERTY
Pdih
SciTegic.value.DoubleValue
137.802

@<SCITEGIC>MOL_PROPERTY
Idih
SciTegic.value.DoubleValue
0.000

@<SCITEGIC>MOL_PROPERTY
Tether
SciTegic.value.DoubleValue
0.000

@<TRIPOS>MOLECULE
CD_guest-s16_fast_vm2_rndm.mol2 : feprocess host+ligand conformer 21
         139         145           2
SMALL
USER_CHARGES
 
@<TRIPOS>ATOM
       1    C1      16.453531   15.568192   20.283567 C.3        1 MOL1         0.2972
       2    H1      15.487642   15.449813   19.775805 H          1 MOL1         0.0751
       3    O1      16.545042   16.837060   20.957889 O.3        1 MOL1        -0.3740
       4    C2      16.675648   14.441638   21.330229 C.3        1 MOL1         0.1003
       5    H2      16.638852   13.486183   20.790997 H          1 MOL1         0.0783
       6    O2      15.651339   14.448114   22.337165 O.3        1 MOL1        -0.5519
       7    H3      15.615997   15.362290   22.718097 H          1 MOL1         0.3769
       8    C3      18.075617   14.565408   21.982397 C.3        1 MOL1         0.1053
       9    H4      18.102462   15.494155   22.569343 H          1 MOL1         0.0783
      10    O3      18.311061   13.442110   22.838457 O.3        1 MOL1        -0.5519
      11    H5      17.473607   13.322574   23.339881 H          1 MOL1         0.3769
      12    C4      19.173944   14.647225   20.894567 C.3        1 MOL1         0.1018
      13    H6      19.239512   13.678284   20.381983 H          1 MOL1         0.0783
      14    C5      18.857783   15.748449   19.848154 C.3        1 MOL1         0.1043
      15    H7      18.885957   16.723758   20.349876 H          1 MOL1         0.0783
      16    O4      17.529701   15.507808   19.320012 O.3        1 MOL1        -0.3740
      17    C6      19.856001   15.824201   18.664013 C.3        1 MOL1         0.0138
      18    H8      20.656560   16.524789   18.932364 H          1 MOL1         0.0794
      19    H9      19.338570   16.257632   17.797960 H          1 MOL1         0.0794
      20    O5      20.419755   14.552868   18.314892 O.3        1 MOL1        -0.5486
      21    H10     21.016398   14.285841   19.052421 H          1 MOL1         0.3769
      22    C7      14.516717   20.315804   21.758339 C.3        1 MOL1         0.2972
      23    H11     13.807695   21.133800   21.937394 H          1 MOL1         0.0751
      24    O6      15.880807   20.775753   21.731109 O.3        1 MOL1        -0.3740
      25    C8      14.404213   19.251495   22.875781 C.3        1 MOL1         0.1003
      26    H12     13.393198   18.826090   22.830371 H          1 MOL1         0.0783
      27    O7      14.612792   19.843417   24.168223 O.3        1 MOL1        -0.5519
      28    H13     15.249693   20.591999   24.049623 H          1 MOL1         0.3769
      29    C9      15.417309   18.108176   22.634233 C.3        1 MOL1         0.1053
      30    H14     16.426063   18.519288   22.760234 H          1 MOL1         0.0783
      31    O8      15.200198   17.069288   23.594267 O.3        1 MOL1        -0.5519
      32    H15     15.108635   17.536509   24.454717 H          1 MOL1         0.3769
      33    C10     15.308582   17.535277   21.198531 C.3        1 MOL1         0.1018
      34    H16     14.440904   16.863345   21.158243 H          1 MOL1         0.0783
      35    C11     15.187906   18.637824   20.104859 C.3        1 MOL1         0.1043
      36    H17     16.176881   19.098874   19.981811 H          1 MOL1         0.0783
      37    O9      14.238692   19.660219   20.504532 O.3        1 MOL1        -0.3740
      38    C12     14.765427   18.095068   18.718513 C.3        1 MOL1         0.0138
      39    H18     15.606522   17.530766   18.293476 H          1 MOL1         0.0794
      40    H19     14.575619   18.947171   18.052165 H          1 MOL1         0.0794
      41    O10     13.606330   17.255881   18.795935 O.3        1 MOL1        -0.5486
      42    H20     13.348615   17.018066   17.878484 H          1 MOL1         0.3769
      43    C13     18.409755   24.012012   21.569106 C.3        1 MOL1         0.2972
      44    H21     18.884722   25.000185   21.512827 H          1 MOL1         0.0751
      45    O11     19.384956   22.951450   21.527741 O.3        1 MOL1        -0.3740
      46    C14     17.615956   23.888567   22.891445 C.3        1 MOL1         0.1003
      47    H22     16.836486   24.661560   22.885496 H          1 MOL1         0.0783
      48    O12     18.482579   24.093370   24.018878 O.3        1 MOL1        -0.5519
      49    H23     19.409356   23.993972   23.688653 H          1 MOL1         0.3769
      50    C15     16.926458   22.508992   22.983647 C.3        1 MOL1         0.1053
      51    H24     17.711883   21.749415   23.077706 H          1 MOL1         0.0783
      52    O13     16.083177   22.466958   24.138375 O.3        1 MOL1        -0.5519
      53    H25     16.624562   22.859238   24.859790 H          1 MOL1         0.3769
      54    C16     16.100539   22.196094   21.711201 C.3        1 MOL1         0.1018
      55    H26     15.164771   22.768432   21.744966 H          1 MOL1         0.0783
      56    C17     16.869488   22.511639   20.397399 C.3        1 MOL1         0.1043
      57    H27     17.648988   21.750665   20.281006 H          1 MOL1         0.0783
      58    O14     17.494829   23.818847   20.469357 O.3        1 MOL1        -0.3740
      59    C18     15.992618   22.449061   19.122735 C.3        1 MOL1         0.0138
      60    H28     15.756881   21.398288   18.908287 H          1 MOL1         0.0794
      61    H29     16.582419   22.826102   18.276555 H          1 MOL1         0.0794
      62    O15     14.780161   23.201134   19.248157 O.3        1 MOL1        -0.5486
      63    H30     14.126905   22.633272   19.709639 H          1 MOL1         0.3769
      64    C19     23.418548   22.410519   20.530068 C.3        1 MOL1         0.2972
      65    H31     24.417488   22.539376   20.093767 H          1 MOL1         0.0751
      66    O16     23.286378   21.136982   21.188937 O.3        1 MOL1        -0.3740
      67    C20     23.120291   23.520797   21.574129 C.3        1 MOL1         0.1003
      68    H32     23.194979   24.485048   21.054827 H          1 MOL1         0.0783
      69    O17     24.070385   23.494034   22.651475 O.3        1 MOL1        -0.5519
      70    H33     24.110505   22.563411   22.989486 H          1 MOL1         0.3769
      71    C21     21.677806   23.386076   22.123792 C.3        1 MOL1         0.1053
      72    H34     21.613910   22.454226   22.702437 H          1 MOL1         0.0783
      73    O18     21.375971   24.502464   22.967664 O.3        1 MOL1        -0.5519
      74    H35     22.173187   24.620159   23.531357 H          1 MOL1         0.3769
      75    C22     20.658277   23.306838   20.961812 C.3        1 MOL1         0.1018
      76    H36     20.623862   24.281419   20.456814 H          1 MOL1         0.0783
      77    C23     21.053846   22.221526   19.924977 C.3        1 MOL1         0.1043
      78    H37     21.003747   21.237250   20.406791 H          1 MOL1         0.0783
      79    O19     22.412360   22.478922   19.494052 O.3        1 MOL1        -0.3740
      80    C24     20.138834   22.156527   18.674612 C.3        1 MOL1         0.0138
      81    H38     19.317072   21.460233   18.882548 H          1 MOL1         0.0794
      82    H39     20.713369   21.725368   17.843988 H          1 MOL1         0.0794
      83    O20     19.605486   23.431555   18.294228 O.3        1 MOL1        -0.5486
      84    H40     18.934791   23.683067   18.971271 H          1 MOL1         0.3769
      85    C25     25.244268   17.603249   21.932573 C.3        1 MOL1         0.2972
      86    H41     25.945340   16.775751   22.098146 H          1 MOL1         0.0751
      87    O21     23.874896   17.153245   21.878028 O.3        1 MOL1        -0.3740
      88    C26     25.363638   18.643842   23.072354 C.3        1 MOL1         0.1003
      89    H42     26.379097   19.059613   23.036705 H          1 MOL1         0.0783
      90    O22     25.148358   18.034216   24.355055 O.3        1 MOL1        -0.5519
      91    H43     24.476074   17.316790   24.236587 H          1 MOL1         0.3769
      92    C27     24.365481   19.802348   22.847562 C.3        1 MOL1         0.1053
      93    H44     23.351784   19.398524   22.957684 H          1 MOL1         0.0783
      94    O23     24.582618   20.819462   23.830437 O.3        1 MOL1        -0.5519
      95    H45     24.673146   20.333884   24.680901 H          1 MOL1         0.3769
      96    C28     24.502842   20.405385   21.426614 C.3        1 MOL1         0.1018
      97    H46     25.384431   21.060124   21.416090 H          1 MOL1         0.0783
      98    C29     24.620615   19.328968   20.306455 C.3        1 MOL1         0.1043
      99    H47     23.627331   18.889158   20.151235 H          1 MOL1         0.0783
     100    O24     25.544331   18.280441   20.695906 O.3        1 MOL1        -0.3740
     101    C30     25.078320   19.898619   18.942313 C.3        1 MOL1         0.0138
     102    H48     24.255568   20.489118   18.517034 H          1 MOL1         0.0794
     103    H49     25.263833   19.060074   18.257830 H          1 MOL1         0.0794
     104    O25     26.251533   20.713211   19.061327 O.3        1 MOL1        -0.5486
     105    H50     26.528144   20.971247   18.154949 H          1 MOL1         0.3769
     106    C31     21.353564   13.915097   21.695480 C.3        1 MOL1         0.2972
     107    H51     20.862895   12.934023   21.650525 H          1 MOL1         0.0751
     108    O26     20.406626   14.990747   21.548028 O.3        1 MOL1        -0.3740
     109    C32     22.059892   14.088886   23.059815 C.3        1 MOL1         0.1003
     110    H52     22.835706   13.316035   23.136760 H          1 MOL1         0.0783
     111    O27     21.119718   13.932559   24.134726 O.3        1 MOL1        -0.5519
     112    H53     20.218943   14.027646   23.739091 H          1 MOL1         0.3769
     113    C33     22.743580   15.472237   23.136206 C.3        1 MOL1         0.1053
     114    H54     21.955419   16.233853   23.138459 H          1 MOL1         0.0783
     115    O28     23.502414   15.567680   24.344422 O.3        1 MOL1        -0.5519
     116    H55     22.911707   15.202852   25.041299 H          1 MOL1         0.3769
     117    C34     23.656651   15.729675   21.911948 C.3        1 MOL1         0.1018
     118    H56     24.587261   15.163133   22.043948 H          1 MOL1         0.0783
     119    C35     22.989142   15.341310   20.561599 C.3        1 MOL1         0.1043
     120    H57     22.226369   16.094547   20.341373 H          1 MOL1         0.0783
     121    O29     22.345967   14.044145   20.654886 O.3        1 MOL1        -0.3740
     122    C36     23.962997   15.330777   19.358297 C.3        1 MOL1         0.0138
     123    H58     24.243668   16.366232   19.122716 H          1 MOL1         0.0794
     124    H59     23.429479   14.934748   18.483932 H          1 MOL1         0.0794
     125    O30     25.139460   14.552260   19.607518 O.3        1 MOL1        -0.5486
     126    H60     25.775666   15.120998   20.090391 H          1 MOL1         0.3769
     127    C1      19.126857   19.397581   23.628378 C.3        1 MOL1        -0.1693
     128    H1      19.453793   20.342178   24.082863 H          1 MOL1         0.0829
     129    H2      18.202846   19.074343   24.120833 H          1 MOL1         0.0829
     130    C2      20.246725   18.315153   23.492108 C.3        1 MOL1        -0.1768
     131    H3      19.876217   17.294823   23.332116 H          1 MOL1         0.0829
     132    H4      21.002867   18.299180   24.284464 H          1 MOL1         0.0829
     133    C3      20.639611   19.075571   22.190587 C.3        1 MOL1         0.1211
     134    H5      21.255472   19.966271   22.367723 H          1 MOL1         0.0786
     135    C4      19.121082   19.389795   22.063520 C.3        1 MOL1        -0.1768
     136    H6      18.526006   18.591270   21.608395 H          1 MOL1         0.0829
     137    H7      18.873326   20.333287   21.573224 H          1 MOL1         0.0829
     138    O1      21.188219   18.286773   21.161767 O.3        1 MOL1        -0.5515
     139    H8      22.060793   17.969590   21.478265 H          1 MOL1         0.3773
@<TRIPOS>BOND
    1     1     2    1
    2     1     3    1
    3     1     4    1
    4     4     5    1
    5     4     6    1
    6     6     7    1
    7     4     8    1
    8     8     9    1
    9     8    10    1
   10    10    11    1
   11     8    12    1
   12    12    13    1
   13    12    14    1
   14    14    15    1
   15     1    16    1
   16    14    16    1
   17    14    17    1
   18    17    18    1
   19    17    19    1
   20    17    20    1
   21    20    21    1
   22    22    23    1
   23    22    24    1
   24    22    25    1
   25    25    26    1
   26    25    27    1
   27    27    28    1
   28    25    29    1
   29    29    30    1
   30    29    31    1
   31    31    32    1
   32     3    33    1
   33    29    33    1
   34    33    34    1
   35    33    35    1
   36    35    36    1
   37    22    37    1
   38    35    37    1
   39    35    38    1
   40    38    39    1
   41    38    40    1
   42    38    41    1
   43    41    42    1
   44    43    44    1
   45    43    45    1
   46    43    46    1
   47    46    47    1
   48    46    48    1
   49    48    49    1
   50    46    50    1
   51    50    51    1
   52    50    52    1
   53    52    53    1
   54    24    54    1
   55    50    54    1
   56    54    55    1
   57    54    56    1
   58    56    57    1
   59    43    58    1
   60    56    58    1
   61    56    59    1
   62    59    60    1
   63    59    61    1
   64    59    62    1
   65    62    63    1
   66    64    65    1
   67    64    66    1
   68    64    67    1
   69    67    68    1
   70    67    69    1
   71    69    70    1
   72    67    71    1
   73    71    72    1
   74    71    73    1
   75    73    74    1
   76    45    75    1
   77    71    75    1
   78    75    76    1
   79    75    77    1
   80    77    78    1
   81    64    79    1
   82    77    79    1
   83    77    80    1
   84    80    81    1
   85    80    82    1
   86    80    83    1
   87    83    84    1
   88    85    86    1
   89    85    87    1
   90    85    88    1
   91    88    89    1
   92    88    90    1
   93    90    91    1
   94    88    92    1
   95    92    93    1
   96    92    94    1
   97    94    95    1
   98    66    96    1
   99    92    96    1
  100    96    97    1
  101    96    98    1
  102    98    99    1
  103    85   100    1
  104    98   100    1
  105    98   101    1
  106   101   102    1
  107   101   103    1
  108   101   104    1
  109   104   105    1
  110   106   107    1
  111    12   108    1
  112   106   108    1
  113   106   109    1
  114   109   110    1
  115   109   111    1
  116   111   112    1
  117   109   113    1
  118   113   114    1
  119   113   115    1
  120   115   116    1
  121    87   117    1
  122   113   117    1
  123   117   118    1
  124   117   119    1
  125   119   120    1
  126   106   121    1
  127   119   121    1
  128   119   122    1
  129   122   123    1
  130   122   124    1
  131   122   125    1
  132   125   126    1
  133   127   128    1
  134   127   129    1
  135   127   130    1
  136   130   131    1
  137   130   132    1
  138   130   133    1
  139   133   134    1
  140   127   135    1
  141   133   135    1
  142   135   136    1
  143   135   137    1
  144   133   138    1
  145   138   139    1
@<TRIPOS>SUBSTRUCTURE
       1 MOL1            1 RESIDUE      1      MOL     
       2 MOL1          139 RESIDUE      1      MOL     
@<SCITEGIC>MOL_PROPERTY
feprocess Rank
SciTegic.value.IntegerValue
21

@<SCITEGIC>MOL_PROPERTY
Conf_Id
SciTegic.value.IntegerValue
607

@<SCITEGIC>MOL_PROPERTY
Probability
SciTegic.value.DoubleValue
0.96

@<SCITEGIC>MOL_PROPERTY
G
SciTegic.value.DoubleValue
546.822

@<SCITEGIC>MOL_PROPERTY
E
SciTegic.value.DoubleValue
369.433

@<SCITEGIC>MOL_PROPERTY
-TS
SciTegic.value.DoubleValue
177.389

@<SCITEGIC>MOL_PROPERTY
U+W
SciTegic.value.DoubleValue
246.922

@<SCITEGIC>MOL_PROPERTY
U
SciTegic.value.DoubleValue
283.901

@<SCITEGIC>MOL_PROPERTY
W
SciTegic.value.DoubleValue
-36.980

@<SCITEGIC>MOL_PROPERTY
W(PB)
SciTegic.value.DoubleValue
-42.939

@<SCITEGIC>MOL_PROPERTY
W(SA)
SciTegic.value.DoubleValue
5.959

@<SCITEGIC>MOL_PROPERTY
Valence
SciTegic.value.DoubleValue
154.102

@<SCITEGIC>MOL_PROPERTY
Coulomb
SciTegic.value.DoubleValue
152.807

@<SCITEGIC>MOL_PROPERTY
VdW
SciTegic.value.DoubleValue
-23.008

@<SCITEGIC>MOL_PROPERTY
VdW6
SciTegic.value.DoubleValue
-168.709

@<SCITEGIC>MOL_PROPERTY
VdW12
SciTegic.value.DoubleValue
145.701

@<SCITEGIC>MOL_PROPERTY
Bond
SciTegic.value.DoubleValue
4.451

@<SCITEGIC>MOL_PROPERTY
Angle
SciTegic.value.DoubleValue
11.697

@<SCITEGIC>MOL_PROPERTY
Pdih
SciTegic.value.DoubleValue
137.954

@<SCITEGIC>MOL_PROPERTY
Idih
SciTegic.value.DoubleValue
0.000

@<SCITEGIC>MOL_PROPERTY
Tether
SciTegic.value.DoubleValue
0.000

@<TRIPOS>MOLECULE
CD_guest-s16_fast_vm2_rndm.mol2 : feprocess host+ligand conformer 22
         139         145           2
SMALL
USER_CHARGES
 
@<TRIPOS>ATOM
       1    C1      16.166916   15.118892   20.737852 C.3        1 MOL1         0.2972
       2    H1      15.107444   14.987644   20.482659 H          1 MOL1         0.0751
       3    O1      16.451463   16.459658   21.184244 O.3        1 MOL1        -0.3740
       4    C2      16.592216   14.146067   21.865465 C.3        1 MOL1         0.1003
       5    H2      16.450753   13.125620   21.486083 H          1 MOL1         0.0783
       6    O2      15.785391   14.324683   23.040290 O.3        1 MOL1        -0.5519
       7    H3      15.747666   15.296739   23.230199 H          1 MOL1         0.3769
       8    C3      18.093270   14.323707   22.206892 C.3        1 MOL1         0.1053
       9    H4      18.227284   15.316769   22.658542 H          1 MOL1         0.0783
      10    O3      18.471411   13.308616   23.142744 O.3        1 MOL1        -0.5519
      11    H5      17.714675   13.250562   23.770027 H          1 MOL1         0.3769
      12    C4      18.978062   14.246451   20.931195 C.3        1 MOL1         0.1018
      13    H6      19.056502   13.199259   20.612733 H          1 MOL1         0.0783
      14    C5      18.408335   15.093329   19.757688 C.3        1 MOL1         0.1043
      15    H7      18.545038   16.154570   19.996704 H          1 MOL1         0.0783
      16    O4      16.994366   14.832578   19.590229 O.3        1 MOL1        -0.3740
      17    C6      19.125960   14.847742   18.407174 C.3        1 MOL1         0.0138
      18    H8      20.117730   15.317587   18.448675 H          1 MOL1         0.0794
      19    H9      18.560336   15.356845   17.615591 H          1 MOL1         0.0794
      20    O5      19.263974   13.456074   18.094962 O.3        1 MOL1        -0.5486
      21    H10     19.971938   13.093986   18.670127 H          1 MOL1         0.3769
      22    C7      14.842021   20.225898   21.663902 C.3        1 MOL1         0.2972
      23    H11     14.200984   21.110078   21.776314 H          1 MOL1         0.0751
      24    O6      16.232528   20.590794   21.569384 O.3        1 MOL1        -0.3740
      25    C8      14.665051   19.294893   22.886473 C.3        1 MOL1         0.1003
      26    H12     13.614032   18.979127   22.914779 H          1 MOL1         0.0783
      27    O7      14.985662   19.994961   24.099404 O.3        1 MOL1        -0.5519
      28    H13     15.494009   20.800141   23.835753 H          1 MOL1         0.3769
      29    C9      15.543449   18.031977   22.742165 C.3        1 MOL1         0.1053
      30    H14     16.590846   18.346987   22.801424 H          1 MOL1         0.0783
      31    O8      15.254173   17.125325   23.810622 O.3        1 MOL1        -0.5519
      32    H15     15.242407   17.685635   24.618722 H          1 MOL1         0.3769
      33    C10     15.323048   17.334102   21.377102 C.3        1 MOL1         0.1018
      34    H16     14.373087   16.784766   21.415883 H          1 MOL1         0.0783
      35    C11     15.319269   18.330751   20.183737 C.3        1 MOL1         0.1043
      36    H17     16.353837   18.659843   20.028832 H          1 MOL1         0.0783
      37    O9      14.492436   19.487937   20.474297 O.3        1 MOL1        -0.3740
      38    C12     14.833053   17.701979   18.856110 C.3        1 MOL1         0.0138
      39    H18     15.594893   16.992186   18.506487 H          1 MOL1         0.0794
      40    H19     14.754604   18.494192   18.099405 H          1 MOL1         0.0794
      41    O10     13.576340   17.030080   19.007411 O.3        1 MOL1        -0.5486
      42    H20     13.300917   16.710571   18.120542 H          1 MOL1         0.3769
      43    C13     18.566080   23.995717   20.862312 C.3        1 MOL1         0.2972
      44    H21     18.924387   24.977576   20.527005 H          1 MOL1         0.0751
      45    O11     19.631214   23.194719   21.400473 O.3        1 MOL1        -0.3740
      46    C14     17.487203   24.139214   21.969704 C.3        1 MOL1         0.1003
      47    H22     16.659341   24.723502   21.547600 H          1 MOL1         0.0783
      48    O12     18.013245   24.825672   23.117522 O.3        1 MOL1        -0.5519
      49    H23     18.864548   24.381935   23.362494 H          1 MOL1         0.3769
      50    C15     16.932949   22.751332   22.382907 C.3        1 MOL1         0.1053
      51    H24     17.739280   22.196494   22.879573 H          1 MOL1         0.0783
      52    O13     15.834608   22.918039   23.285865 O.3        1 MOL1        -0.5519
      53    H25     16.130652   23.603412   23.925776 H          1 MOL1         0.3769
      54    C16     16.484572   21.941545   21.141337 C.3        1 MOL1         0.1018
      55    H26     15.586387   22.411687   20.719335 H          1 MOL1         0.0783
      56    C17     17.587480   21.904037   20.051051 C.3        1 MOL1         0.1043
      57    H27     18.445355   21.344170   20.444284 H          1 MOL1         0.0783
      58    O14     17.986180   23.266415   19.756628 O.3        1 MOL1        -0.3740
      59    C18     17.167039   21.210088   18.729593 C.3        1 MOL1         0.0138
      60    H28     17.406586   20.142513   18.809548 H          1 MOL1         0.0794
      61    H29     17.783608   21.610101   17.913726 H          1 MOL1         0.0794
      62    O15     15.776177   21.370746   18.420577 O.3        1 MOL1        -0.5486
      63    H30     15.267359   20.837811   19.075231 H          1 MOL1         0.3769
      64    C19     23.642974   22.836494   21.928928 C.3        1 MOL1         0.2972
      65    H31     24.727114   22.923798   22.077402 H          1 MOL1         0.0751
      66    O16     23.242476   21.469604   21.696378 O.3        1 MOL1        -0.3740
      67    C20     22.901184   23.363205   23.179302 C.3        1 MOL1         0.1003
      68    H32     23.144789   24.428220   23.287095 H          1 MOL1         0.0783
      69    O17     23.323459   22.655444   24.356225 O.3        1 MOL1        -0.5519
      70    H33     23.764493   21.822871   24.054057 H          1 MOL1         0.3769
      71    C21     21.374085   23.235414   22.994168 C.3        1 MOL1         0.1053
      72    H34     21.131207   22.166744   22.992645 H          1 MOL1         0.0783
      73    O18     20.698886   23.871046   24.084373 O.3        1 MOL1        -0.5519
      74    H35     21.168219   23.556312   24.889033 H          1 MOL1         0.3769
      75    C22     20.890270   23.840141   21.652550 C.3        1 MOL1         0.1018
      76    H36     20.782256   24.925802   21.776492 H          1 MOL1         0.0783
      77    C23     21.815842   23.515584   20.440484 C.3        1 MOL1         0.1043
      78    H37     21.610393   22.484075   20.131417 H          1 MOL1         0.0783
      79    O19     23.218523   23.623806   20.798281 O.3        1 MOL1        -0.3740
      80    C24     21.555904   24.408963   19.204429 C.3        1 MOL1         0.0138
      81    H38     20.586216   24.130522   18.770118 H          1 MOL1         0.0794
      82    H39     22.323782   24.193972   18.449105 H          1 MOL1         0.0794
      83    O20     21.559196   25.803070   19.535411 O.3        1 MOL1        -0.5486
      84    H40     21.467493   26.308478   18.698227 H          1 MOL1         0.3769
      85    C25     24.921077   17.733499   20.856604 C.3        1 MOL1         0.2972
      86    H41     25.583484   16.918458   20.537867 H          1 MOL1         0.0751
      87    O21     23.586692   17.252211   21.125160 O.3        1 MOL1        -0.3740
      88    C26     25.479803   18.451402   22.118348 C.3        1 MOL1         0.1003
      89    H42     26.457147   18.868054   21.841993 H          1 MOL1         0.0783
      90    O22     25.660067   17.547870   23.218853 O.3        1 MOL1        -0.5519
      91    H43     24.766543   17.186722   23.447985 H          1 MOL1         0.3769
      92    C27     24.563327   19.630416   22.530436 C.3        1 MOL1         0.1053
      93    H44     23.602502   19.217734   22.864053 H          1 MOL1         0.0783
      94    O23     25.169887   20.364212   23.599129 O.3        1 MOL1        -0.5519
      95    H45     25.513142   19.681207   24.217882 H          1 MOL1         0.3769
      96    C28     24.305500   20.570034   21.326639 C.3        1 MOL1         0.1018
      97    H46     25.236808   21.106716   21.102037 H          1 MOL1         0.0783
      98    C29     23.865504   19.790206   20.056957 C.3        1 MOL1         0.1043
      99    H47     22.880047   19.346542   20.237854 H          1 MOL1         0.0783
     100    O24     24.819260   18.727010   19.809201 O.3        1 MOL1        -0.3740
     101    C30     23.728009   20.663342   18.782280 C.3        1 MOL1         0.0138
     102    H48     22.700126   21.045683   18.735758 H          1 MOL1         0.0794
     103    H49     23.867111   20.021590   17.902145 H          1 MOL1         0.0794
     104    O25     24.647816   21.761891   18.742373 O.3        1 MOL1        -0.5486
     105    H50     24.321510   22.437531   19.381032 H          1 MOL1         0.3769
     106    C31     21.261814   13.911533   21.783473 C.3        1 MOL1         0.2972
     107    H51     20.840045   12.921303   21.998530 H          1 MOL1         0.0751
     108    O26     20.273338   14.804431   21.229139 O.3        1 MOL1        -0.3740
     109    C32     21.852861   14.542089   23.071100 C.3        1 MOL1         0.1003
     110    H52     22.666412   13.888034   23.411102 H          1 MOL1         0.0783
     111    O27     20.871327   14.655480   24.114121 O.3        1 MOL1        -0.5519
     112    H53     20.072950   14.153068   23.820474 H          1 MOL1         0.3769
     113    C33     22.447491   15.932899   22.762808 C.3        1 MOL1         0.1053
     114    H54     21.614787   16.583896   22.476142 H          1 MOL1         0.0783
     115    O28     23.080239   16.446840   23.938514 O.3        1 MOL1        -0.5519
     116    H55     22.443425   16.252015   24.662935 H          1 MOL1         0.3769
     117    C34     23.447677   15.890688   21.580714 C.3        1 MOL1         0.1018
     118    H56     24.398847   15.474277   21.937777 H          1 MOL1         0.0783
     119    C35     22.915140   15.058404   20.377336 C.3        1 MOL1         0.1043
     120    H57     22.133942   15.647881   19.879653 H          1 MOL1         0.0783
     121    O29     22.340873   13.803983   20.830518 O.3        1 MOL1        -0.3740
     122    C36     23.996048   14.747648   19.314494 C.3        1 MOL1         0.0138
     123    H58     24.241749   15.678323   18.785369 H          1 MOL1         0.0794
     124    H59     23.571263   14.055216   18.575372 H          1 MOL1         0.0794
     125    O30     25.182307   14.191123   19.894966 O.3        1 MOL1        -0.5486
     126    H60     25.785488   13.943124   19.160442 H          1 MOL1         0.3769
     127    C1      19.402737   18.312155   23.637560 C.3        1 MOL1        -0.1693
     128    H1      20.096947   17.577683   24.065470 H          1 MOL1         0.0829
     129    H2      18.444341   18.228880   24.162136 H          1 MOL1         0.0829
     130    C2      19.340219   18.322421   22.074407 C.3        1 MOL1        -0.1768
     131    H3      19.501805   17.361083   21.582856 H          1 MOL1         0.0829
     132    H4      18.452929   18.798264   21.642041 H          1 MOL1         0.0829
     133    C3      20.582656   19.253440   22.148488 C.3        1 MOL1         0.1211
     134    H5      21.532738   18.719065   22.259560 H          1 MOL1         0.0786
     135    C4      19.983262   19.756670   23.494997 C.3        1 MOL1        -0.1768
     136    H6      19.227643   20.543227   23.389883 H          1 MOL1         0.0829
     137    H7      20.709024   20.061504   24.256730 H          1 MOL1         0.0829
     138    O1      20.673231   20.211374   21.123529 O.3        1 MOL1        -0.5515
     139    H8      21.417475   20.804271   21.360518 H          1 MOL1         0.3773
@<TRIPOS>BOND
    1     1     2    1
    2     1     3    1
    3     1     4    1
    4     4     5    1
    5     4     6    1
    6     6     7    1
    7     4     8    1
    8     8     9    1
    9     8    10    1
   10    10    11    1
   11     8    12    1
   12    12    13    1
   13    12    14    1
   14    14    15    1
   15     1    16    1
   16    14    16    1
   17    14    17    1
   18    17    18    1
   19    17    19    1
   20    17    20    1
   21    20    21    1
   22    22    23    1
   23    22    24    1
   24    22    25    1
   25    25    26    1
   26    25    27    1
   27    27    28    1
   28    25    29    1
   29    29    30    1
   30    29    31    1
   31    31    32    1
   32     3    33    1
   33    29    33    1
   34    33    34    1
   35    33    35    1
   36    35    36    1
   37    22    37    1
   38    35    37    1
   39    35    38    1
   40    38    39    1
   41    38    40    1
   42    38    41    1
   43    41    42    1
   44    43    44    1
   45    43    45    1
   46    43    46    1
   47    46    47    1
   48    46    48    1
   49    48    49    1
   50    46    50    1
   51    50    51    1
   52    50    52    1
   53    52    53    1
   54    24    54    1
   55    50    54    1
   56    54    55    1
   57    54    56    1
   58    56    57    1
   59    43    58    1
   60    56    58    1
   61    56    59    1
   62    59    60    1
   63    59    61    1
   64    59    62    1
   65    62    63    1
   66    64    65    1
   67    64    66    1
   68    64    67    1
   69    67    68    1
   70    67    69    1
   71    69    70    1
   72    67    71    1
   73    71    72    1
   74    71    73    1
   75    73    74    1
   76    45    75    1
   77    71    75    1
   78    75    76    1
   79    75    77    1
   80    77    78    1
   81    64    79    1
   82    77    79    1
   83    77    80    1
   84    80    81    1
   85    80    82    1
   86    80    83    1
   87    83    84    1
   88    85    86    1
   89    85    87    1
   90    85    88    1
   91    88    89    1
   92    88    90    1
   93    90    91    1
   94    88    92    1
   95    92    93    1
   96    92    94    1
   97    94    95    1
   98    66    96    1
   99    92    96    1
  100    96    97    1
  101    96    98    1
  102    98    99    1
  103    85   100    1
  104    98   100    1
  105    98   101    1
  106   101   102    1
  107   101   103    1
  108   101   104    1
  109   104   105    1
  110   106   107    1
  111    12   108    1
  112   106   108    1
  113   106   109    1
  114   109   110    1
  115   109   111    1
  116   111   112    1
  117   109   113    1
  118   113   114    1
  119   113   115    1
  120   115   116    1
  121    87   117    1
  122   113   117    1
  123   117   118    1
  124   117   119    1
  125   119   120    1
  126   106   121    1
  127   119   121    1
  128   119   122    1
  129   122   123    1
  130   122   124    1
  131   122   125    1
  132   125   126    1
  133   127   128    1
  134   127   129    1
  135   127   130    1
  136   130   131    1
  137   130   132    1
  138   130   133    1
  139   133   134    1
  140   127   135    1
  141   133   135    1
  142   135   136    1
  143   135   137    1
  144   133   138    1
  145   138   139    1
@<TRIPOS>SUBSTRUCTURE
       1 MOL1            1 RESIDUE      1      MOL     
       2 MOL1          139 RESIDUE      1      MOL     
@<SCITEGIC>MOL_PROPERTY
feprocess Rank
SciTegic.value.IntegerValue
22

@<SCITEGIC>MOL_PROPERTY
Conf_Id
SciTegic.value.IntegerValue
379

@<SCITEGIC>MOL_PROPERTY
Probability
SciTegic.value.DoubleValue
0.83

@<SCITEGIC>MOL_PROPERTY
G
SciTegic.value.DoubleValue
546.910

@<SCITEGIC>MOL_PROPERTY
E
SciTegic.value.DoubleValue
368.136

@<SCITEGIC>MOL_PROPERTY
-TS
SciTegic.value.DoubleValue
178.774

@<SCITEGIC>MOL_PROPERTY
U+W
SciTegic.value.DoubleValue
245.625

@<SCITEGIC>MOL_PROPERTY
U
SciTegic.value.DoubleValue
281.004

@<SCITEGIC>MOL_PROPERTY
W
SciTegic.value.DoubleValue
-35.380

@<SCITEGIC>MOL_PROPERTY
W(PB)
SciTegic.value.DoubleValue
-41.384

@<SCITEGIC>MOL_PROPERTY
W(SA)
SciTegic.value.DoubleValue
6.005

@<SCITEGIC>MOL_PROPERTY
Valence
SciTegic.value.DoubleValue
152.701

@<SCITEGIC>MOL_PROPERTY
Coulomb
SciTegic.value.DoubleValue
149.176

@<SCITEGIC>MOL_PROPERTY
VdW
SciTegic.value.DoubleValue
-20.873

@<SCITEGIC>MOL_PROPERTY
VdW6
SciTegic.value.DoubleValue
-168.987

@<SCITEGIC>MOL_PROPERTY
VdW12
SciTegic.value.DoubleValue
148.115

@<SCITEGIC>MOL_PROPERTY
Bond
SciTegic.value.DoubleValue
4.702

@<SCITEGIC>MOL_PROPERTY
Angle
SciTegic.value.DoubleValue
12.034

@<SCITEGIC>MOL_PROPERTY
Pdih
SciTegic.value.DoubleValue
135.966

@<SCITEGIC>MOL_PROPERTY
Idih
SciTegic.value.DoubleValue
0.000

@<SCITEGIC>MOL_PROPERTY
Tether
SciTegic.value.DoubleValue
0.000

@<TRIPOS>MOLECULE
CD_guest-s16_fast_vm2_rndm.mol2 : feprocess host+ligand conformer 23
         139         145           2
SMALL
USER_CHARGES
 
@<TRIPOS>ATOM
       1    C1      16.317619   15.258585   21.567335 C.3        1 MOL1         0.2972
       2    H1      15.220011   15.246661   21.545757 H          1 MOL1         0.0751
       3    O1      16.836798   16.584124   21.326739 O.3        1 MOL1        -0.3740
       4    C2      16.811407   14.769115   22.948334 C.3        1 MOL1         0.1003
       5    H2      16.454906   13.739326   23.080956 H          1 MOL1         0.0783
       6    O2      16.286081   15.596635   23.999573 O.3        1 MOL1        -0.5519
       7    H3      15.741104   16.300784   23.569223 H          1 MOL1         0.3769
       8    C3      18.353268   14.757993   22.997839 C.3        1 MOL1         0.1053
       9    H4      18.690932   15.798873   22.958744 H          1 MOL1         0.0783
      10    O3      18.792333   14.164826   24.223628 O.3        1 MOL1        -0.5519
      11    H5      18.224490   14.572940   24.915263 H          1 MOL1         0.3769
      12    C4      18.975197   14.013719   21.791321 C.3        1 MOL1         0.1018
      13    H6      18.940272   12.933433   21.983369 H          1 MOL1         0.0783
      14    C5      18.294071   14.349633   20.432511 C.3        1 MOL1         0.1043
      15    H7      18.639745   15.342134   20.121310 H          1 MOL1         0.0783
      16    O4      16.848960   14.377074   20.557246 O.3        1 MOL1        -0.3740
      17    C6      18.672125   13.366166   19.300026 C.3        1 MOL1         0.0138
      18    H8      19.731796   13.512980   19.051124 H          1 MOL1         0.0794
      19    H9      18.088686   13.620070   18.404841 H          1 MOL1         0.0794
      20    O5      18.444709   12.001241   19.673340 O.3        1 MOL1        -0.5486
      21    H10     18.658979   11.440486   18.896078 H          1 MOL1         0.3769
      22    C7      15.274073   20.284028   20.111737 C.3        1 MOL1         0.2972
      23    H11     14.681344   21.062481   19.614157 H          1 MOL1         0.0751
      24    O6      16.406102   20.842028   20.807340 O.3        1 MOL1        -0.3740
      25    C8      14.414554   19.491262   21.134806 C.3        1 MOL1         0.1003
      26    H12     13.596837   19.020461   20.573708 H          1 MOL1         0.0783
      27    O7      13.851979   20.351094   22.137609 O.3        1 MOL1        -0.5519
      28    H13     14.600122   20.846893   22.557501 H          1 MOL1         0.3769
      29    C9      15.250809   18.363558   21.790821 C.3        1 MOL1         0.1053
      30    H14     16.050134   18.825138   22.386885 H          1 MOL1         0.0783
      31    O8      14.408838   17.571877   22.636120 O.3        1 MOL1        -0.5519
      32    H15     13.849453   18.221684   23.118558 H          1 MOL1         0.3769
      33    C10     15.901115   17.479686   20.697147 C.3        1 MOL1         0.1018
      34    H16     15.105612   16.929641   20.176663 H          1 MOL1         0.0783
      35    C11     16.671943   18.326955   19.650908 C.3        1 MOL1         0.1043
      36    H17     17.521778   18.812276   20.145175 H          1 MOL1         0.0783
      37    O9      15.778693   19.344039   19.133793 O.3        1 MOL1        -0.3740
      38    C12     17.246913   17.502621   18.468944 C.3        1 MOL1         0.0138
      39    H18     18.243783   17.140561   18.752190 H          1 MOL1         0.0794
      40    H19     17.385634   18.171637   17.609381 H          1 MOL1         0.0794
      41    O10     16.421492   16.388991   18.101386 O.3        1 MOL1        -0.5486
      42    H20     16.465283   15.735910   18.837189 H          1 MOL1         0.3769
      43    C13     18.333178   24.314415   21.824765 C.3        1 MOL1         0.2972
      44    H21     18.680251   25.329032   22.057148 H          1 MOL1         0.0751
      45    O11     19.415049   23.364034   21.788034 O.3        1 MOL1        -0.3740
      46    C14     17.315941   23.834195   22.887290 C.3        1 MOL1         0.1003
      47    H22     16.438018   24.490643   22.827432 H          1 MOL1         0.0783
      48    O12     17.874001   23.910739   24.208692 O.3        1 MOL1        -0.5519
      49    H23     18.848517   23.755791   24.127441 H          1 MOL1         0.3769
      50    C15     16.856455   22.391068   22.575838 C.3        1 MOL1         0.1053
      51    H24     17.718708   21.727265   22.711364 H          1 MOL1         0.0783
      52    O13     15.821039   22.017598   23.489584 O.3        1 MOL1        -0.5519
      53    H25     16.146255   22.310046   24.370585 H          1 MOL1         0.3769
      54    C16     16.357175   22.248905   21.113969 C.3        1 MOL1         0.1018
      55    H26     15.335785   22.648096   21.056353 H          1 MOL1         0.0783
      56    C17     17.273509   22.964435   20.076770 C.3        1 MOL1         0.1043
      57    H27     18.175513   22.351823   19.946971 H          1 MOL1         0.0783
      58    O14     17.664893   24.280476   20.547423 O.3        1 MOL1        -0.3740
      59    C18     16.625884   23.116399   18.679533 C.3        1 MOL1         0.0138
      60    H28     16.573205   22.124761   18.209982 H          1 MOL1         0.0794
      61    H29     17.281918   23.737848   18.055382 H          1 MOL1         0.0794
      62    O15     15.314933   23.690988   18.750028 O.3        1 MOL1        -0.5486
      63    H30     15.001231   23.831653   17.829954 H          1 MOL1         0.3769
      64    C19     23.484600   22.780013   21.861907 C.3        1 MOL1         0.2972
      65    H31     24.579340   22.861781   21.872320 H          1 MOL1         0.0751
      66    O16     23.055924   21.407173   21.765621 O.3        1 MOL1        -0.3740
      67    C20     22.904026   23.379364   23.164543 C.3        1 MOL1         0.1003
      68    H32     23.185426   24.439976   23.196988 H          1 MOL1         0.0783
      69    O17     23.445021   22.707271   24.313344 O.3        1 MOL1        -0.5519
      70    H33     23.850960   21.866158   23.987869 H          1 MOL1         0.3769
      71    C21     21.361741   23.289684   23.163245 C.3        1 MOL1         0.1053
      72    H34     21.089110   22.228792   23.216499 H          1 MOL1         0.0783
      73    O18     20.841344   23.974647   24.305732 O.3        1 MOL1        -0.5519
      74    H35     21.413216   23.686982   25.052712 H          1 MOL1         0.3769
      75    C22     20.755111   23.879002   21.865480 C.3        1 MOL1         0.1018
      76    H36     20.783454   24.974560   21.922556 H          1 MOL1         0.0783
      77    C23     21.488810   23.395676   20.583160 C.3        1 MOL1         0.1043
      78    H37     21.224186   22.343801   20.429086 H          1 MOL1         0.0783
      79    O19     22.927117   23.500498   20.742053 O.3        1 MOL1        -0.3740
      80    C24     21.072453   24.152408   19.298068 C.3        1 MOL1         0.0138
      81    H38     20.053404   23.847893   19.024575 H          1 MOL1         0.0794
      82    H39     21.733879   23.837722   18.479816 H          1 MOL1         0.0794
      83    O20     21.127250   25.575359   19.452446 O.3        1 MOL1        -0.5486
      84    H40     20.296723   25.857446   19.891471 H          1 MOL1         0.3769
      85    C25     24.706661   17.673347   20.793150 C.3        1 MOL1         0.2972
      86    H41     25.363552   16.898530   20.377260 H          1 MOL1         0.0751
      87    O21     23.520348   17.107617   21.381312 O.3        1 MOL1        -0.3740
      88    C26     25.435726   18.471474   21.906962 C.3        1 MOL1         0.1003
      89    H42     26.339210   18.907342   21.461166 H          1 MOL1         0.0783
      90    O22     25.813643   17.609043   22.992729 O.3        1 MOL1        -0.5519
      91    H43     25.035480   17.029580   23.194040 H          1 MOL1         0.3769
      92    C27     24.550244   19.632998   22.425464 C.3        1 MOL1         0.1053
      93    H44     23.681040   19.201880   22.941338 H          1 MOL1         0.0783
      94    O23     25.302123   20.443319   23.335180 O.3        1 MOL1        -0.5519
      95    H45     25.767978   19.804838   23.920453 H          1 MOL1         0.3769
      96    C28     24.036100   20.492375   21.245448 C.3        1 MOL1         0.1018
      97    H46     24.887904   21.019199   20.794901 H          1 MOL1         0.0783
      98    C29     23.360943   19.616795   20.157146 C.3        1 MOL1         0.1043
      99    H47     22.469235   19.143303   20.585657 H          1 MOL1         0.0783
     100    O24     24.302263   18.594180   19.754118 O.3        1 MOL1        -0.3740
     101    C30     22.899207   20.393250   18.896785 C.3        1 MOL1         0.0138
     102    H48     21.873715   20.745504   19.063245 H          1 MOL1         0.0794
     103    H49     22.858259   19.693586   18.051384 H          1 MOL1         0.0794
     104    O25     23.744322   21.505411   18.574665 O.3        1 MOL1        -0.5486
     105    H50     23.594005   22.197154   19.260477 H          1 MOL1         0.3769
     106    C31     21.388901   13.564599   21.590376 C.3        1 MOL1         0.2972
     107    H51     21.025157   12.529214   21.586580 H          1 MOL1         0.0751
     108    O26     20.318306   14.515232   21.709428 O.3        1 MOL1        -0.3740
     109    C32     22.347889   13.815580   22.780845 C.3        1 MOL1         0.1003
     110    H52     23.218786   13.160212   22.650252 H          1 MOL1         0.0783
     111    O27     21.706858   13.509839   24.030033 O.3        1 MOL1        -0.5519
     112    H53     20.786064   13.872708   23.985458 H          1 MOL1         0.3769
     113    C33     22.843802   15.283466   22.771662 C.3        1 MOL1         0.1053
     114    H54     21.984292   15.937738   22.971929 H          1 MOL1         0.0783
     115    O28     23.833823   15.462537   23.790602 O.3        1 MOL1        -0.5519
     116    H55     23.458835   15.027049   24.588338 H          1 MOL1         0.3769
     117    C34     23.436434   15.669878   21.393970 C.3        1 MOL1         0.1018
     118    H56     24.425484   15.201117   21.306120 H          1 MOL1         0.0783
     119    C35     22.533286   15.232792   20.204515 C.3        1 MOL1         0.1043
     120    H57     21.647352   15.881976   20.190411 H          1 MOL1         0.0783
     121    O29     22.114311   13.854745   20.377153 O.3        1 MOL1        -0.3740
     122    C36     23.216712   15.359151   18.821704 C.3        1 MOL1         0.0138
     123    H58     23.294374   16.424272   18.566626 H          1 MOL1         0.0794
     124    H59     22.568391   14.892461   18.068161 H          1 MOL1         0.0794
     125    O30     24.517562   14.756776   18.801724 O.3        1 MOL1        -0.5486
     126    H60     24.859764   14.819181   17.883388 H          1 MOL1         0.3769
     127    C1      19.891098   19.790928   23.611613 C.3        1 MOL1        -0.1693
     128    H1      20.900129   19.890319   24.033254 H          1 MOL1         0.0829
     129    H2      19.219877   20.475010   24.143832 H          1 MOL1         0.0829
     130    C2      19.390514   18.318385   23.455373 C.3        1 MOL1        -0.1768
     131    H3      19.742579   17.609012   24.212359 H          1 MOL1         0.0829
     132    H4      18.303204   18.215557   23.352947 H          1 MOL1         0.0829
     133    C3      20.182807   18.325394   22.112883 C.3        1 MOL1         0.1211
     134    H5      21.255199   18.125314   22.229504 H          1 MOL1         0.0786
     135    C4      19.828787   19.838708   22.050022 C.3        1 MOL1        -0.1768
     136    H6      18.840627   20.057397   21.633140 H          1 MOL1         0.0829
     137    H7      20.564724   20.476597   21.555883 H          1 MOL1         0.0829
     138    O1      19.642235   17.544903   21.076208 O.3        1 MOL1        -0.5515
     139    H8      18.718886   17.332151   21.328560 H          1 MOL1         0.3773
@<TRIPOS>BOND
    1     1     2    1
    2     1     3    1
    3     1     4    1
    4     4     5    1
    5     4     6    1
    6     6     7    1
    7     4     8    1
    8     8     9    1
    9     8    10    1
   10    10    11    1
   11     8    12    1
   12    12    13    1
   13    12    14    1
   14    14    15    1
   15     1    16    1
   16    14    16    1
   17    14    17    1
   18    17    18    1
   19    17    19    1
   20    17    20    1
   21    20    21    1
   22    22    23    1
   23    22    24    1
   24    22    25    1
   25    25    26    1
   26    25    27    1
   27    27    28    1
   28    25    29    1
   29    29    30    1
   30    29    31    1
   31    31    32    1
   32     3    33    1
   33    29    33    1
   34    33    34    1
   35    33    35    1
   36    35    36    1
   37    22    37    1
   38    35    37    1
   39    35    38    1
   40    38    39    1
   41    38    40    1
   42    38    41    1
   43    41    42    1
   44    43    44    1
   45    43    45    1
   46    43    46    1
   47    46    47    1
   48    46    48    1
   49    48    49    1
   50    46    50    1
   51    50    51    1
   52    50    52    1
   53    52    53    1
   54    24    54    1
   55    50    54    1
   56    54    55    1
   57    54    56    1
   58    56    57    1
   59    43    58    1
   60    56    58    1
   61    56    59    1
   62    59    60    1
   63    59    61    1
   64    59    62    1
   65    62    63    1
   66    64    65    1
   67    64    66    1
   68    64    67    1
   69    67    68    1
   70    67    69    1
   71    69    70    1
   72    67    71    1
   73    71    72    1
   74    71    73    1
   75    73    74    1
   76    45    75    1
   77    71    75    1
   78    75    76    1
   79    75    77    1
   80    77    78    1
   81    64    79    1
   82    77    79    1
   83    77    80    1
   84    80    81    1
   85    80    82    1
   86    80    83    1
   87    83    84    1
   88    85    86    1
   89    85    87    1
   90    85    88    1
   91    88    89    1
   92    88    90    1
   93    90    91    1
   94    88    92    1
   95    92    93    1
   96    92    94    1
   97    94    95    1
   98    66    96    1
   99    92    96    1
  100    96    97    1
  101    96    98    1
  102    98    99    1
  103    85   100    1
  104    98   100    1
  105    98   101    1
  106   101   102    1
  107   101   103    1
  108   101   104    1
  109   104   105    1
  110   106   107    1
  111    12   108    1
  112   106   108    1
  113   106   109    1
  114   109   110    1
  115   109   111    1
  116   111   112    1
  117   109   113    1
  118   113   114    1
  119   113   115    1
  120   115   116    1
  121    87   117    1
  122   113   117    1
  123   117   118    1
  124   117   119    1
  125   119   120    1
  126   106   121    1
  127   119   121    1
  128   119   122    1
  129   122   123    1
  130   122   124    1
  131   122   125    1
  132   125   126    1
  133   127   128    1
  134   127   129    1
  135   127   130    1
  136   130   131    1
  137   130   132    1
  138   130   133    1
  139   133   134    1
  140   127   135    1
  141   133   135    1
  142   135   136    1
  143   135   137    1
  144   133   138    1
  145   138   139    1
@<TRIPOS>SUBSTRUCTURE
       1 MOL1            1 RESIDUE      1      MOL     
       2 MOL1          139 RESIDUE      1      MOL     
@<SCITEGIC>MOL_PROPERTY
feprocess Rank
SciTegic.value.IntegerValue
23

@<SCITEGIC>MOL_PROPERTY
Conf_Id
SciTegic.value.IntegerValue
564

@<SCITEGIC>MOL_PROPERTY
Probability
SciTegic.value.DoubleValue
0.80

@<SCITEGIC>MOL_PROPERTY
G
SciTegic.value.DoubleValue
546.928

@<SCITEGIC>MOL_PROPERTY
E
SciTegic.value.DoubleValue
369.298

@<SCITEGIC>MOL_PROPERTY
-TS
SciTegic.value.DoubleValue
177.630

@<SCITEGIC>MOL_PROPERTY
U+W
SciTegic.value.DoubleValue
246.787

@<SCITEGIC>MOL_PROPERTY
U
SciTegic.value.DoubleValue
282.628

@<SCITEGIC>MOL_PROPERTY
W
SciTegic.value.DoubleValue
-35.841

@<SCITEGIC>MOL_PROPERTY
W(PB)
SciTegic.value.DoubleValue
-41.827

@<SCITEGIC>MOL_PROPERTY
W(SA)
SciTegic.value.DoubleValue
5.986

@<SCITEGIC>MOL_PROPERTY
Valence
SciTegic.value.DoubleValue
154.611

@<SCITEGIC>MOL_PROPERTY
Coulomb
SciTegic.value.DoubleValue
150.502

@<SCITEGIC>MOL_PROPERTY
VdW
SciTegic.value.DoubleValue
-22.486

@<SCITEGIC>MOL_PROPERTY
VdW6
SciTegic.value.DoubleValue
-168.779

@<SCITEGIC>MOL_PROPERTY
VdW12
SciTegic.value.DoubleValue
146.293

@<SCITEGIC>MOL_PROPERTY
Bond
SciTegic.value.DoubleValue
4.506

@<SCITEGIC>MOL_PROPERTY
Angle
SciTegic.value.DoubleValue
11.683

@<SCITEGIC>MOL_PROPERTY
Pdih
SciTegic.value.DoubleValue
138.422

@<SCITEGIC>MOL_PROPERTY
Idih
SciTegic.value.DoubleValue
0.000

@<SCITEGIC>MOL_PROPERTY
Tether
SciTegic.value.DoubleValue
0.000

@<TRIPOS>MOLECULE
CD_guest-s16_fast_vm2_rndm.mol2 : feprocess host+ligand conformer 24
         139         145           2
SMALL
USER_CHARGES
 
@<TRIPOS>ATOM
       1    C1      16.248962   15.195209   20.555120 C.3        1 MOL1         0.2972
       2    H1      15.227454   15.057470   20.177651 H          1 MOL1         0.0751
       3    O1      16.488023   16.559386   20.961170 O.3        1 MOL1        -0.3740
       4    C2      16.541536   14.254898   21.755848 C.3        1 MOL1         0.1003
       5    H2      16.465567   13.224085   21.385938 H          1 MOL1         0.0783
       6    O2      15.595405   14.433721   22.819853 O.3        1 MOL1        -0.5519
       7    H3      15.636773   15.384712   23.094208 H          1 MOL1         0.3769
       8    C3      17.988623   14.471814   22.264057 C.3        1 MOL1         0.1053
       9    H4      18.064019   15.492234   22.663402 H          1 MOL1         0.0783
      10    O3      18.290371   13.526842   23.295759 O.3        1 MOL1        -0.5519
      11    H5      17.491215   13.508033   23.868464 H          1 MOL1         0.3769
      12    C4      19.002310   14.328419   21.101499 C.3        1 MOL1         0.1018
      13    H6      19.073188   13.267686   20.827129 H          1 MOL1         0.0783
      14    C5      18.592884   15.152685   19.849136 C.3        1 MOL1         0.1043
      15    H7      18.692740   16.217360   20.089712 H          1 MOL1         0.0783
      16    O4      17.208777   14.871180   19.522418 O.3        1 MOL1        -0.3740
      17    C6      19.472497   14.900843   18.595682 C.3        1 MOL1         0.0138
      18    H8      20.293311   15.628947   18.597412 H          1 MOL1         0.0794
      19    H9      18.871684   15.105297   17.699457 H          1 MOL1         0.0794
      20    O5      20.012772   13.574758   18.533694 O.3        1 MOL1        -0.5486
      21    H10     20.711964   13.512266   19.225239 H          1 MOL1         0.3769
      22    C7      14.832613   20.250935   21.655163 C.3        1 MOL1         0.2972
      23    H11     14.204850   21.132745   21.838607 H          1 MOL1         0.0751
      24    O6      16.204468   20.614193   21.409970 O.3        1 MOL1        -0.3740
      25    C8      14.797438   19.311474   22.881929 C.3        1 MOL1         0.1003
      26    H12     13.761407   18.972250   23.011475 H          1 MOL1         0.0783
      27    O7      15.224931   20.004067   24.066654 O.3        1 MOL1        -0.5519
      28    H13     15.538370   20.897945   23.783822 H          1 MOL1         0.3769
      29    C9      15.686156   18.072360   22.634430 C.3        1 MOL1         0.1053
      30    H14     16.725018   18.415243   22.576207 H          1 MOL1         0.0783
      31    O8      15.542549   17.167502   23.732178 O.3        1 MOL1        -0.5519
      32    H15     15.597718   17.738220   24.531802 H          1 MOL1         0.3769
      33    C10     15.343186   17.368374   21.295992 C.3        1 MOL1         0.1018
      34    H16     14.434850   16.766843   21.433586 H          1 MOL1         0.0783
      35    C11     15.159688   18.368870   20.116938 C.3        1 MOL1         0.1043
      36    H17     16.156902   18.723054   19.827553 H          1 MOL1         0.0783
      37    O9      14.355701   19.511251   20.511923 O.3        1 MOL1        -0.3740
      38    C12     14.522963   17.729612   18.860094 C.3        1 MOL1         0.0138
      39    H18     15.252000   17.040614   18.412371 H          1 MOL1         0.0794
      40    H19     14.327603   18.521091   18.124046 H          1 MOL1         0.0794
      41    O10     13.313985   17.024605   19.167691 O.3        1 MOL1        -0.5486
      42    H20     12.927020   16.712707   18.320508 H          1 MOL1         0.3769
      43    C13     18.555154   24.001677   20.841309 C.3        1 MOL1         0.2972
      44    H21     18.945103   24.985606   20.550047 H          1 MOL1         0.0751
      45    O11     19.598873   23.135666   21.327678 O.3        1 MOL1        -0.3740
      46    C14     17.485394   24.130203   21.959030 C.3        1 MOL1         0.1003
      47    H22     16.665692   24.741627   21.559879 H          1 MOL1         0.0783
      48    O12     18.024529   24.770107   23.126853 O.3        1 MOL1        -0.5519
      49    H23     18.850883   24.285002   23.377628 H          1 MOL1         0.3769
      50    C15     16.911714   22.738181   22.324612 C.3        1 MOL1         0.1053
      51    H24     17.716462   22.153832   22.787527 H          1 MOL1         0.0783
      52    O13     15.831884   22.886361   23.252001 O.3        1 MOL1        -0.5519
      53    H25     16.140859   23.559644   23.899327 H          1 MOL1         0.3769
      54    C16     16.430579   21.988145   21.056303 C.3        1 MOL1         0.1018
      55    H26     15.517565   22.471284   20.683911 H          1 MOL1         0.0783
      56    C17     17.498272   21.991551   19.931499 C.3        1 MOL1         0.1043
      57    H27     18.350218   21.385078   20.262608 H          1 MOL1         0.0783
      58    O14     17.936896   23.353361   19.705815 O.3        1 MOL1        -0.3740
      59    C18     17.013628   21.380378   18.590281 C.3        1 MOL1         0.0138
      60    H28     17.226622   20.303856   18.605837 H          1 MOL1         0.0794
      61    H29     17.608874   21.809606   17.773349 H          1 MOL1         0.0794
      62    O15     15.616320   21.585208   18.343839 O.3        1 MOL1        -0.5486
      63    H30     15.121258   21.032019   18.990687 H          1 MOL1         0.3769
      64    C19     23.624754   22.798886   21.980608 C.3        1 MOL1         0.2972
      65    H31     24.703226   22.896478   22.161110 H          1 MOL1         0.0751
      66    O16     23.246366   21.435495   21.707926 O.3        1 MOL1        -0.3740
      67    C20     22.829027   23.273881   23.219264 C.3        1 MOL1         0.1003
      68    H32     23.018859   24.346737   23.353867 H          1 MOL1         0.0783
      69    O17     23.247640   22.561500   24.393898 O.3        1 MOL1        -0.5519
      70    H33     23.687845   21.732537   24.084704 H          1 MOL1         0.3769
      71    C21     21.317880   23.072810   22.973314 C.3        1 MOL1         0.1053
      72    H34     21.147344   21.997143   22.874731 H          1 MOL1         0.0783
      73    O18     20.565137   23.567224   24.085240 O.3        1 MOL1        -0.5519
      74    H35     21.096098   23.317447   24.876123 H          1 MOL1         0.3769
      75    C22     20.858170   23.749719   21.658507 C.3        1 MOL1         0.1018
      76    H36     20.760782   24.829254   21.834661 H          1 MOL1         0.0783
      77    C23     21.818848   23.473964   20.462991 C.3        1 MOL1         0.1043
      78    H37     21.641682   22.442838   20.134342 H          1 MOL1         0.0783
      79    O19     23.211069   23.604932   20.857490 O.3        1 MOL1        -0.3740
      80    C24     21.568143   24.388348   19.240364 C.3        1 MOL1         0.0138
      81    H38     20.617669   24.095813   18.774006 H          1 MOL1         0.0794
      82    H39     22.361049   24.211293   18.501185 H          1 MOL1         0.0794
      83    O20     21.525513   25.773607   19.603923 O.3        1 MOL1        -0.5486
      84    H40     21.445080   26.296673   18.776470 H          1 MOL1         0.3769
      85    C25     24.893432   17.700312   20.890116 C.3        1 MOL1         0.2972
      86    H41     25.534493   16.876473   20.550621 H          1 MOL1         0.0751
      87    O21     23.593221   17.228888   21.298154 O.3        1 MOL1        -0.3740
      88    C26     25.539360   18.461497   22.080241 C.3        1 MOL1         0.1003
      89    H42     26.492712   18.872315   21.723227 H          1 MOL1         0.0783
      90    O22     25.796635   17.588759   23.190909 O.3        1 MOL1        -0.5519
      91    H43     24.939714   17.151506   23.428570 H          1 MOL1         0.3769
      92    C27     24.644135   19.648264   22.516980 C.3        1 MOL1         0.1053
      93    H44     23.708031   19.240749   22.923149 H          1 MOL1         0.0783
      94    O23     25.312915   20.415841   23.522852 O.3        1 MOL1        -0.5519
      95    H45     25.700184   19.752228   24.136716 H          1 MOL1         0.3769
      96    C28     24.299432   20.547502   21.303384 C.3        1 MOL1         0.1018
      97    H46     25.201841   21.092398   20.996137 H          1 MOL1         0.0783
      98    C29     23.765866   19.723356   20.100343 C.3        1 MOL1         0.1043
      99    H47     22.793430   19.295579   20.377332 H          1 MOL1         0.0783
     100    O24     24.698025   18.650756   19.817875 O.3        1 MOL1        -0.3740
     101    C30     23.537503   20.547995   18.805793 C.3        1 MOL1         0.0138
     102    H48     22.498960   20.901746   18.800270 H          1 MOL1         0.0794
     103    H49     23.647155   19.880170   17.940938 H          1 MOL1         0.0794
     104    O25     24.424122   21.667305   18.678752 O.3        1 MOL1        -0.5486
     105    H50     24.161279   22.327619   19.361088 H          1 MOL1         0.3769
     106    C31     21.276133   13.878690   21.860011 C.3        1 MOL1         0.2972
     107    H51     20.849939   12.880312   22.023681 H          1 MOL1         0.0751
     108    O26     20.256654   14.851390   21.567511 O.3        1 MOL1        -0.3740
     109    C32     22.028796   14.345805   23.127412 C.3        1 MOL1         0.1003
     110    H52     22.852594   13.642060   23.304191 H          1 MOL1         0.0783
     111    O27     21.148257   14.344931   24.262820 O.3        1 MOL1        -0.5519
     112    H53     20.225873   14.335798   23.908312 H          1 MOL1         0.3769
     113    C33     22.633563   15.752296   22.913660 C.3        1 MOL1         0.1053
     114    H54     21.805803   16.465845   22.825851 H          1 MOL1         0.0783
     115    O28     23.441690   16.094875   24.043413 O.3        1 MOL1        -0.5519
     116    H55     22.891591   15.861264   24.824552 H          1 MOL1         0.3769
     117    C34     23.472274   15.827925   21.612724 C.3        1 MOL1         0.1018
     118    H56     24.448058   15.358692   21.796268 H          1 MOL1         0.0783
     119    C35     22.769494   15.156700   20.396384 C.3        1 MOL1         0.1043
     120    H57     21.956353   15.821370   20.079699 H          1 MOL1         0.0783
     121    O29     22.208777   13.867603   20.759454 O.3        1 MOL1        -0.3740
     122    C36     23.697825   14.960046   19.174205 C.3        1 MOL1         0.0138
     123    H58     23.911495   15.944466   18.736205 H          1 MOL1         0.0794
     124    H59     23.160058   14.375892   18.415270 H          1 MOL1         0.0794
     125    O30     24.924262   14.309060   19.528064 O.3        1 MOL1        -0.5486
     126    H60     25.424129   14.143832   18.698897 H          1 MOL1         0.3769
     127    C1      19.653428   18.251723   21.817723 C.3        1 MOL1        -0.1693
     128    H1      18.725030   18.285390   21.233705 H          1 MOL1         0.0829
     129    H2      20.322976   17.507735   21.374238 H          1 MOL1         0.0829
     130    C2      19.454020   18.175264   23.369046 C.3        1 MOL1        -0.1768
     131    H3      18.584568   17.612605   23.723325 H          1 MOL1         0.0829
     132    H4      20.333831   17.850580   23.937317 H          1 MOL1         0.0829
     133    C3      19.279265   19.721862   23.290204 C.3        1 MOL1         0.1211
     134    H5      18.269077   20.033219   22.998245 H          1 MOL1         0.0786
     135    C4      20.290678   19.646403   22.106099 C.3        1 MOL1        -0.1768
     136    H6      20.177158   20.400999   21.322092 H          1 MOL1         0.0829
     137    H7      21.342591   19.609540   22.412583 H          1 MOL1         0.0829
     138    O1      19.713893   20.441795   24.421206 O.3        1 MOL1        -0.5515
     139    H8      19.721113   21.394658   24.189748 H          1 MOL1         0.3773
@<TRIPOS>BOND
    1     1     2    1
    2     1     3    1
    3     1     4    1
    4     4     5    1
    5     4     6    1
    6     6     7    1
    7     4     8    1
    8     8     9    1
    9     8    10    1
   10    10    11    1
   11     8    12    1
   12    12    13    1
   13    12    14    1
   14    14    15    1
   15     1    16    1
   16    14    16    1
   17    14    17    1
   18    17    18    1
   19    17    19    1
   20    17    20    1
   21    20    21    1
   22    22    23    1
   23    22    24    1
   24    22    25    1
   25    25    26    1
   26    25    27    1
   27    27    28    1
   28    25    29    1
   29    29    30    1
   30    29    31    1
   31    31    32    1
   32     3    33    1
   33    29    33    1
   34    33    34    1
   35    33    35    1
   36    35    36    1
   37    22    37    1
   38    35    37    1
   39    35    38    1
   40    38    39    1
   41    38    40    1
   42    38    41    1
   43    41    42    1
   44    43    44    1
   45    43    45    1
   46    43    46    1
   47    46    47    1
   48    46    48    1
   49    48    49    1
   50    46    50    1
   51    50    51    1
   52    50    52    1
   53    52    53    1
   54    24    54    1
   55    50    54    1
   56    54    55    1
   57    54    56    1
   58    56    57    1
   59    43    58    1
   60    56    58    1
   61    56    59    1
   62    59    60    1
   63    59    61    1
   64    59    62    1
   65    62    63    1
   66    64    65    1
   67    64    66    1
   68    64    67    1
   69    67    68    1
   70    67    69    1
   71    69    70    1
   72    67    71    1
   73    71    72    1
   74    71    73    1
   75    73    74    1
   76    45    75    1
   77    71    75    1
   78    75    76    1
   79    75    77    1
   80    77    78    1
   81    64    79    1
   82    77    79    1
   83    77    80    1
   84    80    81    1
   85    80    82    1
   86    80    83    1
   87    83    84    1
   88    85    86    1
   89    85    87    1
   90    85    88    1
   91    88    89    1
   92    88    90    1
   93    90    91    1
   94    88    92    1
   95    92    93    1
   96    92    94    1
   97    94    95    1
   98    66    96    1
   99    92    96    1
  100    96    97    1
  101    96    98    1
  102    98    99    1
  103    85   100    1
  104    98   100    1
  105    98   101    1
  106   101   102    1
  107   101   103    1
  108   101   104    1
  109   104   105    1
  110   106   107    1
  111    12   108    1
  112   106   108    1
  113   106   109    1
  114   109   110    1
  115   109   111    1
  116   111   112    1
  117   109   113    1
  118   113   114    1
  119   113   115    1
  120   115   116    1
  121    87   117    1
  122   113   117    1
  123   117   118    1
  124   117   119    1
  125   119   120    1
  126   106   121    1
  127   119   121    1
  128   119   122    1
  129   122   123    1
  130   122   124    1
  131   122   125    1
  132   125   126    1
  133   127   128    1
  134   127   129    1
  135   127   130    1
  136   130   131    1
  137   130   132    1
  138   130   133    1
  139   133   134    1
  140   127   135    1
  141   133   135    1
  142   135   136    1
  143   135   137    1
  144   133   138    1
  145   138   139    1
@<TRIPOS>SUBSTRUCTURE
       1 MOL1            1 RESIDUE      1      MOL     
       2 MOL1          139 RESIDUE      1      MOL     
@<SCITEGIC>MOL_PROPERTY
feprocess Rank
SciTegic.value.IntegerValue
24

@<SCITEGIC>MOL_PROPERTY
Conf_Id
SciTegic.value.IntegerValue
1

@<SCITEGIC>MOL_PROPERTY
Probability
SciTegic.value.DoubleValue
0.78

@<SCITEGIC>MOL_PROPERTY
G
SciTegic.value.DoubleValue
546.945

@<SCITEGIC>MOL_PROPERTY
E
SciTegic.value.DoubleValue
369.034

@<SCITEGIC>MOL_PROPERTY
-TS
SciTegic.value.DoubleValue
177.911

@<SCITEGIC>MOL_PROPERTY
U+W
SciTegic.value.DoubleValue
246.523

@<SCITEGIC>MOL_PROPERTY
U
SciTegic.value.DoubleValue
282.886

@<SCITEGIC>MOL_PROPERTY
W
SciTegic.value.DoubleValue
-36.363

@<SCITEGIC>MOL_PROPERTY
W(PB)
SciTegic.value.DoubleValue
-42.386

@<SCITEGIC>MOL_PROPERTY
W(SA)
SciTegic.value.DoubleValue
6.023

@<SCITEGIC>MOL_PROPERTY
Valence
SciTegic.value.DoubleValue
153.194

@<SCITEGIC>MOL_PROPERTY
Coulomb
SciTegic.value.DoubleValue
150.360

@<SCITEGIC>MOL_PROPERTY
VdW
SciTegic.value.DoubleValue
-20.668

@<SCITEGIC>MOL_PROPERTY
VdW6
SciTegic.value.DoubleValue
-168.295

@<SCITEGIC>MOL_PROPERTY
VdW12
SciTegic.value.DoubleValue
147.627

@<SCITEGIC>MOL_PROPERTY
Bond
SciTegic.value.DoubleValue
4.629

@<SCITEGIC>MOL_PROPERTY
Angle
SciTegic.value.DoubleValue
12.252

@<SCITEGIC>MOL_PROPERTY
Pdih
SciTegic.value.DoubleValue
136.312

@<SCITEGIC>MOL_PROPERTY
Idih
SciTegic.value.DoubleValue
0.000

@<SCITEGIC>MOL_PROPERTY
Tether
SciTegic.value.DoubleValue
0.000

@<TRIPOS>MOLECULE
CD_guest-s16_fast_vm2_rndm.mol2 : feprocess host+ligand conformer 25
         139         145           2
SMALL
USER_CHARGES
 
@<TRIPOS>ATOM
       1    C1      16.373481   15.297665   20.765824 C.3        1 MOL1         0.2972
       2    H1      15.375370   15.057997   20.377545 H          1 MOL1         0.0751
       3    O1      16.472576   16.676473   21.172253 O.3        1 MOL1        -0.3740
       4    C2      16.687005   14.432592   22.015223 C.3        1 MOL1         0.1003
       5    H2      16.612682   13.379434   21.714582 H          1 MOL1         0.0783
       6    O2      15.739924   14.692556   23.064438 O.3        1 MOL1        -0.5519
       7    H3      15.520151   15.657578   23.028943 H          1 MOL1         0.3769
       8    C3      18.131435   14.685580   22.515878 C.3        1 MOL1         0.1053
       9    H4      18.193431   15.718281   22.885166 H          1 MOL1         0.0783
      10    O3      18.442635   13.772753   23.573810 O.3        1 MOL1        -0.5519
      11    H5      17.649130   13.777505   24.154922 H          1 MOL1         0.3769
      12    C4      19.140479   14.522936   21.353770 C.3        1 MOL1         0.1018
      13    H6      19.162156   13.467597   21.050464 H          1 MOL1         0.0783
      14    C5      18.736870   15.383321   20.127537 C.3        1 MOL1         0.1043
      15    H7      18.782720   16.442624   20.407958 H          1 MOL1         0.0783
      16    O4      17.379957   15.039204   19.760710 O.3        1 MOL1        -0.3740
      17    C6      19.645633   15.202624   18.883961 C.3        1 MOL1         0.0138
      18    H8      20.466331   15.927762   18.945952 H          1 MOL1         0.0794
      19    H9      19.066233   15.460033   17.987326 H          1 MOL1         0.0794
      20    O5      20.179802   13.878043   18.759809 O.3        1 MOL1        -0.5486
      21    H10     20.828778   13.751944   19.490739 H          1 MOL1         0.3769
      22    C7      14.712604   20.395776   20.704508 C.3        1 MOL1         0.2972
      23    H11     14.063275   21.248813   20.468546 H          1 MOL1         0.0751
      24    O6      16.022054   20.824453   21.135602 O.3        1 MOL1        -0.3740
      25    C8      14.086506   19.507913   21.810918 C.3        1 MOL1         0.1003
      26    H12     13.148306   19.102196   21.410285 H          1 MOL1         0.0783
      27    O7      13.794211   20.259853   22.998049 O.3        1 MOL1        -0.5519
      28    H13     14.618115   20.745565   23.256038 H          1 MOL1         0.3769
      29    C9      15.020647   18.315727   22.127621 C.3        1 MOL1         0.1053
      30    H14     15.955856   18.709644   22.548574 H          1 MOL1         0.0783
      31    O8      14.392363   17.448257   23.077295 O.3        1 MOL1        -0.5519
      32    H15     14.006671   18.047821   23.754602 H          1 MOL1         0.3769
      33    C10     15.356050   17.523793   20.839958 C.3        1 MOL1         0.1018
      34    H16     14.467535   16.943296   20.559117 H          1 MOL1         0.0783
      35    C11     15.779630   18.441736   19.656503 C.3        1 MOL1         0.1043
      36    H17     16.789590   18.817059   19.856332 H          1 MOL1         0.0783
      37    O9      14.872152   19.566276   19.535091 O.3        1 MOL1        -0.3740
      38    C12     15.822710   17.712976   18.292058 C.3        1 MOL1         0.0138
      39    H18     16.684059   17.033016   18.285174 H          1 MOL1         0.0794
      40    H19     15.992727   18.457834   17.503207 H          1 MOL1         0.0794
      41    O10     14.619336   16.978570   18.031903 O.3        1 MOL1        -0.5486
      42    H20     14.706877   16.570073   17.143285 H          1 MOL1         0.3769
      43    C13     18.405372   24.044295   21.982943 C.3        1 MOL1         0.2972
      44    H21     18.886223   25.006329   22.203000 H          1 MOL1         0.0751
      45    O11     19.372337   23.003422   21.745513 O.3        1 MOL1        -0.3740
      46    C14     17.517088   23.609907   23.170483 C.3        1 MOL1         0.1003
      47    H22     16.712930   24.349814   23.275640 H          1 MOL1         0.0783
      48    O12     18.280261   23.557419   24.386641 O.3        1 MOL1        -0.5519
      49    H23     19.234618   23.586928   24.127654 H          1 MOL1         0.3769
      50    C15     16.876799   22.235932   22.877602 C.3        1 MOL1         0.1053
      51    H24     17.682915   21.497488   22.843307 H          1 MOL1         0.0783
      52    O13     15.973356   21.903025   23.933842 O.3        1 MOL1        -0.5519
      53    H25     16.460592   22.130813   24.757786 H          1 MOL1         0.3769
      54    C16     16.148738   22.213595   21.508969 C.3        1 MOL1         0.1018
      55    H26     15.172687   22.702032   21.629958 H          1 MOL1         0.0783
      56    C17     16.954603   22.904339   20.367932 C.3        1 MOL1         0.1043
      57    H27     17.751823   22.217470   20.061692 H          1 MOL1         0.0783
      58    O14     17.560916   24.144650   20.817391 O.3        1 MOL1        -0.3740
      59    C18     16.106405   23.197201   19.107824 C.3        1 MOL1         0.0138
      60    H28     15.857617   22.241833   18.625931 H          1 MOL1         0.0794
      61    H29     16.717918   23.770888   18.398355 H          1 MOL1         0.0794
      62    O15     14.903933   23.910747   19.421492 O.3        1 MOL1        -0.5486
      63    H30     14.453139   24.121431   18.574695 H          1 MOL1         0.3769
      64    C19     23.516267   22.651206   21.188899 C.3        1 MOL1         0.2972
      65    H31     24.553407   22.898211   20.929051 H          1 MOL1         0.0751
      66    O16     23.385768   21.273279   21.585803 O.3        1 MOL1        -0.3740
      67    C20     23.060735   23.520151   22.389505 C.3        1 MOL1         0.1003
      68    H32     23.183152   24.572462   22.101860 H          1 MOL1         0.0783
      69    O17     23.875512   23.244282   23.540413 O.3        1 MOL1        -0.5519
      70    H33     24.125713   22.288933   23.488563 H          1 MOL1         0.3769
      71    C21     21.566286   23.284788   22.717118 C.3        1 MOL1         0.1053
      72    H34     21.451176   22.256514   23.086651 H          1 MOL1         0.0783
      73    O18     21.146288   24.214280   23.721405 O.3        1 MOL1        -0.5519
      74    H35     21.866841   24.206658   24.390981 H          1 MOL1         0.3769
      75    C22     20.705886   23.440898   21.440824 C.3        1 MOL1         0.1018
      76    H36     20.726216   24.490399   21.118212 H          1 MOL1         0.0783
      77    C23     21.245064   22.551171   20.290912 C.3        1 MOL1         0.1043
      78    H37     21.165514   21.500162   20.599110 H          1 MOL1         0.0783
      79    O19     22.637485   22.889244   20.065408 O.3        1 MOL1        -0.3740
      80    C24     20.467108   22.690721   18.956622 C.3        1 MOL1         0.0138
      81    H38     19.650154   21.957621   18.958925 H          1 MOL1         0.0794
      82    H39     21.134654   22.418255   18.128700 H          1 MOL1         0.0794
      83    O20     19.933820   24.005093   18.747650 O.3        1 MOL1        -0.5486
      84    H40     19.223236   24.139599   19.416581 H          1 MOL1         0.3769
      85    C25     25.118997   17.533211   20.993551 C.3        1 MOL1         0.2972
      86    H41     25.765849   16.689933   20.718840 H          1 MOL1         0.0751
      87    O21     23.835209   17.091819   21.470384 O.3        1 MOL1        -0.3740
      88    C26     25.762879   18.398900   22.107302 C.3        1 MOL1         0.1003
      89    H42     26.707747   18.793559   21.711687 H          1 MOL1         0.0783
      90    O22     26.033689   17.618734   23.282974 O.3        1 MOL1        -0.5519
      91    H43     25.196551   17.147794   23.526402 H          1 MOL1         0.3769
      92    C27     24.848823   19.600766   22.454577 C.3        1 MOL1         0.1053
      93    H44     23.931240   19.212391   22.918390 H          1 MOL1         0.0783
      94    O23     25.523371   20.468922   23.372118 O.3        1 MOL1        -0.5519
      95    H45     25.907616   19.873884   24.053676 H          1 MOL1         0.3769
      96    C28     24.450403   20.390840   21.182860 C.3        1 MOL1         0.1018
      97    H46     25.334262   20.941642   20.835515 H          1 MOL1         0.0783
      98    C29     23.937674   19.458426   20.046719 C.3        1 MOL1         0.1043
      99    H47     22.977263   19.030755   20.356482 H          1 MOL1         0.0783
     100    O24     24.892476   18.385869   19.849312 O.3        1 MOL1        -0.3740
     101    C30     23.688528   20.148830   18.682083 C.3        1 MOL1         0.0138
     102    H48     22.669989   20.557082   18.681104 H          1 MOL1         0.0794
     103    H49     23.724253   19.385082   17.893862 H          1 MOL1         0.0794
     104    O25     24.624463   21.193648   18.396051 O.3        1 MOL1        -0.5486
     105    H50     24.238231   22.020976   18.762096 H          1 MOL1         0.3769
     106    C31     21.369722   13.919492   22.110692 C.3        1 MOL1         0.2972
     107    H51     20.865260   12.961438   22.292302 H          1 MOL1         0.0751
     108    O26     20.425454   14.970282   21.819536 O.3        1 MOL1        -0.3740
     109    C32     22.185314   14.323830   23.359957 C.3        1 MOL1         0.1003
     110    H52     22.952017   13.554824   23.521051 H          1 MOL1         0.0783
     111    O27     21.332265   14.398608   24.513733 O.3        1 MOL1        -0.5519
     112    H53     20.401519   14.410512   24.180549 H          1 MOL1         0.3769
     113    C33     22.897115   15.674035   23.126649 C.3        1 MOL1         0.1053
     114    H54     22.123761   16.447224   23.071333 H          1 MOL1         0.0783
     115    O28     23.769813   15.954743   24.225348 O.3        1 MOL1        -0.5519
     116    H55     23.233095   15.764036   25.027006 H          1 MOL1         0.3769
     117    C34     23.692758   15.698753   21.797354 C.3        1 MOL1         0.1018
     118    H56     24.661039   15.205751   21.956086 H          1 MOL1         0.0783
     119    C35     22.935294   15.047943   20.603624 C.3        1 MOL1         0.1043
     120    H57     22.171840   15.763128   20.276282 H          1 MOL1         0.0783
     121    O29     22.280634   13.814741   20.997872 O.3        1 MOL1        -0.3740
     122    C36     23.836833   14.757785   19.380089 C.3        1 MOL1         0.0138
     123    H58     24.119294   15.714215   18.919695 H          1 MOL1         0.0794
     124    H59     23.251634   14.199507   18.636892 H          1 MOL1         0.0794
     125    O30     25.014198   14.025098   19.740304 O.3        1 MOL1        -0.5486
     126    H60     25.496796   13.810270   18.912236 H          1 MOL1         0.3769
     127    C1      20.326034   18.350279   23.553365 C.3        1 MOL1        -0.1693
     128    H1      19.890318   17.370292   23.788334 H          1 MOL1         0.0829
     129    H2      21.151532   18.543644   24.248467 H          1 MOL1         0.0829
     130    C2      19.289452   19.507177   23.378833 C.3        1 MOL1        -0.1768
     131    H3      19.713995   20.515588   23.458414 H          1 MOL1         0.0829
     132    H4      18.392701   19.448790   24.005237 H          1 MOL1         0.0829
     133    C3      19.137215   18.978759   21.920738 C.3        1 MOL1         0.1211
     134    H5      18.457904   18.122767   21.836035 H          1 MOL1         0.0786
     135    C4      20.637150   18.584084   22.039014 C.3        1 MOL1        -0.1768
     136    H6      21.335442   19.405076   21.844407 H          1 MOL1         0.0829
     137    H7      20.945967   17.708369   21.459957 H          1 MOL1         0.0829
     138    O1      18.849393   19.942238   20.935165 O.3        1 MOL1        -0.5515
     139    H8      17.927201   20.243325   21.084438 H          1 MOL1         0.3773
@<TRIPOS>BOND
    1     1     2    1
    2     1     3    1
    3     1     4    1
    4     4     5    1
    5     4     6    1
    6     6     7    1
    7     4     8    1
    8     8     9    1
    9     8    10    1
   10    10    11    1
   11     8    12    1
   12    12    13    1
   13    12    14    1
   14    14    15    1
   15     1    16    1
   16    14    16    1
   17    14    17    1
   18    17    18    1
   19    17    19    1
   20    17    20    1
   21    20    21    1
   22    22    23    1
   23    22    24    1
   24    22    25    1
   25    25    26    1
   26    25    27    1
   27    27    28    1
   28    25    29    1
   29    29    30    1
   30    29    31    1
   31    31    32    1
   32     3    33    1
   33    29    33    1
   34    33    34    1
   35    33    35    1
   36    35    36    1
   37    22    37    1
   38    35    37    1
   39    35    38    1
   40    38    39    1
   41    38    40    1
   42    38    41    1
   43    41    42    1
   44    43    44    1
   45    43    45    1
   46    43    46    1
   47    46    47    1
   48    46    48    1
   49    48    49    1
   50    46    50    1
   51    50    51    1
   52    50    52    1
   53    52    53    1
   54    24    54    1
   55    50    54    1
   56    54    55    1
   57    54    56    1
   58    56    57    1
   59    43    58    1
   60    56    58    1
   61    56    59    1
   62    59    60    1
   63    59    61    1
   64    59    62    1
   65    62    63    1
   66    64    65    1
   67    64    66    1
   68    64    67    1
   69    67    68    1
   70    67    69    1
   71    69    70    1
   72    67    71    1
   73    71    72    1
   74    71    73    1
   75    73    74    1
   76    45    75    1
   77    71    75    1
   78    75    76    1
   79    75    77    1
   80    77    78    1
   81    64    79    1
   82    77    79    1
   83    77    80    1
   84    80    81    1
   85    80    82    1
   86    80    83    1
   87    83    84    1
   88    85    86    1
   89    85    87    1
   90    85    88    1
   91    88    89    1
   92    88    90    1
   93    90    91    1
   94    88    92    1
   95    92    93    1
   96    92    94    1
   97    94    95    1
   98    66    96    1
   99    92    96    1
  100    96    97    1
  101    96    98    1
  102    98    99    1
  103    85   100    1
  104    98   100    1
  105    98   101    1
  106   101   102    1
  107   101   103    1
  108   101   104    1
  109   104   105    1
  110   106   107    1
  111    12   108    1
  112   106   108    1
  113   106   109    1
  114   109   110    1
  115   109   111    1
  116   111   112    1
  117   109   113    1
  118   113   114    1
  119   113   115    1
  120   115   116    1
  121    87   117    1
  122   113   117    1
  123   117   118    1
  124   117   119    1
  125   119   120    1
  126   106   121    1
  127   119   121    1
  128   119   122    1
  129   122   123    1
  130   122   124    1
  131   122   125    1
  132   125   126    1
  133   127   128    1
  134   127   129    1
  135   127   130    1
  136   130   131    1
  137   130   132    1
  138   130   133    1
  139   133   134    1
  140   127   135    1
  141   133   135    1
  142   135   136    1
  143   135   137    1
  144   133   138    1
  145   138   139    1
@<TRIPOS>SUBSTRUCTURE
       1 MOL1            1 RESIDUE      1      MOL     
       2 MOL1          139 RESIDUE      1      MOL     
@<SCITEGIC>MOL_PROPERTY
feprocess Rank
SciTegic.value.IntegerValue
25

@<SCITEGIC>MOL_PROPERTY
Conf_Id
SciTegic.value.IntegerValue
807

@<SCITEGIC>MOL_PROPERTY
Probability
SciTegic.value.DoubleValue
0.72

@<SCITEGIC>MOL_PROPERTY
G
SciTegic.value.DoubleValue
546.990

@<SCITEGIC>MOL_PROPERTY
E
SciTegic.value.DoubleValue
368.312

@<SCITEGIC>MOL_PROPERTY
-TS
SciTegic.value.DoubleValue
178.678

@<SCITEGIC>MOL_PROPERTY
U+W
SciTegic.value.DoubleValue
245.801

@<SCITEGIC>MOL_PROPERTY
U
SciTegic.value.DoubleValue
281.061

@<SCITEGIC>MOL_PROPERTY
W
SciTegic.value.DoubleValue
-35.261

@<SCITEGIC>MOL_PROPERTY
W(PB)
SciTegic.value.DoubleValue
-41.245

@<SCITEGIC>MOL_PROPERTY
W(SA)
SciTegic.value.DoubleValue
5.985

@<SCITEGIC>MOL_PROPERTY
Valence
SciTegic.value.DoubleValue
154.040

@<SCITEGIC>MOL_PROPERTY
Coulomb
SciTegic.value.DoubleValue
149.331

@<SCITEGIC>MOL_PROPERTY
VdW
SciTegic.value.DoubleValue
-22.310

@<SCITEGIC>MOL_PROPERTY
VdW6
SciTegic.value.DoubleValue
-169.371

@<SCITEGIC>MOL_PROPERTY
VdW12
SciTegic.value.DoubleValue
147.061

@<SCITEGIC>MOL_PROPERTY
Bond
SciTegic.value.DoubleValue
4.514

@<SCITEGIC>MOL_PROPERTY
Angle
SciTegic.value.DoubleValue
11.739

@<SCITEGIC>MOL_PROPERTY
Pdih
SciTegic.value.DoubleValue
137.787

@<SCITEGIC>MOL_PROPERTY
Idih
SciTegic.value.DoubleValue
0.000

@<SCITEGIC>MOL_PROPERTY
Tether
SciTegic.value.DoubleValue
0.000

@<TRIPOS>MOLECULE
CD_guest-s16_fast_vm2_rndm.mol2 : feprocess host+ligand conformer 26
         139         145           2
SMALL
USER_CHARGES
 
@<TRIPOS>ATOM
       1    C1      16.268414   15.263600   21.407523 C.3        1 MOL1         0.2972
       2    H1      15.178045   15.176720   21.313431 H          1 MOL1         0.0751
       3    O1      16.700956   16.633633   21.308906 O.3        1 MOL1        -0.3740
       4    C2      16.720645   14.709128   22.779032 C.3        1 MOL1         0.1003
       5    H2      16.442739   13.647799   22.817639 H          1 MOL1         0.0783
       6    O2      16.066680   15.412728   23.847596 O.3        1 MOL1        -0.5519
       7    H3      15.674673   16.230227   23.453036 H          1 MOL1         0.3769
       8    C3      18.255057   14.811785   22.922971 C.3        1 MOL1         0.1053
       9    H4      18.515956   15.876112   22.949950 H          1 MOL1         0.0783
      10    O3      18.665414   14.184665   24.141610 O.3        1 MOL1        -0.5519
      11    H5      18.024493   14.504563   24.815664 H          1 MOL1         0.3769
      12    C4      18.982301   14.166638   21.717936 C.3        1 MOL1         0.1018
      13    H6      18.929171   13.074592   21.817119 H          1 MOL1         0.0783
      14    C5      18.382544   14.603480   20.351985 C.3        1 MOL1         0.1043
      15    H7      18.676437   15.645916   20.179414 H          1 MOL1         0.0783
      16    O4      16.933248   14.514362   20.368977 O.3        1 MOL1        -0.3740
      17    C6      18.908814   13.770725   19.159103 C.3        1 MOL1         0.0138
      18    H8      19.971735   14.004239   19.012548 H          1 MOL1         0.0794
      19    H9      18.377487   14.082864   18.249958 H          1 MOL1         0.0794
      20    O5      18.746323   12.363058   19.373422 O.3        1 MOL1        -0.5486
      21    H10     19.074203   11.900048   18.571997 H          1 MOL1         0.3769
      22    C7      15.157702   20.346121   20.137752 C.3        1 MOL1         0.2972
      23    H11     14.577144   21.140203   19.650817 H          1 MOL1         0.0751
      24    O6      16.285762   20.877038   20.854905 O.3        1 MOL1        -0.3740
      25    C8      14.283839   19.536450   21.135625 C.3        1 MOL1         0.1003
      26    H12     13.462692   19.090818   20.559315 H          1 MOL1         0.0783
      27    O7      13.730763   20.378344   22.159374 O.3        1 MOL1        -0.5519
      28    H13     14.487114   20.841768   22.600942 H          1 MOL1         0.3769
      29    C9      15.102220   18.382251   21.768796 C.3        1 MOL1         0.1053
      30    H14     15.893452   18.820964   22.392559 H          1 MOL1         0.0783
      31    O8      14.244175   17.566918   22.574321 O.3        1 MOL1        -0.5519
      32    H15     13.691153   18.201565   23.082786 H          1 MOL1         0.3769
      33    C10     15.772618   17.524925   20.667529 C.3        1 MOL1         0.1018
      34    H16     14.992151   16.978468   20.121458 H          1 MOL1         0.0783
      35    C11     16.563760   18.400496   19.661129 C.3        1 MOL1         0.1043
      36    H17     17.400793   18.870760   20.192604 H          1 MOL1         0.0783
      37    O9      15.673266   19.424399   19.149006 O.3        1 MOL1        -0.3740
      38    C12     17.174727   17.619043   18.469211 C.3        1 MOL1         0.0138
      39    H18     18.178177   17.281657   18.757733 H          1 MOL1         0.0794
      40    H19     17.304898   18.311673   17.627121 H          1 MOL1         0.0794
      41    O10     16.386431   16.491772   18.064559 O.3        1 MOL1        -0.5486
      42    H20     16.455508   15.815084   18.777821 H          1 MOL1         0.3769
      43    C13     18.359016   24.175318   21.986389 C.3        1 MOL1         0.2972
      44    H21     18.769413   25.151547   22.275024 H          1 MOL1         0.0751
      45    O11     19.390754   23.176841   21.842957 O.3        1 MOL1        -0.3740
      46    C14     17.353995   23.690885   23.056280 C.3        1 MOL1         0.1003
      47    H22     16.518580   24.402908   23.075632 H          1 MOL1         0.0783
      48    O12     17.970012   23.644232   24.353341 O.3        1 MOL1        -0.5519
      49    H23     18.947902   23.586196   24.212323 H          1 MOL1         0.3769
      50    C15     16.794172   22.303730   22.676144 C.3        1 MOL1         0.1053
      51    H24     17.616458   21.582397   22.752040 H          1 MOL1         0.0783
      52    O13     15.759729   21.938848   23.594832 O.3        1 MOL1        -0.5519
      53    H25     16.126550   22.150765   24.482446 H          1 MOL1         0.3769
      54    C16     16.254371   22.266267   21.223299 C.3        1 MOL1         0.1018
      55    H26     15.235386   22.675305   21.215027 H          1 MOL1         0.0783
      56    C17     17.153981   23.017139   20.194058 C.3        1 MOL1         0.1043
      57    H27     18.008550   22.369195   19.964579 H          1 MOL1         0.0783
      58    O14     17.652843   24.269196   20.733433 O.3        1 MOL1        -0.3740
      59    C18     16.446182   23.309511   18.849909 C.3        1 MOL1         0.0138
      60    H28     16.307796   22.360125   18.315097 H          1 MOL1         0.0794
      61    H29     17.106726   23.935810   18.235287 H          1 MOL1         0.0794
      62    O15     15.179634   23.953410   19.035034 O.3        1 MOL1        -0.5486
      63    H30     14.827424   24.179890   18.146550 H          1 MOL1         0.3769
      64    C19     23.530525   22.785636   21.675844 C.3        1 MOL1         0.2972
      65    H31     24.611047   22.962317   21.597307 H          1 MOL1         0.0751
      66    O16     23.226498   21.379217   21.751198 O.3        1 MOL1        -0.3740
      67    C20     22.981444   23.444259   22.965708 C.3        1 MOL1         0.1003
      68    H32     23.179300   24.522073   22.899976 H          1 MOL1         0.0783
      69    O17     23.645249   22.907031   24.120831 O.3        1 MOL1        -0.5519
      70    H33     23.975257   22.010403   23.867254 H          1 MOL1         0.3769
      71    C21     21.451356   23.241014   23.078131 C.3        1 MOL1         0.1053
      72    H34     21.258911   22.171717   23.235586 H          1 MOL1         0.0783
      73    O18     20.947548   23.987557   24.189534 O.3        1 MOL1        -0.5519
      74    H35     21.580793   23.811079   24.921256 H          1 MOL1         0.3769
      75    C22     20.738242   23.679105   21.775787 C.3        1 MOL1         0.1018
      76    H36     20.771382   24.774602   21.709073 H          1 MOL1         0.0783
      77    C23     21.404313   23.075150   20.509396 C.3        1 MOL1         0.1043
      78    H37     21.249122   21.992207   20.530250 H          1 MOL1         0.0783
      79    O19     22.829549   23.341371   20.539245 O.3        1 MOL1        -0.3740
      80    C24     20.814667   23.578943   19.166282 C.3        1 MOL1         0.0138
      81    H38     19.980260   22.922463   18.887352 H          1 MOL1         0.0794
      82    H39     21.578406   23.470926   18.384539 H          1 MOL1         0.0794
      83    O20     20.354641   24.934376   19.222344 O.3        1 MOL1        -0.5486
      84    H40     19.488256   24.925993   19.690627 H          1 MOL1         0.3769
      85    C25     24.826001   17.636632   20.798871 C.3        1 MOL1         0.2972
      86    H41     25.458115   16.832674   20.400153 H          1 MOL1         0.0751
      87    O21     23.612186   17.123238   21.379382 O.3        1 MOL1        -0.3740
      88    C26     25.573450   18.432335   21.901283 C.3        1 MOL1         0.1003
      89    H42     26.487426   18.840028   21.450257 H          1 MOL1         0.0783
      90    O22     25.929106   17.578623   23.001284 O.3        1 MOL1        -0.5519
      91    H43     25.123343   17.054622   23.242219 H          1 MOL1         0.3769
      92    C27     24.713784   19.621058   22.399334 C.3        1 MOL1         0.1053
      93    H44     23.836530   19.213919   22.921198 H          1 MOL1         0.0783
      94    O23     25.479688   20.428812   23.299608 O.3        1 MOL1        -0.5519
      95    H45     25.923711   19.790969   23.901851 H          1 MOL1         0.3769
      96    C28     24.212720   20.481377   21.213448 C.3        1 MOL1         0.1018
      97    H46     25.067622   21.017304   20.780293 H          1 MOL1         0.0783
      98    C29     23.542987   19.607956   20.115995 C.3        1 MOL1         0.1043
      99    H47     22.630200   19.164091   20.532251 H          1 MOL1         0.0783
     100    O24     24.462932   18.553867   19.743312 O.3        1 MOL1        -0.3740
     101    C30     23.126581   20.367402   18.829838 C.3        1 MOL1         0.0138
     102    H48     22.098694   20.729031   18.954936 H          1 MOL1         0.0794
     103    H49     23.107218   19.653676   17.995503 H          1 MOL1         0.0794
     104    O25     23.990933   21.465312   18.514286 O.3        1 MOL1        -0.5486
     105    H50     23.760315   22.199388   19.130115 H          1 MOL1         0.3769
     106    C31     21.388538   13.672391   21.768281 C.3        1 MOL1         0.2972
     107    H51     20.996363   12.649598   21.833406 H          1 MOL1         0.0751
     108    O26     20.335780   14.657149   21.760421 O.3        1 MOL1        -0.3740
     109    C32     22.309183   13.980226   22.975185 C.3        1 MOL1         0.1003
     110    H52     23.160622   13.288902   22.927589 H          1 MOL1         0.0783
     111    O27     21.613139   13.787767   24.216992 O.3        1 MOL1        -0.5519
     112    H53     20.679234   14.089696   24.082584 H          1 MOL1         0.3769
     113    C33     22.858972   15.423605   22.879440 C.3        1 MOL1         0.1053
     114    H54     22.016478   16.115695   23.001350 H          1 MOL1         0.0783
     115    O28     23.815696   15.644539   23.921222 O.3        1 MOL1        -0.5519
     116    H55     23.394999   15.281026   24.732214 H          1 MOL1         0.3769
     117    C34     23.514816   15.691887   21.502014 C.3        1 MOL1         0.1018
     118    H56     24.502250   15.211437   21.495018 H          1 MOL1         0.0783
     119    C35     22.660137   15.175885   20.307258 C.3        1 MOL1         0.1043
     120    H57     21.799430   15.846026   20.186499 H          1 MOL1         0.0783
     121    O29     22.177803   13.835173   20.571645 O.3        1 MOL1        -0.3740
     122    C36     23.419337   15.160825   18.958514 C.3        1 MOL1         0.0138
     123    H58     23.550814   16.197170   18.619641 H          1 MOL1         0.0794
     124    H59     22.795282   14.651886   18.211782 H          1 MOL1         0.0794
     125    O30     24.695852   14.517341   19.062139 O.3        1 MOL1        -0.5486
     126    H60     25.083858   14.478694   18.160746 H          1 MOL1         0.3769
     127    C1      20.201011   18.207382   23.540891 C.3        1 MOL1        -0.1693
     128    H1      21.212459   18.362182   23.939567 H          1 MOL1         0.0829
     129    H2      19.727705   17.393779   24.101466 H          1 MOL1         0.0829
     130    C2      20.118752   18.121961   21.979886 C.3        1 MOL1        -0.1768
     131    H3      20.969050   17.660427   21.471865 H          1 MOL1         0.0829
     132    H4      19.194371   17.685306   21.586160 H          1 MOL1         0.0829
     133    C3      20.122792   19.676538   22.031096 C.3        1 MOL1         0.1211
     134    H5      21.122509   20.108931   22.148867 H          1 MOL1         0.0786
     135    C4      19.353840   19.511694   23.375220 C.3        1 MOL1        -0.1768
     136    H6      19.520068   20.295862   24.121810 H          1 MOL1         0.0829
     137    H7      18.274622   19.344539   23.268564 H          1 MOL1         0.0829
     138    O1      19.420932   20.322348   20.997728 O.3        1 MOL1        -0.5515
     139    H8      19.238272   21.234902   21.307440 H          1 MOL1         0.3773
@<TRIPOS>BOND
    1     1     2    1
    2     1     3    1
    3     1     4    1
    4     4     5    1
    5     4     6    1
    6     6     7    1
    7     4     8    1
    8     8     9    1
    9     8    10    1
   10    10    11    1
   11     8    12    1
   12    12    13    1
   13    12    14    1
   14    14    15    1
   15     1    16    1
   16    14    16    1
   17    14    17    1
   18    17    18    1
   19    17    19    1
   20    17    20    1
   21    20    21    1
   22    22    23    1
   23    22    24    1
   24    22    25    1
   25    25    26    1
   26    25    27    1
   27    27    28    1
   28    25    29    1
   29    29    30    1
   30    29    31    1
   31    31    32    1
   32     3    33    1
   33    29    33    1
   34    33    34    1
   35    33    35    1
   36    35    36    1
   37    22    37    1
   38    35    37    1
   39    35    38    1
   40    38    39    1
   41    38    40    1
   42    38    41    1
   43    41    42    1
   44    43    44    1
   45    43    45    1
   46    43    46    1
   47    46    47    1
   48    46    48    1
   49    48    49    1
   50    46    50    1
   51    50    51    1
   52    50    52    1
   53    52    53    1
   54    24    54    1
   55    50    54    1
   56    54    55    1
   57    54    56    1
   58    56    57    1
   59    43    58    1
   60    56    58    1
   61    56    59    1
   62    59    60    1
   63    59    61    1
   64    59    62    1
   65    62    63    1
   66    64    65    1
   67    64    66    1
   68    64    67    1
   69    67    68    1
   70    67    69    1
   71    69    70    1
   72    67    71    1
   73    71    72    1
   74    71    73    1
   75    73    74    1
   76    45    75    1
   77    71    75    1
   78    75    76    1
   79    75    77    1
   80    77    78    1
   81    64    79    1
   82    77    79    1
   83    77    80    1
   84    80    81    1
   85    80    82    1
   86    80    83    1
   87    83    84    1
   88    85    86    1
   89    85    87    1
   90    85    88    1
   91    88    89    1
   92    88    90    1
   93    90    91    1
   94    88    92    1
   95    92    93    1
   96    92    94    1
   97    94    95    1
   98    66    96    1
   99    92    96    1
  100    96    97    1
  101    96    98    1
  102    98    99    1
  103    85   100    1
  104    98   100    1
  105    98   101    1
  106   101   102    1
  107   101   103    1
  108   101   104    1
  109   104   105    1
  110   106   107    1
  111    12   108    1
  112   106   108    1
  113   106   109    1
  114   109   110    1
  115   109   111    1
  116   111   112    1
  117   109   113    1
  118   113   114    1
  119   113   115    1
  120   115   116    1
  121    87   117    1
  122   113   117    1
  123   117   118    1
  124   117   119    1
  125   119   120    1
  126   106   121    1
  127   119   121    1
  128   119   122    1
  129   122   123    1
  130   122   124    1
  131   122   125    1
  132   125   126    1
  133   127   128    1
  134   127   129    1
  135   127   130    1
  136   130   131    1
  137   130   132    1
  138   130   133    1
  139   133   134    1
  140   127   135    1
  141   133   135    1
  142   135   136    1
  143   135   137    1
  144   133   138    1
  145   138   139    1
@<TRIPOS>SUBSTRUCTURE
       1 MOL1            1 RESIDUE      1      MOL     
       2 MOL1          139 RESIDUE      1      MOL     
@<SCITEGIC>MOL_PROPERTY
feprocess Rank
SciTegic.value.IntegerValue
26

@<SCITEGIC>MOL_PROPERTY
Conf_Id
SciTegic.value.IntegerValue
906

@<SCITEGIC>MOL_PROPERTY
Probability
SciTegic.value.DoubleValue
0.70

@<SCITEGIC>MOL_PROPERTY
G
SciTegic.value.DoubleValue
547.012

@<SCITEGIC>MOL_PROPERTY
E
SciTegic.value.DoubleValue
368.688

@<SCITEGIC>MOL_PROPERTY
-TS
SciTegic.value.DoubleValue
178.325

@<SCITEGIC>MOL_PROPERTY
U+W
SciTegic.value.DoubleValue
246.176

@<SCITEGIC>MOL_PROPERTY
U
SciTegic.value.DoubleValue
281.581

@<SCITEGIC>MOL_PROPERTY
W
SciTegic.value.DoubleValue
-35.405

@<SCITEGIC>MOL_PROPERTY
W(PB)
SciTegic.value.DoubleValue
-41.343

@<SCITEGIC>MOL_PROPERTY
W(SA)
SciTegic.value.DoubleValue
5.938

@<SCITEGIC>MOL_PROPERTY
Valence
SciTegic.value.DoubleValue
154.192

@<SCITEGIC>MOL_PROPERTY
Coulomb
SciTegic.value.DoubleValue
149.965

@<SCITEGIC>MOL_PROPERTY
VdW
SciTegic.value.DoubleValue
-22.577

@<SCITEGIC>MOL_PROPERTY
VdW6
SciTegic.value.DoubleValue
-170.085

@<SCITEGIC>MOL_PROPERTY
VdW12
SciTegic.value.DoubleValue
147.509

@<SCITEGIC>MOL_PROPERTY
Bond
SciTegic.value.DoubleValue
4.546

@<SCITEGIC>MOL_PROPERTY
Angle
SciTegic.value.DoubleValue
11.798

@<SCITEGIC>MOL_PROPERTY
Pdih
SciTegic.value.DoubleValue
137.848

@<SCITEGIC>MOL_PROPERTY
Idih
SciTegic.value.DoubleValue
0.000

@<SCITEGIC>MOL_PROPERTY
Tether
SciTegic.value.DoubleValue
0.000

@<TRIPOS>MOLECULE
CD_guest-s16_fast_vm2_rndm.mol2 : feprocess host+ligand conformer 27
         139         145           2
SMALL
USER_CHARGES
 
@<TRIPOS>ATOM
       1    C1      16.048450   15.018536   21.269764 C.3        1 MOL1         0.2972
       2    H1      14.963822   14.888328   21.164041 H          1 MOL1         0.0751
       3    O1      16.409241   16.403856   21.461036 O.3        1 MOL1        -0.3740
       4    C2      16.579741   14.200487   22.471198 C.3        1 MOL1         0.1003
       5    H2      16.380481   13.141433   22.261544 H          1 MOL1         0.0783
       6    O2      15.916117   14.569232   23.690463 O.3        1 MOL1        -0.5519
       7    H3      15.848668   15.557515   23.709013 H          1 MOL1         0.3769
       8    C3      18.109507   14.377929   22.605529 C.3        1 MOL1         0.1053
       9    H4      18.308086   15.424085   22.873270 H          1 MOL1         0.0783
      10    O3      18.599984   13.514990   23.637917 O.3        1 MOL1        -0.5519
      11    H5      17.976134   13.634924   24.387948 H          1 MOL1         0.3769
      12    C4      18.843051   14.069555   21.275218 C.3        1 MOL1         0.1018
      13    H6      18.891482   12.978557   21.163164 H          1 MOL1         0.0783
      14    C5      18.151265   14.706650   20.027684 C.3        1 MOL1         0.1043
      15    H7      18.375598   15.778959   20.019154 H          1 MOL1         0.0783
      16    O4      16.715205   14.525650   20.092513 O.3        1 MOL1        -0.3740
      17    C6      18.612189   14.128261   18.666397 C.3        1 MOL1         0.0138
      18    H8      19.596940   14.539321   18.415996 H          1 MOL1         0.0794
      19    H9      17.918739   14.477602   17.889662 H          1 MOL1         0.0794
      20    O5      18.664626   12.695788   18.672172 O.3        1 MOL1        -0.5486
      21    H10     18.889553   12.402999   17.762147 H          1 MOL1         0.3769
      22    C7      14.886660   20.238188   21.517807 C.3        1 MOL1         0.2972
      23    H11     14.280503   21.153497   21.528245 H          1 MOL1         0.0751
      24    O6      16.287543   20.529229   21.368352 O.3        1 MOL1        -0.3740
      25    C8      14.700515   19.463441   22.843558 C.3        1 MOL1         0.1003
      26    H12     13.643545   19.175313   22.914343 H          1 MOL1         0.0783
      27    O7      15.046440   20.290963   23.966409 O.3        1 MOL1        -0.5519
      28    H13     15.444239   21.118936   23.600631 H          1 MOL1         0.3769
      29    C9      15.555239   18.175655   22.841158 C.3        1 MOL1         0.1053
      30    H14     16.609252   18.471902   22.857823 H          1 MOL1         0.0783
      31    O8      15.261371   17.408773   24.011467 O.3        1 MOL1        -0.5519
      32    H15     15.254002   18.064515   24.744751 H          1 MOL1         0.3769
      33    C10     15.305173   17.327796   21.568812 C.3        1 MOL1         0.1018
      34    H16     14.342277   16.813684   21.687744 H          1 MOL1         0.0783
      35    C11     15.289383   18.171833   20.261811 C.3        1 MOL1         0.1043
      36    H17     16.323092   18.456205   20.034388 H          1 MOL1         0.0783
      37    O9      14.496311   19.375792   20.429100 O.3        1 MOL1        -0.3740
      38    C12     14.750880   17.395140   19.036870 C.3        1 MOL1         0.0138
      39    H18     15.482113   16.621652   18.765739 H          1 MOL1         0.0794
      40    H19     14.677244   18.086373   18.186529 H          1 MOL1         0.0794
      41    O10     13.478775   16.789768   19.299898 O.3        1 MOL1        -0.5486
      42    H20     13.178232   16.356989   18.471200 H          1 MOL1         0.3769
      43    C13     18.742363   23.797812   20.481503 C.3        1 MOL1         0.2972
      44    H21     19.138759   24.731042   20.060893 H          1 MOL1         0.0751
      45    O11     19.756110   23.059910   21.188990 O.3        1 MOL1        -0.3740
      46    C14     17.581314   24.080292   21.473858 C.3        1 MOL1         0.1003
      47    H22     16.796725   24.608050   20.916230 H          1 MOL1         0.0783
      48    O12     18.015420   24.905925   22.566532 O.3        1 MOL1        -0.5519
      49    H23     18.826433   24.487280   22.952268 H          1 MOL1         0.3769
      50    C15     16.979593   22.754727   22.005407 C.3        1 MOL1         0.1053
      51    H24     17.741874   22.249391   22.614681 H          1 MOL1         0.0783
      52    O13     15.826971   23.035009   22.806942 O.3        1 MOL1        -0.5519
      53    H25     16.085531   23.801587   23.366580 H          1 MOL1         0.3769
      54    C16     16.602784   21.821620   20.828158 C.3        1 MOL1         0.1018
      55    H26     15.751719   22.255030   20.286087 H          1 MOL1         0.0783
      56    C17     17.786226   21.637937   19.842445 C.3        1 MOL1         0.1043
      57    H27     18.600268   21.118668   20.364202 H          1 MOL1         0.0783
      58    O14     18.239290   22.948727   19.423793 O.3        1 MOL1        -0.3740
      59    C18     17.448971   20.790013   18.588493 C.3        1 MOL1         0.0138
      60    H28     17.660239   19.737830   18.819378 H          1 MOL1         0.0794
      61    H29     18.129695   21.077661   17.776380 H          1 MOL1         0.0794
      62    O15     16.086167   20.925065   18.163027 O.3        1 MOL1        -0.5486
      63    H30     15.521300   20.514722   18.857826 H          1 MOL1         0.3769
      64    C19     23.719771   22.955323   22.163669 C.3        1 MOL1         0.2972
      65    H31     24.779314   23.109488   22.404944 H          1 MOL1         0.0751
      66    O16     23.386844   21.558706   22.066633 O.3        1 MOL1        -0.3740
      67    C20     22.829098   23.569892   23.267888 C.3        1 MOL1         0.1003
      68    H32     23.008275   24.652900   23.280319 H          1 MOL1         0.0783
      69    O17     23.166189   23.012621   24.548565 O.3        1 MOL1        -0.5519
      70    H33     23.507111   22.098966   24.383248 H          1 MOL1         0.3769
      71    C21     21.335177   23.329656   22.950879 C.3        1 MOL1         0.1053
      72    H34     21.141758   22.253951   23.047595 H          1 MOL1         0.0783
      73    O18     20.524590   24.041236   23.891429 O.3        1 MOL1        -0.5519
      74    H35     20.921422   23.842456   24.768901 H          1 MOL1         0.3769
      75    C22     20.970839   23.763435   21.507526 C.3        1 MOL1         0.1018
      76    H36     20.832613   24.852818   21.497336 H          1 MOL1         0.0783
      77    C23     22.025853   23.341967   20.441357 C.3        1 MOL1         0.1043
      78    H37     21.900663   22.266632   20.261930 H          1 MOL1         0.0783
      79    O19     23.376928   23.584980   20.913177 O.3        1 MOL1        -0.3740
      80    C24     21.850754   24.050467   19.076824 C.3        1 MOL1         0.0138
      81    H38     20.949160   23.654450   18.590261 H          1 MOL1         0.0794
      82    H39     22.705256   23.793515   18.436422 H          1 MOL1         0.0794
      83    O20     21.743450   25.472389   19.216652 O.3        1 MOL1        -0.5486
      84    H40     21.718981   25.859908   18.314480 H          1 MOL1         0.3769
      85    C25     24.977294   17.769762   21.576806 C.3        1 MOL1         0.2972
      86    H41     25.631645   16.902414   21.419668 H          1 MOL1         0.0751
      87    O21     23.590997   17.380963   21.655624 O.3        1 MOL1        -0.3740
      88    C26     25.354992   18.476472   22.901843 C.3        1 MOL1         0.1003
      89    H42     26.397421   18.809719   22.816046 H          1 MOL1         0.0783
      90    O22     25.234964   17.569768   24.009622 O.3        1 MOL1        -0.5519
      91    H43     24.676342   16.813842   23.701152 H          1 MOL1         0.3769
      92    C27     24.468192   19.722281   23.124039 C.3        1 MOL1         0.1053
      93    H44     23.438580   19.378202   23.281199 H          1 MOL1         0.0783
      94    O23     24.917233   20.440332   24.277919 O.3        1 MOL1        -0.5519
      95    H45     25.067120   19.749727   24.961801 H          1 MOL1         0.3769
      96    C28     24.481159   20.647011   21.883804 C.3        1 MOL1         0.1018
      97    H46     25.451360   21.158411   21.834064 H          1 MOL1         0.0783
      98    C29     24.228524   19.867964   20.562275 C.3        1 MOL1         0.1043
      99    H47     23.190624   19.519485   20.576602 H          1 MOL1         0.0783
     100    O24     25.112575   18.719400   20.495095 O.3        1 MOL1        -0.3740
     101    C30     24.393099   20.704402   19.266119 C.3        1 MOL1         0.0138
     102    H48     23.420635   21.141970   19.008269 H          1 MOL1         0.0794
     103    H49     24.662018   20.027954   18.443704 H          1 MOL1         0.0794
     104    O25     25.367534   21.747199   19.382552 O.3        1 MOL1        -0.5486
     105    H50     24.935590   22.489258   19.865272 H          1 MOL1         0.3769
     106    C31     21.229680   14.026864   20.698951 C.3        1 MOL1         0.2972
     107    H51     20.915403   13.075669   20.250212 H          1 MOL1         0.0751
     108    O26     20.157404   14.639391   21.439160 O.3        1 MOL1        -0.3740
     109    C32     22.392202   13.790574   21.700076 C.3        1 MOL1         0.1003
     110    H52     23.195960   13.275135   21.158496 H          1 MOL1         0.0783
     111    O27     21.946767   12.969337   22.791498 O.3        1 MOL1        -0.5519
     112    H53     21.055212   13.308199   23.047763 H          1 MOL1         0.3769
     113    C33     22.957196   15.129430   22.240381 C.3        1 MOL1         0.1053
     114    H54     22.191948   15.593998   22.877441 H          1 MOL1         0.0783
     115    O28     24.139996   14.877735   23.006814 O.3        1 MOL1        -0.5519
     116    H55     23.912443   14.118776   23.589046 H          1 MOL1         0.3769
     117    C34     23.270441   16.102461   21.079346 C.3        1 MOL1         0.1018
     118    H56     24.105525   15.698970   20.491137 H          1 MOL1         0.0783
     119    C35     22.040303   16.266827   20.149865 C.3        1 MOL1         0.1043
     120    H57     21.211260   16.695741   20.727193 H          1 MOL1         0.0783
     121    O29     21.670634   14.950867   19.678420 O.3        1 MOL1        -0.3740
     122    C36     22.267341   17.187557   18.923794 C.3        1 MOL1         0.0138
     123    H58     22.033104   18.218546   19.216511 H          1 MOL1         0.0794
     124    H59     21.546787   16.911518   18.142532 H          1 MOL1         0.0794
     125    O30     23.603105   17.122182   18.408115 O.3        1 MOL1        -0.5486
     126    H60     24.191735   17.563674   19.063460 H          1 MOL1         0.3769
     127    C1      20.485728   19.264914   23.675920 C.3        1 MOL1        -0.1693
     128    H1      19.971835   20.091282   24.184489 H          1 MOL1         0.0829
     129    H2      21.406593   19.036338   24.223505 H          1 MOL1         0.0829
     130    C2      20.619263   19.432046   22.125948 C.3        1 MOL1        -0.1768
     131    H3      20.742982   20.450794   21.748183 H          1 MOL1         0.0829
     132    H4      21.372538   18.790823   21.662603 H          1 MOL1         0.0829
     133    C3      19.172920   18.864910   22.072396 C.3        1 MOL1         0.1211
     134    H5      18.406354   19.622207   22.272104 H          1 MOL1         0.0786
     135    C4      19.577278   18.039159   23.328931 C.3        1 MOL1        -0.1768
     136    H6      18.771522   17.818758   24.037485 H          1 MOL1         0.0829
     137    H7      20.121276   17.111747   23.110823 H          1 MOL1         0.0829
     138    O1      18.849931   18.112009   20.927484 O.3        1 MOL1        -0.5515
     139    H8      18.071114   17.560937   21.159014 H          1 MOL1         0.3773
@<TRIPOS>BOND
    1     1     2    1
    2     1     3    1
    3     1     4    1
    4     4     5    1
    5     4     6    1
    6     6     7    1
    7     4     8    1
    8     8     9    1
    9     8    10    1
   10    10    11    1
   11     8    12    1
   12    12    13    1
   13    12    14    1
   14    14    15    1
   15     1    16    1
   16    14    16    1
   17    14    17    1
   18    17    18    1
   19    17    19    1
   20    17    20    1
   21    20    21    1
   22    22    23    1
   23    22    24    1
   24    22    25    1
   25    25    26    1
   26    25    27    1
   27    27    28    1
   28    25    29    1
   29    29    30    1
   30    29    31    1
   31    31    32    1
   32     3    33    1
   33    29    33    1
   34    33    34    1
   35    33    35    1
   36    35    36    1
   37    22    37    1
   38    35    37    1
   39    35    38    1
   40    38    39    1
   41    38    40    1
   42    38    41    1
   43    41    42    1
   44    43    44    1
   45    43    45    1
   46    43    46    1
   47    46    47    1
   48    46    48    1
   49    48    49    1
   50    46    50    1
   51    50    51    1
   52    50    52    1
   53    52    53    1
   54    24    54    1
   55    50    54    1
   56    54    55    1
   57    54    56    1
   58    56    57    1
   59    43    58    1
   60    56    58    1
   61    56    59    1
   62    59    60    1
   63    59    61    1
   64    59    62    1
   65    62    63    1
   66    64    65    1
   67    64    66    1
   68    64    67    1
   69    67    68    1
   70    67    69    1
   71    69    70    1
   72    67    71    1
   73    71    72    1
   74    71    73    1
   75    73    74    1
   76    45    75    1
   77    71    75    1
   78    75    76    1
   79    75    77    1
   80    77    78    1
   81    64    79    1
   82    77    79    1
   83    77    80    1
   84    80    81    1
   85    80    82    1
   86    80    83    1
   87    83    84    1
   88    85    86    1
   89    85    87    1
   90    85    88    1
   91    88    89    1
   92    88    90    1
   93    90    91    1
   94    88    92    1
   95    92    93    1
   96    92    94    1
   97    94    95    1
   98    66    96    1
   99    92    96    1
  100    96    97    1
  101    96    98    1
  102    98    99    1
  103    85   100    1
  104    98   100    1
  105    98   101    1
  106   101   102    1
  107   101   103    1
  108   101   104    1
  109   104   105    1
  110   106   107    1
  111    12   108    1
  112   106   108    1
  113   106   109    1
  114   109   110    1
  115   109   111    1
  116   111   112    1
  117   109   113    1
  118   113   114    1
  119   113   115    1
  120   115   116    1
  121    87   117    1
  122   113   117    1
  123   117   118    1
  124   117   119    1
  125   119   120    1
  126   106   121    1
  127   119   121    1
  128   119   122    1
  129   122   123    1
  130   122   124    1
  131   122   125    1
  132   125   126    1
  133   127   128    1
  134   127   129    1
  135   127   130    1
  136   130   131    1
  137   130   132    1
  138   130   133    1
  139   133   134    1
  140   127   135    1
  141   133   135    1
  142   135   136    1
  143   135   137    1
  144   133   138    1
  145   138   139    1
@<TRIPOS>SUBSTRUCTURE
       1 MOL1            1 RESIDUE      1      MOL     
       2 MOL1          139 RESIDUE      1      MOL     
@<SCITEGIC>MOL_PROPERTY
feprocess Rank
SciTegic.value.IntegerValue
27

@<SCITEGIC>MOL_PROPERTY
Conf_Id
SciTegic.value.IntegerValue
926

@<SCITEGIC>MOL_PROPERTY
Probability
SciTegic.value.DoubleValue
0.64

@<SCITEGIC>MOL_PROPERTY
G
SciTegic.value.DoubleValue
547.063

@<SCITEGIC>MOL_PROPERTY
E
SciTegic.value.DoubleValue
368.903

@<SCITEGIC>MOL_PROPERTY
-TS
SciTegic.value.DoubleValue
178.160

@<SCITEGIC>MOL_PROPERTY
U+W
SciTegic.value.DoubleValue
246.392

@<SCITEGIC>MOL_PROPERTY
U
SciTegic.value.DoubleValue
280.878

@<SCITEGIC>MOL_PROPERTY
W
SciTegic.value.DoubleValue
-34.487

@<SCITEGIC>MOL_PROPERTY
W(PB)
SciTegic.value.DoubleValue
-40.432

@<SCITEGIC>MOL_PROPERTY
W(SA)
SciTegic.value.DoubleValue
5.945

@<SCITEGIC>MOL_PROPERTY
Valence
SciTegic.value.DoubleValue
153.454

@<SCITEGIC>MOL_PROPERTY
Coulomb
SciTegic.value.DoubleValue
150.071

@<SCITEGIC>MOL_PROPERTY
VdW
SciTegic.value.DoubleValue
-22.647

@<SCITEGIC>MOL_PROPERTY
VdW6
SciTegic.value.DoubleValue
-169.243

@<SCITEGIC>MOL_PROPERTY
VdW12
SciTegic.value.DoubleValue
146.596

@<SCITEGIC>MOL_PROPERTY
Bond
SciTegic.value.DoubleValue
4.532

@<SCITEGIC>MOL_PROPERTY
Angle
SciTegic.value.DoubleValue
11.731

@<SCITEGIC>MOL_PROPERTY
Pdih
SciTegic.value.DoubleValue
137.190

@<SCITEGIC>MOL_PROPERTY
Idih
SciTegic.value.DoubleValue
0.000

@<SCITEGIC>MOL_PROPERTY
Tether
SciTegic.value.DoubleValue
0.000

@<TRIPOS>MOLECULE
CD_guest-s16_fast_vm2_rndm.mol2 : feprocess host+ligand conformer 28
         139         145           2
SMALL
USER_CHARGES
 
@<TRIPOS>ATOM
       1    C1      16.371313   15.280302   20.302483 C.3        1 MOL1         0.2972
       2    H1      15.380299   15.164660   19.845101 H          1 MOL1         0.0751
       3    O1      16.599234   16.641044   20.727395 O.3        1 MOL1        -0.3740
       4    C2      16.555125   14.309627   21.502753 C.3        1 MOL1         0.1003
       5    H2      16.479668   13.289905   21.103169 H          1 MOL1         0.0783
       6    O2      15.542091   14.485046   22.503879 O.3        1 MOL1        -0.5519
       7    H3      15.653621   15.398749   22.869410 H          1 MOL1         0.3769
       8    C3      17.966063   14.471712   22.119360 C.3        1 MOL1         0.1053
       9    H4      18.034926   15.476408   22.558157 H          1 MOL1         0.0783
      10    O3      18.165217   13.484964   23.136838 O.3        1 MOL1        -0.5519
      11    H5      17.334527   13.483766   23.662325 H          1 MOL1         0.3769
      12    C4      19.061898   14.335831   21.032334 C.3        1 MOL1         0.1018
      13    H6      19.125160   13.281469   20.732622 H          1 MOL1         0.0783
      14    C5      18.762095   15.204670   19.777224 C.3        1 MOL1         0.1043
      15    H7      18.864149   16.261196   20.055318 H          1 MOL1         0.0783
      16    O4      17.401289   14.955356   19.341665 O.3        1 MOL1        -0.3740
      17    C6      19.715332   14.966533   18.576082 C.3        1 MOL1         0.0138
      18    H8      20.544752   15.680841   18.642364 H          1 MOL1         0.0794
      19    H9      19.174363   15.201873   17.649783 H          1 MOL1         0.0794
      20    O5      20.234125   13.632060   18.513717 O.3        1 MOL1        -0.5486
      21    H10     20.889877   13.538907   19.243923 H          1 MOL1         0.3769
      22    C7      14.849610   20.251175   21.678513 C.3        1 MOL1         0.2972
      23    H11     14.184579   21.083146   21.943568 H          1 MOL1         0.0751
      24    O6      16.156852   20.719985   21.290093 O.3        1 MOL1        -0.3740
      25    C8      14.991153   19.275113   22.874559 C.3        1 MOL1         0.1003
      26    H12     13.987501   18.889416   23.096265 H          1 MOL1         0.0783
      27    O7      15.510036   19.934297   24.041097 O.3        1 MOL1        -0.5519
      28    H13     15.488340   20.905381   23.860667 H          1 MOL1         0.3769
      29    C9      15.894672   18.077432   22.505711 C.3        1 MOL1         0.1053
      30    H14     16.913423   18.456312   22.369634 H          1 MOL1         0.0783
      31    O8      15.875058   17.134257   23.581095 O.3        1 MOL1        -0.5519
      32    H15     16.009285   17.681007   24.388141 H          1 MOL1         0.3769
      33    C10     15.460674   17.401268   21.180718 C.3        1 MOL1         0.1018
      34    H16     14.587480   16.765050   21.376215 H          1 MOL1         0.0783
      35    C11     15.131909   18.430383   20.060295 C.3        1 MOL1         0.1043
      36    H17     16.079247   18.854177   19.702853 H          1 MOL1         0.0783
      37    O9      14.300691   19.503390   20.573192 O.3        1 MOL1        -0.3740
      38    C12     14.424172   17.803381   18.835318 C.3        1 MOL1         0.0138
      39    H18     15.150165   17.180928   18.294976 H          1 MOL1         0.0794
      40    H19     14.118183   18.610771   18.156567 H          1 MOL1         0.0794
      41    O10     13.290443   17.011391   19.211133 O.3        1 MOL1        -0.5486
      42    H20     12.846650   16.715768   18.386239 H          1 MOL1         0.3769
      43    C13     18.407876   24.215600   21.308043 C.3        1 MOL1         0.2972
      44    H21     18.779133   25.242663   21.200742 H          1 MOL1         0.0751
      45    O11     19.449268   23.313435   21.726266 O.3        1 MOL1        -0.3740
      46    C14     17.300037   24.166270   22.387396 C.3        1 MOL1         0.1003
      47    H22     16.492113   24.834954   22.062820 H          1 MOL1         0.0783
      48    O12     17.816981   24.619714   23.648971 O.3        1 MOL1        -0.5519
      49    H23     18.753557   24.306378   23.702532 H          1 MOL1         0.3769
      50    C15     16.714594   22.739361   22.529267 C.3        1 MOL1         0.1053
      51    H24     17.488340   22.095551   22.966724 H          1 MOL1         0.0783
      52    O13     15.582204   22.793755   23.403293 O.3        1 MOL1        -0.5519
      53    H25     15.857681   23.390917   24.135821 H          1 MOL1         0.3769
      54    C16     16.315092   22.146264   21.150776 C.3        1 MOL1         0.1018
      55    H26     15.387633   22.623178   20.808932 H          1 MOL1         0.0783
      56    C17     17.418507   22.354109   20.077439 C.3        1 MOL1         0.1043
      57    H27     18.270522   21.716041   20.340286 H          1 MOL1         0.0783
      58    O14     17.852051   23.737225   20.065153 O.3        1 MOL1        -0.3740
      59    C18     16.980732   21.950503   18.647231 C.3        1 MOL1         0.0138
      60    H28     16.968417   20.854316   18.583218 H          1 MOL1         0.0794
      61    H29     17.736902   22.307170   17.935657 H          1 MOL1         0.0794
      62    O15     15.692465   22.467109   18.293327 O.3        1 MOL1        -0.5486
      63    H30     15.022048   21.947608   18.787480 H          1 MOL1         0.3769
      64    C19     23.590706   22.803901   21.571504 C.3        1 MOL1         0.2972
      65    H31     24.668910   22.979579   21.465748 H          1 MOL1         0.0751
      66    O16     23.303910   21.411357   21.811477 O.3        1 MOL1        -0.3740
      67    C20     23.049952   23.614392   22.775549 C.3        1 MOL1         0.1003
      68    H32     23.273454   24.673231   22.591112 H          1 MOL1         0.0783
      69    O17     23.698347   23.193698   23.986618 O.3        1 MOL1        -0.5519
      70    H33     23.953213   22.247306   23.858199 H          1 MOL1         0.3769
      71    C21     21.515797   23.463557   22.903573 C.3        1 MOL1         0.1053
      72    H34     21.302198   22.424169   23.185248 H          1 MOL1         0.0783
      73    O18     21.026101   24.349007   23.916699 O.3        1 MOL1        -0.5519
      74    H35     21.633757   24.225128   24.679422 H          1 MOL1         0.3769
      75    C22     20.807573   23.759373   21.559055 C.3        1 MOL1         0.1018
      76    H36     20.868449   24.838041   21.363564 H          1 MOL1         0.0783
      77    C23     21.456397   22.970376   20.387230 C.3        1 MOL1         0.1043
      78    H37     21.274843   21.903020   20.561612 H          1 MOL1         0.0783
      79    O19     22.885869   23.214837   20.379860 O.3        1 MOL1        -0.3740
      80    C24     20.899747   23.298725   18.978616 C.3        1 MOL1         0.0138
      81    H38     20.014041   22.676595   18.799901 H          1 MOL1         0.0794
      82    H39     21.648437   23.007543   18.229860 H          1 MOL1         0.0794
      83    O20     20.557049   24.678544   18.815183 O.3        1 MOL1        -0.5486
      84    H40     19.611286   24.764494   19.070894 H          1 MOL1         0.3769
      85    C25     24.921074   17.612344   21.095887 C.3        1 MOL1         0.2972
      86    H41     25.572299   16.786699   20.781027 H          1 MOL1         0.0751
      87    O21     23.637850   17.137759   21.541368 O.3        1 MOL1        -0.3740
      88    C26     25.564010   18.416917   22.256901 C.3        1 MOL1         0.1003
      89    H42     26.528601   18.797246   21.896492 H          1 MOL1         0.0783
      90    O22     25.785592   17.581601   23.404835 O.3        1 MOL1        -0.5519
      91    H43     24.933357   17.114794   23.600386 H          1 MOL1         0.3769
      92    C27     24.683661   19.632994   22.640037 C.3        1 MOL1         0.1053
      93    H44     23.755468   19.251737   23.086249 H          1 MOL1         0.0783
      94    O23     25.375779   20.449265   23.591080 O.3        1 MOL1        -0.5519
      95    H45     25.732797   19.821015   24.257525 H          1 MOL1         0.3769
      96    C28     24.318723   20.476700   21.392567 C.3        1 MOL1         0.1018
      97    H46     25.227949   20.984871   21.045240 H          1 MOL1         0.0783
      98    C29     23.757424   19.591744   20.243711 C.3        1 MOL1         0.1043
      99    H47     22.796291   19.171230   20.564533 H          1 MOL1         0.0783
     100    O24     24.693329   18.515402   19.992020 O.3        1 MOL1        -0.3740
     101    C30     23.499164   20.327363   18.904323 C.3        1 MOL1         0.0138
     102    H48     22.487127   20.748675   18.927455 H          1 MOL1         0.0794
     103    H49     23.514294   19.587550   18.092879 H          1 MOL1         0.0794
     104    O25     24.446856   21.366546   18.636672 O.3        1 MOL1        -0.5486
     105    H50     24.138114   22.163692   19.126409 H          1 MOL1         0.3769
     106    C31     21.286946   13.799453   21.882340 C.3        1 MOL1         0.2972
     107    H51     20.837232   12.803721   21.989178 H          1 MOL1         0.0751
     108    O26     20.289739   14.805144   21.617648 O.3        1 MOL1        -0.3740
     109    C32     22.026729   14.183023   23.185709 C.3        1 MOL1         0.1003
     110    H52     22.833910   13.454892   23.338438 H          1 MOL1         0.0783
     111    O27     21.122947   14.133796   24.300503 O.3        1 MOL1        -0.5519
     112    H53     20.224765   14.327924   23.941493 H          1 MOL1         0.3769
     113    C33     22.663364   15.586340   23.060207 C.3        1 MOL1         0.1053
     114    H54     21.849830   16.320910   23.015156 H          1 MOL1         0.0783
     115    O28     23.482840   15.849478   24.204409 O.3        1 MOL1        -0.5519
     116    H55     22.895253   15.693243   24.976508 H          1 MOL1         0.3769
     117    C34     23.513553   15.721965   21.772569 C.3        1 MOL1         0.1018
     118    H56     24.486991   15.244737   21.947637 H          1 MOL1         0.0783
     119    C35     22.832310   15.114269   20.511426 C.3        1 MOL1         0.1043
     120    H57     22.038627   15.805398   20.206441 H          1 MOL1         0.0783
     121    O29     22.242168   13.820543   20.802175 O.3        1 MOL1        -0.3740
     122    C36     23.784100   14.954773   19.301711 C.3        1 MOL1         0.0138
     123    H58     24.017119   15.952261   18.905456 H          1 MOL1         0.0794
     124    H59     23.256360   14.406314   18.509798 H          1 MOL1         0.0794
     125    O30     24.995538   14.276252   19.654922 O.3        1 MOL1        -0.5486
     126    H60     25.510634   14.136797   18.830378 H          1 MOL1         0.3769
     127    C1      19.418083   19.367394   21.219078 C.3        1 MOL1        -0.1693
     128    H1      20.036845   19.935804   20.514804 H          1 MOL1         0.0829
     129    H2      18.435390   19.198772   20.764877 H          1 MOL1         0.0829
     130    C2      19.420721   19.908885   22.688203 C.3        1 MOL1        -0.1768
     131    H3      18.591597   19.563503   23.316684 H          1 MOL1         0.0829
     132    H4      19.518570   20.989405   22.807877 H          1 MOL1         0.0829
     133    C3      20.734646   19.093943   22.856507 C.3        1 MOL1         0.1211
     134    H5      21.624844   19.616255   22.491014 H          1 MOL1         0.0786
     135    C4      20.114292   18.107832   21.824035 C.3        1 MOL1        -0.1768
     136    H6      19.431017   17.371548   22.262866 H          1 MOL1         0.0829
     137    H7      20.825011   17.590149   21.173605 H          1 MOL1         0.0829
     138    O1      20.960062   18.565636   24.141529 O.3        1 MOL1        -0.5515
     139    H8      21.159226   19.316220   24.735881 H          1 MOL1         0.3773
@<TRIPOS>BOND
    1     1     2    1
    2     1     3    1
    3     1     4    1
    4     4     5    1
    5     4     6    1
    6     6     7    1
    7     4     8    1
    8     8     9    1
    9     8    10    1
   10    10    11    1
   11     8    12    1
   12    12    13    1
   13    12    14    1
   14    14    15    1
   15     1    16    1
   16    14    16    1
   17    14    17    1
   18    17    18    1
   19    17    19    1
   20    17    20    1
   21    20    21    1
   22    22    23    1
   23    22    24    1
   24    22    25    1
   25    25    26    1
   26    25    27    1
   27    27    28    1
   28    25    29    1
   29    29    30    1
   30    29    31    1
   31    31    32    1
   32     3    33    1
   33    29    33    1
   34    33    34    1
   35    33    35    1
   36    35    36    1
   37    22    37    1
   38    35    37    1
   39    35    38    1
   40    38    39    1
   41    38    40    1
   42    38    41    1
   43    41    42    1
   44    43    44    1
   45    43    45    1
   46    43    46    1
   47    46    47    1
   48    46    48    1
   49    48    49    1
   50    46    50    1
   51    50    51    1
   52    50    52    1
   53    52    53    1
   54    24    54    1
   55    50    54    1
   56    54    55    1
   57    54    56    1
   58    56    57    1
   59    43    58    1
   60    56    58    1
   61    56    59    1
   62    59    60    1
   63    59    61    1
   64    59    62    1
   65    62    63    1
   66    64    65    1
   67    64    66    1
   68    64    67    1
   69    67    68    1
   70    67    69    1
   71    69    70    1
   72    67    71    1
   73    71    72    1
   74    71    73    1
   75    73    74    1
   76    45    75    1
   77    71    75    1
   78    75    76    1
   79    75    77    1
   80    77    78    1
   81    64    79    1
   82    77    79    1
   83    77    80    1
   84    80    81    1
   85    80    82    1
   86    80    83    1
   87    83    84    1
   88    85    86    1
   89    85    87    1
   90    85    88    1
   91    88    89    1
   92    88    90    1
   93    90    91    1
   94    88    92    1
   95    92    93    1
   96    92    94    1
   97    94    95    1
   98    66    96    1
   99    92    96    1
  100    96    97    1
  101    96    98    1
  102    98    99    1
  103    85   100    1
  104    98   100    1
  105    98   101    1
  106   101   102    1
  107   101   103    1
  108   101   104    1
  109   104   105    1
  110   106   107    1
  111    12   108    1
  112   106   108    1
  113   106   109    1
  114   109   110    1
  115   109   111    1
  116   111   112    1
  117   109   113    1
  118   113   114    1
  119   113   115    1
  120   115   116    1
  121    87   117    1
  122   113   117    1
  123   117   118    1
  124   117   119    1
  125   119   120    1
  126   106   121    1
  127   119   121    1
  128   119   122    1
  129   122   123    1
  130   122   124    1
  131   122   125    1
  132   125   126    1
  133   127   128    1
  134   127   129    1
  135   127   130    1
  136   130   131    1
  137   130   132    1
  138   130   133    1
  139   133   134    1
  140   127   135    1
  141   133   135    1
  142   135   136    1
  143   135   137    1
  144   133   138    1
  145   138   139    1
@<TRIPOS>SUBSTRUCTURE
       1 MOL1            1 RESIDUE      1      MOL     
       2 MOL1          139 RESIDUE      1      MOL     
@<SCITEGIC>MOL_PROPERTY
feprocess Rank
SciTegic.value.IntegerValue
28

@<SCITEGIC>MOL_PROPERTY
Conf_Id
SciTegic.value.IntegerValue
522

@<SCITEGIC>MOL_PROPERTY
Probability
SciTegic.value.DoubleValue
0.63

@<SCITEGIC>MOL_PROPERTY
G
SciTegic.value.DoubleValue
547.069

@<SCITEGIC>MOL_PROPERTY
E
SciTegic.value.DoubleValue
369.725

@<SCITEGIC>MOL_PROPERTY
-TS
SciTegic.value.DoubleValue
177.344

@<SCITEGIC>MOL_PROPERTY
U+W
SciTegic.value.DoubleValue
247.213

@<SCITEGIC>MOL_PROPERTY
U
SciTegic.value.DoubleValue
286.571

@<SCITEGIC>MOL_PROPERTY
W
SciTegic.value.DoubleValue
-39.358

@<SCITEGIC>MOL_PROPERTY
W(PB)
SciTegic.value.DoubleValue
-45.324

@<SCITEGIC>MOL_PROPERTY
W(SA)
SciTegic.value.DoubleValue
5.966

@<SCITEGIC>MOL_PROPERTY
Valence
SciTegic.value.DoubleValue
153.065

@<SCITEGIC>MOL_PROPERTY
Coulomb
SciTegic.value.DoubleValue
156.110

@<SCITEGIC>MOL_PROPERTY
VdW
SciTegic.value.DoubleValue
-22.603

@<SCITEGIC>MOL_PROPERTY
VdW6
SciTegic.value.DoubleValue
-169.283

@<SCITEGIC>MOL_PROPERTY
VdW12
SciTegic.value.DoubleValue
146.680

@<SCITEGIC>MOL_PROPERTY
Bond
SciTegic.value.DoubleValue
4.554

@<SCITEGIC>MOL_PROPERTY
Angle
SciTegic.value.DoubleValue
12.038

@<SCITEGIC>MOL_PROPERTY
Pdih
SciTegic.value.DoubleValue
136.473

@<SCITEGIC>MOL_PROPERTY
Idih
SciTegic.value.DoubleValue
0.000

@<SCITEGIC>MOL_PROPERTY
Tether
SciTegic.value.DoubleValue
0.000

@<TRIPOS>MOLECULE
CD_guest-s16_fast_vm2_rndm.mol2 : feprocess host+ligand conformer 29
         139         145           2
SMALL
USER_CHARGES
 
@<TRIPOS>ATOM
       1    C1      16.325028   15.326404   20.641528 C.3        1 MOL1         0.2972
       2    H1      15.307306   15.178802   20.257593 H          1 MOL1         0.0751
       3    O1      16.511460   16.659420   21.158533 O.3        1 MOL1        -0.3740
       4    C2      16.642574   14.321600   21.782153 C.3        1 MOL1         0.1003
       5    H2      16.546814   13.311506   21.363093 H          1 MOL1         0.0783
       6    O2      15.722756   14.463346   22.876286 O.3        1 MOL1        -0.5519
       7    H3      15.701094   15.422392   23.124852 H          1 MOL1         0.3769
       8    C3      18.101224   14.496739   22.275337 C.3        1 MOL1         0.1053
       9    H4      18.185014   15.482967   22.751481 H          1 MOL1         0.0783
      10    O3      18.416835   13.474560   23.226382 O.3        1 MOL1        -0.5519
      11    H5      17.627365   13.416317   23.810266 H          1 MOL1         0.3769
      12    C4      19.091157   14.443950   21.084567 C.3        1 MOL1         0.1018
      13    H6      19.129185   13.416546   20.698972 H          1 MOL1         0.0783
      14    C5      18.666488   15.398892   19.935849 C.3        1 MOL1         0.1043
      15    H7      18.742450   16.433516   20.291183 H          1 MOL1         0.0783
      16    O4      17.289769   15.118190   19.583953 O.3        1 MOL1        -0.3740
      17    C6      19.548236   15.303972   18.663425 C.3        1 MOL1         0.0138
      18    H8      20.362102   16.034677   18.755829 H          1 MOL1         0.0794
      19    H9      18.947601   15.609247   17.796415 H          1 MOL1         0.0794
      20    O5      20.097878   13.997086   18.448644 O.3        1 MOL1        -0.5486
      21    H10     20.758796   13.838919   19.161664 H          1 MOL1         0.3769
      22    C7      14.680500   20.309853   21.661603 C.3        1 MOL1         0.2972
      23    H11     14.004023   21.165354   21.785597 H          1 MOL1         0.0751
      24    O6      16.052703   20.728881   21.545985 O.3        1 MOL1        -0.3740
      25    C8      14.574043   19.372872   22.887681 C.3        1 MOL1         0.1003
      26    H12     13.542110   19.001448   22.935696 H          1 MOL1         0.0783
      27    O7      14.879974   20.092755   24.092764 O.3        1 MOL1        -0.5519
      28    H13     15.451292   20.855820   23.831171 H          1 MOL1         0.3769
      29    C9      15.517037   18.157593   22.730834 C.3        1 MOL1         0.1053
      30    H14     16.548619   18.524056   22.784995 H          1 MOL1         0.0783
      31    O8      15.284992   17.233170   23.798150 O.3        1 MOL1        -0.5519
      32    H15     15.253064   17.787813   24.609610 H          1 MOL1         0.3769
      33    C10     15.324580   17.449776   21.365923 C.3        1 MOL1         0.1018
      34    H16     14.419589   16.830094   21.420241 H          1 MOL1         0.0783
      35    C11     15.227241   18.443063   20.171197 C.3        1 MOL1         0.1043
      36    H17     16.235218   18.833772   19.985146 H          1 MOL1         0.0783
      37    O9      14.341772   19.550792   20.482689 O.3        1 MOL1        -0.3740
      38    C12     14.743793   17.786896   18.855861 C.3        1 MOL1         0.0138
      39    H18     15.541891   17.134052   18.477214 H          1 MOL1         0.0794
      40    H19     14.586016   18.575385   18.107691 H          1 MOL1         0.0794
      41    O10     13.542312   17.028464   19.041573 O.3        1 MOL1        -0.5486
      42    H20     13.252119   16.708966   18.159353 H          1 MOL1         0.3769
      43    C13     18.449984   24.023718   20.716816 C.3        1 MOL1         0.2972
      44    H21     18.854981   24.991854   20.395135 H          1 MOL1         0.0751
      45    O11     19.504293   23.096485   21.053977 O.3        1 MOL1        -0.3740
      46    C14     17.490429   24.187084   21.928243 C.3        1 MOL1         0.1003
      47    H22     16.649646   24.806768   21.590236 H          1 MOL1         0.0783
      48    O12     18.124314   24.841170   23.036887 O.3        1 MOL1        -0.5519
      49    H23     18.876717   24.264073   23.323070 H          1 MOL1         0.3769
      50    C15     16.922116   22.810533   22.352964 C.3        1 MOL1         0.1053
      51    H24     17.753866   22.191383   22.716223 H          1 MOL1         0.0783
      52    O13     15.955122   22.982379   23.394576 O.3        1 MOL1        -0.5519
      53    H25     16.357679   23.629707   24.015374 H          1 MOL1         0.3769
      54    C16     16.271616   22.092190   21.145031 C.3        1 MOL1         0.1018
      55    H26     15.333700   22.606640   20.897980 H          1 MOL1         0.0783
      56    C17     17.196976   22.084230   19.894996 C.3        1 MOL1         0.1043
      57    H27     18.053368   21.432582   20.103658 H          1 MOL1         0.0783
      58    O14     17.676349   23.430794   19.647932 O.3        1 MOL1        -0.3740
      59    C18     16.536403   21.542602   18.599707 C.3        1 MOL1         0.0138
      60    H28     16.724919   20.463611   18.538789 H          1 MOL1         0.0794
      61    H29     17.037363   21.998670   17.735390 H          1 MOL1         0.0794
      62    O15     15.125802   21.784819   18.533526 O.3        1 MOL1        -0.5486
      63    H30     14.693658   21.139367   19.140309 H          1 MOL1         0.3769
      64    C19     23.506524   22.662315   21.954659 C.3        1 MOL1         0.2972
      65    H31     24.564542   22.777540   22.223367 H          1 MOL1         0.0751
      66    O16     23.220935   21.332755   21.476856 O.3        1 MOL1        -0.3740
      67    C20     22.607874   22.955707   23.181051 C.3        1 MOL1         0.1003
      68    H32     22.791798   23.996541   23.477766 H          1 MOL1         0.0783
      69    O17     22.921750   22.088128   24.283191 O.3        1 MOL1        -0.5519
      70    H33     23.708057   21.551280   24.017857 H          1 MOL1         0.3769
      71    C21     21.114416   22.818323   22.808988 C.3        1 MOL1         0.1053
      72    H34     20.923573   21.764020   22.582984 H          1 MOL1         0.0783
      73    O18     20.321255   23.221612   23.928734 O.3        1 MOL1        -0.5519
      74    H35     20.743887   22.778025   24.698679 H          1 MOL1         0.3769
      75    C22     20.745193   23.642146   21.548940 C.3        1 MOL1         0.1018
      76    H36     20.650259   24.699122   21.830813 H          1 MOL1         0.0783
      77    C23     21.789369   23.481302   20.405529 C.3        1 MOL1         0.1043
      78    H37     21.659047   22.481604   19.970895 H          1 MOL1         0.0783
      79    O19     23.142869   23.597610   20.917315 O.3        1 MOL1        -0.3740
      80    C24     21.607869   24.503557   19.258198 C.3        1 MOL1         0.0138
      81    H38     20.693556   24.247667   18.705812 H          1 MOL1         0.0794
      82    H39     22.449909   24.400462   18.560678 H          1 MOL1         0.0794
      83    O20     21.522246   25.850087   19.741441 O.3        1 MOL1        -0.5486
      84    H40     21.488273   26.445246   18.960788 H          1 MOL1         0.3769
      85    C25     25.030341   17.621682   21.009412 C.3        1 MOL1         0.2972
      86    H41     25.701382   16.787963   20.765212 H          1 MOL1         0.0751
      87    O21     23.715163   17.155578   21.381260 O.3        1 MOL1        -0.3740
      88    C26     25.598724   18.467663   22.178407 C.3        1 MOL1         0.1003
      89    H42     26.564612   18.871144   21.847524 H          1 MOL1         0.0783
      90    O22     25.805686   17.668598   23.353840 O.3        1 MOL1        -0.5519
      91    H43     24.965861   17.173964   23.532135 H          1 MOL1         0.3769
      92    C27     24.666867   19.664627   22.492569 C.3        1 MOL1         0.1053
      93    H44     23.722703   19.263507   22.882583 H          1 MOL1         0.0783
      94    O23     25.284754   20.493939   23.482071 O.3        1 MOL1        -0.5519
      95    H45     25.680113   19.865205   24.128084 H          1 MOL1         0.3769
      96    C28     24.357243   20.487753   21.212689 C.3        1 MOL1         0.1018
      97    H46     25.243889   21.074618   20.940860 H          1 MOL1         0.0783
      98    C29     23.957073   19.587492   20.012845 C.3        1 MOL1         0.1043
      99    H47     22.963876   19.177016   20.215214 H          1 MOL1         0.0783
     100    O24     24.899452   18.497185   19.868351 O.3        1 MOL1        -0.3740
     101    C30     23.852715   20.346369   18.666470 C.3        1 MOL1         0.0138
     102    H48     22.916051   20.919292   18.662914 H          1 MOL1         0.0794
     103    H49     23.781519   19.608815   17.856123 H          1 MOL1         0.0794
     104    O25     24.957639   21.228899   18.434767 O.3        1 MOL1        -0.5486
     105    H50     24.835901   22.008861   19.018525 H          1 MOL1         0.3769
     106    C31     21.339833   13.850767   21.831506 C.3        1 MOL1         0.2972
     107    H51     20.863210   12.869843   21.957410 H          1 MOL1         0.0751
     108    O26     20.373991   14.883816   21.559694 O.3        1 MOL1        -0.3740
     109    C32     22.103500   14.240810   23.118001 C.3        1 MOL1         0.1003
     110    H52     22.907755   13.508252   23.265481 H          1 MOL1         0.0783
     111    O27     21.223324   14.221634   24.253639 O.3        1 MOL1        -0.5519
     112    H53     20.301426   14.163301   23.901144 H          1 MOL1         0.3769
     113    C33     22.742415   15.638291   22.955607 C.3        1 MOL1         0.1053
     114    H54     21.926799   16.366987   22.897234 H          1 MOL1         0.0783
     115    O28     23.554386   15.929900   24.096017 O.3        1 MOL1        -0.5519
     116    H55     23.006995   15.662936   24.868426 H          1 MOL1         0.3769
     117    C34     23.586895   15.745196   21.659353 C.3        1 MOL1         0.1018
     118    H56     24.559869   15.270647   21.844086 H          1 MOL1         0.0783
     119    C35     22.903940   15.100543   20.414972 C.3        1 MOL1         0.1043
     120    H57     22.122138   15.786510   20.070586 H          1 MOL1         0.0783
     121    O29     22.288741   13.827704   20.745052 O.3        1 MOL1        -0.3740
     122    C36     23.867310   14.887326   19.223394 C.3        1 MOL1         0.0138
     123    H58     24.129002   15.869423   18.806588 H          1 MOL1         0.0794
     124    H59     23.336984   14.331540   18.438373 H          1 MOL1         0.0794
     125    O30     25.057951   14.190407   19.610610 O.3        1 MOL1        -0.5486
     126    H60     25.584631   14.026192   18.798003 H          1 MOL1         0.3769
     127    C1      19.278743   19.531445   23.407243 C.3        1 MOL1        -0.1693
     128    H1      18.579684   18.885555   23.953831 H          1 MOL1         0.0829
     129    H2      19.236055   20.536479   23.841632 H          1 MOL1         0.0829
     130    C2      19.173110   19.447598   21.849082 C.3        1 MOL1        -0.1768
     131    H3      18.183725   19.258979   21.427046 H          1 MOL1         0.0829
     132    H4      19.634656   20.282080   21.309023 H          1 MOL1         0.0829
     133    C3      20.083087   18.196750   21.979806 C.3        1 MOL1         0.1211
     134    H5      19.543879   17.279324   22.244679 H          1 MOL1         0.0786
     135    C4      20.707595   18.924616   23.207196 C.3        1 MOL1        -0.1768
     136    H6      21.071795   18.281752   24.015567 H          1 MOL1         0.0829
     137    H7      21.487021   19.652050   22.958457 H          1 MOL1         0.0829
     138    O1      20.932848   17.982102   20.879907 O.3        1 MOL1        -0.5515
     139    H8      21.771795   17.607585   21.222991 H          1 MOL1         0.3773
@<TRIPOS>BOND
    1     1     2    1
    2     1     3    1
    3     1     4    1
    4     4     5    1
    5     4     6    1
    6     6     7    1
    7     4     8    1
    8     8     9    1
    9     8    10    1
   10    10    11    1
   11     8    12    1
   12    12    13    1
   13    12    14    1
   14    14    15    1
   15     1    16    1
   16    14    16    1
   17    14    17    1
   18    17    18    1
   19    17    19    1
   20    17    20    1
   21    20    21    1
   22    22    23    1
   23    22    24    1
   24    22    25    1
   25    25    26    1
   26    25    27    1
   27    27    28    1
   28    25    29    1
   29    29    30    1
   30    29    31    1
   31    31    32    1
   32     3    33    1
   33    29    33    1
   34    33    34    1
   35    33    35    1
   36    35    36    1
   37    22    37    1
   38    35    37    1
   39    35    38    1
   40    38    39    1
   41    38    40    1
   42    38    41    1
   43    41    42    1
   44    43    44    1
   45    43    45    1
   46    43    46    1
   47    46    47    1
   48    46    48    1
   49    48    49    1
   50    46    50    1
   51    50    51    1
   52    50    52    1
   53    52    53    1
   54    24    54    1
   55    50    54    1
   56    54    55    1
   57    54    56    1
   58    56    57    1
   59    43    58    1
   60    56    58    1
   61    56    59    1
   62    59    60    1
   63    59    61    1
   64    59    62    1
   65    62    63    1
   66    64    65    1
   67    64    66    1
   68    64    67    1
   69    67    68    1
   70    67    69    1
   71    69    70    1
   72    67    71    1
   73    71    72    1
   74    71    73    1
   75    73    74    1
   76    45    75    1
   77    71    75    1
   78    75    76    1
   79    75    77    1
   80    77    78    1
   81    64    79    1
   82    77    79    1
   83    77    80    1
   84    80    81    1
   85    80    82    1
   86    80    83    1
   87    83    84    1
   88    85    86    1
   89    85    87    1
   90    85    88    1
   91    88    89    1
   92    88    90    1
   93    90    91    1
   94    88    92    1
   95    92    93    1
   96    92    94    1
   97    94    95    1
   98    66    96    1
   99    92    96    1
  100    96    97    1
  101    96    98    1
  102    98    99    1
  103    85   100    1
  104    98   100    1
  105    98   101    1
  106   101   102    1
  107   101   103    1
  108   101   104    1
  109   104   105    1
  110   106   107    1
  111    12   108    1
  112   106   108    1
  113   106   109    1
  114   109   110    1
  115   109   111    1
  116   111   112    1
  117   109   113    1
  118   113   114    1
  119   113   115    1
  120   115   116    1
  121    87   117    1
  122   113   117    1
  123   117   118    1
  124   117   119    1
  125   119   120    1
  126   106   121    1
  127   119   121    1
  128   119   122    1
  129   122   123    1
  130   122   124    1
  131   122   125    1
  132   125   126    1
  133   127   128    1
  134   127   129    1
  135   127   130    1
  136   130   131    1
  137   130   132    1
  138   130   133    1
  139   133   134    1
  140   127   135    1
  141   133   135    1
  142   135   136    1
  143   135   137    1
  144   133   138    1
  145   138   139    1
@<TRIPOS>SUBSTRUCTURE
       1 MOL1            1 RESIDUE      1      MOL     
       2 MOL1          139 RESIDUE      1      MOL     
@<SCITEGIC>MOL_PROPERTY
feprocess Rank
SciTegic.value.IntegerValue
29

@<SCITEGIC>MOL_PROPERTY
Conf_Id
SciTegic.value.IntegerValue
496

@<SCITEGIC>MOL_PROPERTY
Probability
SciTegic.value.DoubleValue
0.62

@<SCITEGIC>MOL_PROPERTY
G
SciTegic.value.DoubleValue
547.078

@<SCITEGIC>MOL_PROPERTY
E
SciTegic.value.DoubleValue
367.814

@<SCITEGIC>MOL_PROPERTY
-TS
SciTegic.value.DoubleValue
179.263

@<SCITEGIC>MOL_PROPERTY
U+W
SciTegic.value.DoubleValue
245.303

@<SCITEGIC>MOL_PROPERTY
U
SciTegic.value.DoubleValue
280.572

@<SCITEGIC>MOL_PROPERTY
W
SciTegic.value.DoubleValue
-35.269

@<SCITEGIC>MOL_PROPERTY
W(PB)
SciTegic.value.DoubleValue
-41.280

@<SCITEGIC>MOL_PROPERTY
W(SA)
SciTegic.value.DoubleValue
6.012

@<SCITEGIC>MOL_PROPERTY
Valence
SciTegic.value.DoubleValue
153.300

@<SCITEGIC>MOL_PROPERTY
Coulomb
SciTegic.value.DoubleValue
148.367

@<SCITEGIC>MOL_PROPERTY
VdW
SciTegic.value.DoubleValue
-21.095

@<SCITEGIC>MOL_PROPERTY
VdW6
SciTegic.value.DoubleValue
-170.601

@<SCITEGIC>MOL_PROPERTY
VdW12
SciTegic.value.DoubleValue
149.506

@<SCITEGIC>MOL_PROPERTY
Bond
SciTegic.value.DoubleValue
4.756

@<SCITEGIC>MOL_PROPERTY
Angle
SciTegic.value.DoubleValue
12.187

@<SCITEGIC>MOL_PROPERTY
Pdih
SciTegic.value.DoubleValue
136.357

@<SCITEGIC>MOL_PROPERTY
Idih
SciTegic.value.DoubleValue
0.000

@<SCITEGIC>MOL_PROPERTY
Tether
SciTegic.value.DoubleValue
0.000

@<TRIPOS>MOLECULE
CD_guest-s16_fast_vm2_rndm.mol2 : feprocess host+ligand conformer 30
         139         145           2
SMALL
USER_CHARGES
 
@<TRIPOS>ATOM
       1    C1      16.386683   15.384899   20.533535 C.3        1 MOL1         0.2972
       2    H1      15.389814   15.277513   20.086793 H          1 MOL1         0.0751
       3    O1      16.573504   16.696939   21.104001 O.3        1 MOL1        -0.3740
       4    C2      16.612304   14.322674   21.642690 C.3        1 MOL1         0.1003
       5    H2      16.500417   13.336119   21.174438 H          1 MOL1         0.0783
       6    O2      15.644947   14.452987   22.696745 O.3        1 MOL1        -0.5519
       7    H3      15.659653   15.396162   23.000042 H          1 MOL1         0.3769
       8    C3      18.048501   14.416179   22.214869 C.3        1 MOL1         0.1053
       9    H4      18.132328   15.362453   22.762503 H          1 MOL1         0.0783
      10    O3      18.282682   13.324348   23.109818 O.3        1 MOL1        -0.5519
      11    H5      17.476591   13.272842   23.670174 H          1 MOL1         0.3769
      12    C4      19.109969   14.411965   21.085275 C.3        1 MOL1         0.1018
      13    H6      19.167725   13.399917   20.663211 H          1 MOL1         0.0783
      14    C5      18.764119   15.416451   19.950272 C.3        1 MOL1         0.1043
      15    H7      18.857911   16.432869   20.349241 H          1 MOL1         0.0783
      16    O4      17.399484   15.190795   19.524066 O.3        1 MOL1        -0.3740
      17    C6      19.677594   15.338070   18.698919 C.3        1 MOL1         0.0138
      18    H8      20.496922   16.056628   18.818168 H          1 MOL1         0.0794
      19    H9      19.100373   15.670784   17.825868 H          1 MOL1         0.0794
      20    O5      20.208529   14.027952   18.461658 O.3        1 MOL1        -0.5486
      21    H10     20.864358   13.842350   19.173885 H          1 MOL1         0.3769
      22    C7      14.711317   20.317796   21.668579 C.3        1 MOL1         0.2972
      23    H11     14.037309   21.173006   21.807863 H          1 MOL1         0.0751
      24    O6      16.084881   20.735317   21.562209 O.3        1 MOL1        -0.3740
      25    C8      14.602831   19.357700   22.875975 C.3        1 MOL1         0.1003
      26    H12     13.572929   18.979414   22.912518 H          1 MOL1         0.0783
      27    O7      14.900982   20.056595   24.095257 O.3        1 MOL1        -0.5519
      28    H13     15.421005   20.857470   23.842527 H          1 MOL1         0.3769
      29    C9      15.555194   18.153150   22.697055 C.3        1 MOL1         0.1053
      30    H14     16.582040   18.528275   22.754999 H          1 MOL1         0.0783
      31    O8      15.335143   17.204548   23.745411 O.3        1 MOL1        -0.5519
      32    H15     15.305797   17.741052   24.568991 H          1 MOL1         0.3769
      33    C10     15.374467   17.469715   21.319806 C.3        1 MOL1         0.1018
      34    H16     14.477707   16.837172   21.363809 H          1 MOL1         0.0783
      35    C11     15.259763   18.481907   20.141523 C.3        1 MOL1         0.1043
      36    H17     16.261458   18.883586   19.954015 H          1 MOL1         0.0783
      37    O9      14.370852   19.579563   20.476930 O.3        1 MOL1        -0.3740
      38    C12     14.773512   17.846826   18.817114 C.3        1 MOL1         0.0138
      39    H18     15.576029   17.211032   18.419316 H          1 MOL1         0.0794
      40    H19     14.602039   18.648401   18.086024 H          1 MOL1         0.0794
      41    O10     13.581566   17.072015   18.996289 O.3        1 MOL1        -0.5486
      42    H20     13.284972   16.771951   18.109404 H          1 MOL1         0.3769
      43    C13     18.468309   24.061203   20.838221 C.3        1 MOL1         0.2972
      44    H21     18.880470   25.030216   20.528284 H          1 MOL1         0.0751
      45    O11     19.498818   23.159524   21.290538 O.3        1 MOL1        -0.3740
      46    C14     17.438323   24.228766   21.986853 C.3        1 MOL1         0.1003
      47    H22     16.617628   24.848979   21.603669 H          1 MOL1         0.0783
      48    O12     18.024648   24.878024   23.125742 O.3        1 MOL1        -0.5519
      49    H23     18.853067   24.384399   23.354333 H          1 MOL1         0.3769
      50    C15     16.850836   22.852807   22.389244 C.3        1 MOL1         0.1053
      51    H24     17.660841   22.255164   22.827642 H          1 MOL1         0.0783
      52    O13     15.808411   23.030299   23.354106 O.3        1 MOL1        -0.5519
      53    H25     16.160107   23.689640   23.993108 H          1 MOL1         0.3769
      54    C16     16.305138   22.095903   21.152081 C.3        1 MOL1         0.1018
      55    H26     15.378373   22.583190   20.821877 H          1 MOL1         0.0783
      56    C17     17.321640   22.081264   19.975928 C.3        1 MOL1         0.1043
      57    H27     18.176151   21.461051   20.267498 H          1 MOL1         0.0783
      58    O14     17.782692   23.433037   19.731726 O.3        1 MOL1        -0.3740
      59    C18     16.778833   21.489910   18.648698 C.3        1 MOL1         0.0138
      60    H28     17.021042   20.420179   18.623250 H          1 MOL1         0.0794
      61    H29     17.320052   21.952779   17.812906 H          1 MOL1         0.0794
      62    O15     15.366909   21.669202   18.478968 O.3        1 MOL1        -0.5486
      63    H30     14.920019   21.060150   19.112262 H          1 MOL1         0.3769
      64    C19     23.545805   22.701161   21.855343 C.3        1 MOL1         0.2972
      65    H31     24.628278   22.809850   22.003010 H          1 MOL1         0.0751
      66    O16     23.169784   21.322461   21.671926 O.3        1 MOL1        -0.3740
      67    C20     22.790045   23.249244   23.088160 C.3        1 MOL1         0.1003
      68    H32     23.024879   24.318147   23.174814 H          1 MOL1         0.0783
      69    O17     23.208721   22.569975   24.283460 O.3        1 MOL1        -0.5519
      70    H33     23.766763   21.804815   23.999244 H          1 MOL1         0.3769
      71    C21     21.265256   23.103063   22.891133 C.3        1 MOL1         0.1053
      72    H34     21.033758   22.031587   22.871738 H          1 MOL1         0.0783
      73    O18     20.582267   23.724337   23.984043 O.3        1 MOL1        -0.5519
      74    H35     21.063083   23.417210   24.785381 H          1 MOL1         0.3769
      75    C22     20.799629   23.718164   21.548348 C.3        1 MOL1         0.1018
      76    H36     20.769417   24.810885   21.652776 H          1 MOL1         0.0783
      77    C23     21.706749   23.310347   20.351180 C.3        1 MOL1         0.1043
      78    H37     21.492359   22.260337   20.116834 H          1 MOL1         0.0783
      79    O19     23.111884   23.438048   20.693009 O.3        1 MOL1        -0.3740
      80    C24     21.437501   24.128105   19.065629 C.3        1 MOL1         0.0138
      81    H38     20.458707   23.833296   18.663470 H          1 MOL1         0.0794
      82    H39     22.192451   23.860304   18.314157 H          1 MOL1         0.0794
      83    O20     21.456589   25.539734   19.311419 O.3        1 MOL1        -0.5486
      84    H40     21.351894   25.994094   18.446994 H          1 MOL1         0.3769
      85    C25     24.974441   17.609384   21.060208 C.3        1 MOL1         0.2972
      86    H41     25.651710   16.800035   20.758053 H          1 MOL1         0.0751
      87    O21     23.729029   17.102516   21.572216 O.3        1 MOL1        -0.3740
      88    C26     25.605707   18.472276   22.184597 C.3        1 MOL1         0.1003
      89    H42     26.545331   18.886001   21.796070 H          1 MOL1         0.0783
      90    O22     25.881800   17.672586   23.346663 O.3        1 MOL1        -0.5519
      91    H43     25.073629   17.130100   23.529384 H          1 MOL1         0.3769
      92    C27     24.676007   19.655065   22.558872 C.3        1 MOL1         0.1053
      93    H44     23.776901   19.244471   23.036523 H          1 MOL1         0.0783
      94    O23     25.348240   20.526338   23.474122 O.3        1 MOL1        -0.5519
      95    H45     25.777286   19.929300   24.127588 H          1 MOL1         0.3769
      96    C28     24.240051   20.439560   21.295827 C.3        1 MOL1         0.1018
      97    H46     25.106834   20.989356   20.905531 H          1 MOL1         0.0783
      98    C29     23.699354   19.504526   20.182815 C.3        1 MOL1         0.1043
      99    H47     22.766947   19.045805   20.532774 H          1 MOL1         0.0783
     100    O24     24.680097   18.468694   19.934218 O.3        1 MOL1        -0.3740
     101    C30     23.365638   20.223777   18.849411 C.3        1 MOL1         0.0138
     102    H48     22.319845   20.554551   18.889165 H          1 MOL1         0.0794
     103    H49     23.436361   19.495422   18.030644 H          1 MOL1         0.0794
     104    O25     24.212363   21.349648   18.583239 O.3        1 MOL1        -0.5486
     105    H50     23.979050   22.052085   19.233351 H          1 MOL1         0.3769
     106    C31     21.350074   13.785650   21.820050 C.3        1 MOL1         0.2972
     107    H51     20.888437   12.791741   21.886126 H          1 MOL1         0.0751
     108    O26     20.355477   14.820334   21.681800 O.3        1 MOL1        -0.3740
     109    C32     22.170821   14.067432   23.100872 C.3        1 MOL1         0.1003
     110    H52     22.969699   13.316718   23.159141 H          1 MOL1         0.0783
     111    O27     21.330395   13.964247   24.260532 O.3        1 MOL1        -0.5519
     112    H53     20.411106   14.149234   23.955101 H          1 MOL1         0.3769
     113    C33     22.825803   15.465167   23.030993 C.3        1 MOL1         0.1053
     114    H54     22.021926   16.209673   23.080744 H          1 MOL1         0.0783
     115    O28     23.708684   15.646264   24.143361 O.3        1 MOL1        -0.5519
     116    H55     23.195288   15.346877   24.926469 H          1 MOL1         0.3769
     117    C34     23.606023   15.675752   21.709553 C.3        1 MOL1         0.1018
     118    H56     24.582735   15.181862   21.798423 H          1 MOL1         0.0783
     119    C35     22.847374   15.162107   20.451885 C.3        1 MOL1         0.1043
     120    H57     22.055532   15.887643   20.237429 H          1 MOL1         0.0783
     121    O29     22.243457   13.864069   20.690603 O.3        1 MOL1        -0.3740
     122    C36     23.730408   15.062229   19.184825 C.3        1 MOL1         0.0138
     123    H58     23.961576   16.077759   18.836915 H          1 MOL1         0.0794
     124    H59     23.151293   14.572340   18.390458 H          1 MOL1         0.0794
     125    O30     24.945150   14.343409   19.430590 O.3        1 MOL1        -0.5486
     126    H60     25.416937   14.253461   18.573880 H          1 MOL1         0.3769
     127    C1      19.507246   18.158073   23.252920 C.3        1 MOL1        -0.1693
     128    H1      19.846041   17.859888   24.251934 H          1 MOL1         0.0829
     129    H2      18.697169   17.488322   22.946590 H          1 MOL1         0.0829
     130    C2      20.629668   18.367923   22.184502 C.3        1 MOL1        -0.1768
     131    H3      21.579260   18.725179   22.597205 H          1 MOL1         0.0829
     132    H4      20.831201   17.523807   21.518455 H          1 MOL1         0.0829
     133    C3      19.729112   19.490972   21.592967 C.3        1 MOL1         0.1211
     134    H5      20.273837   20.348916   21.179826 H          1 MOL1         0.0786
     135    C4      19.211558   19.680879   23.053616 C.3        1 MOL1        -0.1768
     136    H6      19.830603   20.338512   23.673773 H          1 MOL1         0.0829
     137    H7      18.169818   19.994674   23.160601 H          1 MOL1         0.0829
     138    O1      18.769647   19.032963   20.663758 O.3        1 MOL1        -0.5515
     139    H8      18.237075   18.352584   21.122285 H          1 MOL1         0.3773
@<TRIPOS>BOND
    1     1     2    1
    2     1     3    1
    3     1     4    1
    4     4     5    1
    5     4     6    1
    6     6     7    1
    7     4     8    1
    8     8     9    1
    9     8    10    1
   10    10    11    1
   11     8    12    1
   12    12    13    1
   13    12    14    1
   14    14    15    1
   15     1    16    1
   16    14    16    1
   17    14    17    1
   18    17    18    1
   19    17    19    1
   20    17    20    1
   21    20    21    1
   22    22    23    1
   23    22    24    1
   24    22    25    1
   25    25    26    1
   26    25    27    1
   27    27    28    1
   28    25    29    1
   29    29    30    1
   30    29    31    1
   31    31    32    1
   32     3    33    1
   33    29    33    1
   34    33    34    1
   35    33    35    1
   36    35    36    1
   37    22    37    1
   38    35    37    1
   39    35    38    1
   40    38    39    1
   41    38    40    1
   42    38    41    1
   43    41    42    1
   44    43    44    1
   45    43    45    1
   46    43    46    1
   47    46    47    1
   48    46    48    1
   49    48    49    1
   50    46    50    1
   51    50    51    1
   52    50    52    1
   53    52    53    1
   54    24    54    1
   55    50    54    1
   56    54    55    1
   57    54    56    1
   58    56    57    1
   59    43    58    1
   60    56    58    1
   61    56    59    1
   62    59    60    1
   63    59    61    1
   64    59    62    1
   65    62    63    1
   66    64    65    1
   67    64    66    1
   68    64    67    1
   69    67    68    1
   70    67    69    1
   71    69    70    1
   72    67    71    1
   73    71    72    1
   74    71    73    1
   75    73    74    1
   76    45    75    1
   77    71    75    1
   78    75    76    1
   79    75    77    1
   80    77    78    1
   81    64    79    1
   82    77    79    1
   83    77    80    1
   84    80    81    1
   85    80    82    1
   86    80    83    1
   87    83    84    1
   88    85    86    1
   89    85    87    1
   90    85    88    1
   91    88    89    1
   92    88    90    1
   93    90    91    1
   94    88    92    1
   95    92    93    1
   96    92    94    1
   97    94    95    1
   98    66    96    1
   99    92    96    1
  100    96    97    1
  101    96    98    1
  102    98    99    1
  103    85   100    1
  104    98   100    1
  105    98   101    1
  106   101   102    1
  107   101   103    1
  108   101   104    1
  109   104   105    1
  110   106   107    1
  111    12   108    1
  112   106   108    1
  113   106   109    1
  114   109   110    1
  115   109   111    1
  116   111   112    1
  117   109   113    1
  118   113   114    1
  119   113   115    1
  120   115   116    1
  121    87   117    1
  122   113   117    1
  123   117   118    1
  124   117   119    1
  125   119   120    1
  126   106   121    1
  127   119   121    1
  128   119   122    1
  129   122   123    1
  130   122   124    1
  131   122   125    1
  132   125   126    1
  133   127   128    1
  134   127   129    1
  135   127   130    1
  136   130   131    1
  137   130   132    1
  138   130   133    1
  139   133   134    1
  140   127   135    1
  141   133   135    1
  142   135   136    1
  143   135   137    1
  144   133   138    1
  145   138   139    1
@<TRIPOS>SUBSTRUCTURE
       1 MOL1            1 RESIDUE      1      MOL     
       2 MOL1          139 RESIDUE      1      MOL     
@<SCITEGIC>MOL_PROPERTY
feprocess Rank
SciTegic.value.IntegerValue
30

@<SCITEGIC>MOL_PROPERTY
Conf_Id
SciTegic.value.IntegerValue
355

@<SCITEGIC>MOL_PROPERTY
Probability
SciTegic.value.DoubleValue
0.60

@<SCITEGIC>MOL_PROPERTY
G
SciTegic.value.DoubleValue
547.096

@<SCITEGIC>MOL_PROPERTY
E
SciTegic.value.DoubleValue
368.896

@<SCITEGIC>MOL_PROPERTY
-TS
SciTegic.value.DoubleValue
178.201

@<SCITEGIC>MOL_PROPERTY
U+W
SciTegic.value.DoubleValue
246.385

@<SCITEGIC>MOL_PROPERTY
U
SciTegic.value.DoubleValue
280.768

@<SCITEGIC>MOL_PROPERTY
W
SciTegic.value.DoubleValue
-34.383

@<SCITEGIC>MOL_PROPERTY
W(PB)
SciTegic.value.DoubleValue
-40.361

@<SCITEGIC>MOL_PROPERTY
W(SA)
SciTegic.value.DoubleValue
5.978

@<SCITEGIC>MOL_PROPERTY
Valence
SciTegic.value.DoubleValue
153.727

@<SCITEGIC>MOL_PROPERTY
Coulomb
SciTegic.value.DoubleValue
149.776

@<SCITEGIC>MOL_PROPERTY
VdW
SciTegic.value.DoubleValue
-22.735

@<SCITEGIC>MOL_PROPERTY
VdW6
SciTegic.value.DoubleValue
-170.759

@<SCITEGIC>MOL_PROPERTY
VdW12
SciTegic.value.DoubleValue
148.024

@<SCITEGIC>MOL_PROPERTY
Bond
SciTegic.value.DoubleValue
4.495

@<SCITEGIC>MOL_PROPERTY
Angle
SciTegic.value.DoubleValue
11.385

@<SCITEGIC>MOL_PROPERTY
Pdih
SciTegic.value.DoubleValue
137.846

@<SCITEGIC>MOL_PROPERTY
Idih
SciTegic.value.DoubleValue
0.000

@<SCITEGIC>MOL_PROPERTY
Tether
SciTegic.value.DoubleValue
0.000

@<TRIPOS>MOLECULE
CD_guest-s16_fast_vm2_rndm.mol2 : feprocess host+ligand conformer 31
         139         145           2
SMALL
USER_CHARGES
 
@<TRIPOS>ATOM
       1    C1      16.238265   15.169767   21.891498 C.3        1 MOL1         0.2972
       2    H1      15.159250   15.097425   22.080639 H          1 MOL1         0.0751
       3    O1      16.646847   16.527393   21.637043 O.3        1 MOL1        -0.3740
       4    C2      17.027718   14.654584   23.116549 C.3        1 MOL1         0.1003
       5    H2      16.791051   13.590221   23.244393 H          1 MOL1         0.0783
       6    O2      16.648613   15.375938   24.299946 O.3        1 MOL1        -0.5519
       7    H3      16.142511   16.171184   24.001103 H          1 MOL1         0.3769
       8    C3      18.546716   14.788250   22.868408 C.3        1 MOL1         0.1053
       9    H4      18.780330   15.857036   22.838295 H          1 MOL1         0.0783
      10    O3      19.263716   14.178979   23.945546 O.3        1 MOL1        -0.5519
      11    H5      18.813755   14.499410   24.759393 H          1 MOL1         0.3769
      12    C4      18.977111   14.159733   21.517926 C.3        1 MOL1         0.1018
      13    H6      19.060819   13.073384   21.656032 H          1 MOL1         0.0783
      14    C5      18.004892   14.476033   20.341567 C.3        1 MOL1         0.1043
      15    H7      18.196223   15.506609   20.023910 H          1 MOL1         0.0783
      16    O4      16.617629   14.368931   20.753794 O.3        1 MOL1        -0.3740
      17    C6      18.218044   13.579222   19.098912 C.3        1 MOL1         0.0138
      18    H8      19.167883   13.860068   18.624058 H          1 MOL1         0.0794
      19    H9      17.418927   13.787510   18.374645 H          1 MOL1         0.0794
      20    O5      18.235260   12.186718   19.435511 O.3        1 MOL1        -0.5486
      21    H10     18.288167   11.677820   18.597081 H          1 MOL1         0.3769
      22    C7      14.882462   20.245313   20.819440 C.3        1 MOL1         0.2972
      23    H11     14.169904   21.007695   20.479787 H          1 MOL1         0.0751
      24    O6      16.120678   20.834070   21.266037 O.3        1 MOL1        -0.3740
      25    C8      14.292605   19.463226   22.022678 C.3        1 MOL1         0.1003
      26    H12     13.341566   19.022561   21.696512 H          1 MOL1         0.0783
      27    O7      14.050794   20.349106   23.128227 O.3        1 MOL1        -0.5519
      28    H13     14.759792   21.039142   23.105531 H          1 MOL1         0.3769
      29    C9      15.232811   18.308308   22.451515 C.3        1 MOL1         0.1053
      30    H14     16.154833   18.748499   22.855076 H          1 MOL1         0.0783
      31    O8      14.594902   17.514169   23.457334 O.3        1 MOL1        -0.5519
      32    H15     14.199109   18.163920   24.080764 H          1 MOL1         0.3769
      33    C10     15.606695   17.431886   21.231290 C.3        1 MOL1         0.1018
      34    H16     14.712165   16.895622   20.887392 H          1 MOL1         0.0783
      35    C11     16.153062   18.296961   20.065305 C.3        1 MOL1         0.1043
      36    H17     17.083557   18.780597   20.389670 H          1 MOL1         0.0783
      37    O9      15.166942   19.309240   19.755506 O.3        1 MOL1        -0.3740
      38    C12     16.478905   17.505924   18.771931 C.3        1 MOL1         0.0138
      39    H18     17.527265   17.185637   18.819231 H          1 MOL1         0.0794
      40    H19     16.397258   18.186846   17.914471 H          1 MOL1         0.0794
      41    O10     15.632318   16.365088   18.576958 O.3        1 MOL1        -0.5486
      42    H20     15.848937   15.715425   19.285206 H          1 MOL1         0.3769
      43    C13     18.517893   24.189528   20.869269 C.3        1 MOL1         0.2972
      44    H21     18.959456   25.170159   20.649601 H          1 MOL1         0.0751
      45    O11     19.503818   23.249868   21.338536 O.3        1 MOL1        -0.3740
      46    C14     17.403645   24.304033   21.941080 C.3        1 MOL1         0.1003
      47    H22     16.610833   24.937949   21.522996 H          1 MOL1         0.0783
      48    O12     17.894566   24.905781   23.148811 O.3        1 MOL1        -0.5519
      49    H23     18.719722   24.422168   23.408207 H          1 MOL1         0.3769
      50    C15     16.795818   22.910272   22.232244 C.3        1 MOL1         0.1053
      51    H24     17.572484   22.287184   22.695865 H          1 MOL1         0.0783
      52    O13     15.688404   23.043049   23.130110 O.3        1 MOL1        -0.5519
      53    H25     15.998612   23.661043   23.829088 H          1 MOL1         0.3769
      54    C16     16.328878   22.219381   20.926556 C.3        1 MOL1         0.1018
      55    H26     15.401218   22.706887   20.599507 H          1 MOL1         0.0783
      56    C17     17.388589   22.294535   19.788290 C.3        1 MOL1         0.1043
      57    H27     18.208585   21.606837   20.032107 H          1 MOL1         0.0783
      58    O14     17.913136   23.642156   19.679923 O.3        1 MOL1        -0.3740
      59    C18     16.841749   21.888531   18.398635 C.3        1 MOL1         0.0138
      60    H28     16.687955   20.802580   18.385329 H          1 MOL1         0.0794
      61    H29     17.605956   22.114484   17.643056 H          1 MOL1         0.0794
      62    O15     15.615704   22.560115   18.080876 O.3        1 MOL1        -0.5486
      63    H30     15.339642   22.266786   17.185463 H          1 MOL1         0.3769
      64    C19     23.492362   22.705520   22.190845 C.3        1 MOL1         0.2972
      65    H31     24.562530   22.798765   22.417274 H          1 MOL1         0.0751
      66    O16     23.116608   21.332385   21.965728 O.3        1 MOL1        -0.3740
      67    C20     22.661301   23.257489   23.372580 C.3        1 MOL1         0.1003
      68    H32     22.920118   24.317677   23.491584 H          1 MOL1         0.0783
      69    O17     22.974167   22.552651   24.585123 O.3        1 MOL1        -0.5519
      70    H33     23.497066   21.753831   24.326396 H          1 MOL1         0.3769
      71    C21     21.149653   23.163621   23.070086 C.3        1 MOL1         0.1053
      72    H34     20.879890   22.103727   23.040792 H          1 MOL1         0.0783
      73    O18     20.418761   23.813930   24.113484 O.3        1 MOL1        -0.5519
      74    H35     20.828730   23.486740   24.945673 H          1 MOL1         0.3769
      75    C22     20.793730   23.782452   21.695963 C.3        1 MOL1         0.1018
      76    H36     20.780475   24.875846   21.796338 H          1 MOL1         0.0783
      77    C23     21.775324   23.355790   20.567418 C.3        1 MOL1         0.1043
      78    H37     21.557462   22.309626   20.319679 H          1 MOL1         0.0783
      79    O19     23.154441   23.458821   21.007799 O.3        1 MOL1        -0.3740
      80    C24     21.611686   24.177265   19.266508 C.3        1 MOL1         0.0138
      81    H38     20.653849   23.906626   18.801723 H          1 MOL1         0.0794
      82    H39     22.407086   23.888964   18.566069 H          1 MOL1         0.0794
      83    O20     21.650262   25.588535   19.512382 O.3        1 MOL1        -0.5486
      84    H40     21.606963   26.043562   18.643122 H          1 MOL1         0.3769
      85    C25     25.036240   17.652423   21.315446 C.3        1 MOL1         0.2972
      86    H41     25.795947   16.905939   21.051006 H          1 MOL1         0.0751
      87    O21     23.789468   17.025452   21.668734 O.3        1 MOL1        -0.3740
      88    C26     25.502507   18.457694   22.556675 C.3        1 MOL1         0.1003
      89    H42     26.467536   18.919402   22.310383 H          1 MOL1         0.0783
      90    O22     25.666797   17.579567   23.681187 O.3        1 MOL1        -0.5519
      91    H43     24.954995   16.899400   23.607494 H          1 MOL1         0.3769
      92    C27     24.502231   19.588964   22.901525 C.3        1 MOL1         0.1053
      93    H44     23.562411   19.130659   23.237269 H          1 MOL1         0.0783
      94    O23     25.042559   20.406699   23.944856 O.3        1 MOL1        -0.5519
      95    H45     25.397251   19.772826   24.607880 H          1 MOL1         0.3769
      96    C28     24.205007   20.446009   21.649203 C.3        1 MOL1         0.1018
      97    H46     25.114211   20.997835   21.375385 H          1 MOL1         0.0783
      98    C29     23.778926   19.564948   20.446595 C.3        1 MOL1         0.1043
      99    H47     22.834304   19.064532   20.697691 H          1 MOL1         0.0783
     100    O24     24.807700   18.567709   20.218785 O.3        1 MOL1        -0.3740
     101    C30     23.543003   20.356334   19.132609 C.3        1 MOL1         0.0138
     102    H48     22.494816   20.680243   19.108261 H          1 MOL1         0.0794
     103    H49     23.685164   19.678224   18.281157 H          1 MOL1         0.0794
     104    O25     24.400281   21.496774   18.995282 O.3        1 MOL1        -0.5486
     105    H50     24.104268   22.167487   19.654131 H          1 MOL1         0.3769
     106    C31     21.260990   13.867847   20.683081 C.3        1 MOL1         0.2972
     107    H51     20.824231   12.935064   20.303451 H          1 MOL1         0.0751
     108    O26     20.244382   14.763591   21.182128 O.3        1 MOL1        -0.3740
     109    C32     22.285415   13.580851   21.811293 C.3        1 MOL1         0.1003
     110    H52     23.073569   12.949815   21.380311 H          1 MOL1         0.0783
     111    O27     21.679530   12.883103   22.910915 O.3        1 MOL1        -0.5519
     112    H53     20.900862   13.417259   23.210743 H          1 MOL1         0.3769
     113    C33     22.943558   14.894415   22.297952 C.3        1 MOL1         0.1053
     114    H54     22.169289   15.497762   22.790701 H          1 MOL1         0.0783
     115    O28     23.983641   14.588321   23.233092 O.3        1 MOL1        -0.5519
     116    H55     23.595344   13.920282   23.840559 H          1 MOL1         0.3769
     117    C34     23.523272   15.719053   21.118847 C.3        1 MOL1         0.1018
     118    H56     24.439894   15.224302   20.772211 H          1 MOL1         0.0783
     119    C35     22.508074   15.847869   19.943327 C.3        1 MOL1         0.1043
     120    H57     21.695706   16.502373   20.273202 H          1 MOL1         0.0783
     121    O29     21.968680   14.542136   19.623053 O.3        1 MOL1        -0.3740
     122    C36     23.061962   16.455717   18.630188 C.3        1 MOL1         0.0138
     123    H58     22.919648   17.541752   18.662869 H          1 MOL1         0.0794
     124    H59     22.454231   16.087289   17.792926 H          1 MOL1         0.0794
     125    O30     24.442297   16.153976   18.401061 O.3        1 MOL1        -0.5486
     126    H60     24.957769   16.866322   18.842317 H          1 MOL1         0.3769
     127    C1      20.313204   19.488008   23.550262 C.3        1 MOL1        -0.1693
     128    H1      19.510891   19.537346   24.297785 H          1 MOL1         0.0829
     129    H2      21.181060   20.039369   23.930235 H          1 MOL1         0.0829
     130    C2      19.864139   19.816456   22.087001 C.3        1 MOL1        -0.1768
     131    H3      19.053507   20.543734   21.985273 H          1 MOL1         0.0829
     132    H4      20.675727   20.092714   21.404402 H          1 MOL1         0.0829
     133    C3      19.438334   18.322898   22.013429 C.3        1 MOL1         0.1211
     134    H5      18.447742   18.129176   22.442586 H          1 MOL1         0.0786
     135    C4      20.610521   18.056741   23.002443 C.3        1 MOL1        -0.1768
     136    H6      20.470929   17.232800   23.710148 H          1 MOL1         0.0829
     137    H7      21.587882   17.949907   22.524806 H          1 MOL1         0.0829
     138    O1      19.569246   17.713737   20.750609 O.3        1 MOL1        -0.5515
     139    H8      19.672600   16.751426   20.911000 H          1 MOL1         0.3773
@<TRIPOS>BOND
    1     1     2    1
    2     1     3    1
    3     1     4    1
    4     4     5    1
    5     4     6    1
    6     6     7    1
    7     4     8    1
    8     8     9    1
    9     8    10    1
   10    10    11    1
   11     8    12    1
   12    12    13    1
   13    12    14    1
   14    14    15    1
   15     1    16    1
   16    14    16    1
   17    14    17    1
   18    17    18    1
   19    17    19    1
   20    17    20    1
   21    20    21    1
   22    22    23    1
   23    22    24    1
   24    22    25    1
   25    25    26    1
   26    25    27    1
   27    27    28    1
   28    25    29    1
   29    29    30    1
   30    29    31    1
   31    31    32    1
   32     3    33    1
   33    29    33    1
   34    33    34    1
   35    33    35    1
   36    35    36    1
   37    22    37    1
   38    35    37    1
   39    35    38    1
   40    38    39    1
   41    38    40    1
   42    38    41    1
   43    41    42    1
   44    43    44    1
   45    43    45    1
   46    43    46    1
   47    46    47    1
   48    46    48    1
   49    48    49    1
   50    46    50    1
   51    50    51    1
   52    50    52    1
   53    52    53    1
   54    24    54    1
   55    50    54    1
   56    54    55    1
   57    54    56    1
   58    56    57    1
   59    43    58    1
   60    56    58    1
   61    56    59    1
   62    59    60    1
   63    59    61    1
   64    59    62    1
   65    62    63    1
   66    64    65    1
   67    64    66    1
   68    64    67    1
   69    67    68    1
   70    67    69    1
   71    69    70    1
   72    67    71    1
   73    71    72    1
   74    71    73    1
   75    73    74    1
   76    45    75    1
   77    71    75    1
   78    75    76    1
   79    75    77    1
   80    77    78    1
   81    64    79    1
   82    77    79    1
   83    77    80    1
   84    80    81    1
   85    80    82    1
   86    80    83    1
   87    83    84    1
   88    85    86    1
   89    85    87    1
   90    85    88    1
   91    88    89    1
   92    88    90    1
   93    90    91    1
   94    88    92    1
   95    92    93    1
   96    92    94    1
   97    94    95    1
   98    66    96    1
   99    92    96    1
  100    96    97    1
  101    96    98    1
  102    98    99    1
  103    85   100    1
  104    98   100    1
  105    98   101    1
  106   101   102    1
  107   101   103    1
  108   101   104    1
  109   104   105    1
  110   106   107    1
  111    12   108    1
  112   106   108    1
  113   106   109    1
  114   109   110    1
  115   109   111    1
  116   111   112    1
  117   109   113    1
  118   113   114    1
  119   113   115    1
  120   115   116    1
  121    87   117    1
  122   113   117    1
  123   117   118    1
  124   117   119    1
  125   119   120    1
  126   106   121    1
  127   119   121    1
  128   119   122    1
  129   122   123    1
  130   122   124    1
  131   122   125    1
  132   125   126    1
  133   127   128    1
  134   127   129    1
  135   127   130    1
  136   130   131    1
  137   130   132    1
  138   130   133    1
  139   133   134    1
  140   127   135    1
  141   133   135    1
  142   135   136    1
  143   135   137    1
  144   133   138    1
  145   138   139    1
@<TRIPOS>SUBSTRUCTURE
       1 MOL1            1 RESIDUE      1      MOL     
       2 MOL1          139 RESIDUE      1      MOL     
@<SCITEGIC>MOL_PROPERTY
feprocess Rank
SciTegic.value.IntegerValue
31

@<SCITEGIC>MOL_PROPERTY
Conf_Id
SciTegic.value.IntegerValue
191

@<SCITEGIC>MOL_PROPERTY
Probability
SciTegic.value.DoubleValue
0.54

@<SCITEGIC>MOL_PROPERTY
G
SciTegic.value.DoubleValue
547.162

@<SCITEGIC>MOL_PROPERTY
E
SciTegic.value.DoubleValue
368.547

@<SCITEGIC>MOL_PROPERTY
-TS
SciTegic.value.DoubleValue
178.615

@<SCITEGIC>MOL_PROPERTY
U+W
SciTegic.value.DoubleValue
246.035

@<SCITEGIC>MOL_PROPERTY
U
SciTegic.value.DoubleValue
281.412

@<SCITEGIC>MOL_PROPERTY
W
SciTegic.value.DoubleValue
-35.377

@<SCITEGIC>MOL_PROPERTY
W(PB)
SciTegic.value.DoubleValue
-41.324

@<SCITEGIC>MOL_PROPERTY
W(SA)
SciTegic.value.DoubleValue
5.947

@<SCITEGIC>MOL_PROPERTY
Valence
SciTegic.value.DoubleValue
153.733

@<SCITEGIC>MOL_PROPERTY
Coulomb
SciTegic.value.DoubleValue
150.542

@<SCITEGIC>MOL_PROPERTY
VdW
SciTegic.value.DoubleValue
-22.863

@<SCITEGIC>MOL_PROPERTY
VdW6
SciTegic.value.DoubleValue
-170.566

@<SCITEGIC>MOL_PROPERTY
VdW12
SciTegic.value.DoubleValue
147.703

@<SCITEGIC>MOL_PROPERTY
Bond
SciTegic.value.DoubleValue
4.555

@<SCITEGIC>MOL_PROPERTY
Angle
SciTegic.value.DoubleValue
11.546

@<SCITEGIC>MOL_PROPERTY
Pdih
SciTegic.value.DoubleValue
137.632

@<SCITEGIC>MOL_PROPERTY
Idih
SciTegic.value.DoubleValue
0.000

@<SCITEGIC>MOL_PROPERTY
Tether
SciTegic.value.DoubleValue
0.000

@<TRIPOS>MOLECULE
CD_guest-s16_fast_vm2_rndm.mol2 : feprocess host+ligand conformer 32
         139         145           2
SMALL
USER_CHARGES
 
@<TRIPOS>ATOM
       1    C1      16.222483   15.178481   20.884046 C.3        1 MOL1         0.2972
       2    H1      15.189849   14.976202   20.571717 H          1 MOL1         0.0751
       3    O1      16.409180   16.554525   21.267360 O.3        1 MOL1        -0.3740
       4    C2      16.621369   14.300386   22.099553 C.3        1 MOL1         0.1003
       5    H2      16.549232   13.250955   21.785619 H          1 MOL1         0.0783
       6    O2      15.739721   14.519032   23.212213 O.3        1 MOL1        -0.5519
       7    H3      15.626868   15.498087   23.315498 H          1 MOL1         0.3769
       8    C3      18.090315   14.578125   22.507220 C.3        1 MOL1         0.1053
       9    H4      18.156238   15.612648   22.869825 H          1 MOL1         0.0783
      10    O3      18.484757   13.676805   23.546810 O.3        1 MOL1        -0.5519
      11    H5      17.725654   13.661147   24.171917 H          1 MOL1         0.3769
      12    C4      19.032490   14.428716   21.287104 C.3        1 MOL1         0.1018
      13    H6      19.094715   13.364825   21.022567 H          1 MOL1         0.0783
      14    C5      18.527776   15.223818   20.052336 C.3        1 MOL1         0.1043
      15    H7      18.601978   16.294158   20.274743 H          1 MOL1         0.0783
      16    O4      17.140939   14.883048   19.806131 O.3        1 MOL1        -0.3740
      17    C6      19.343309   14.982555   18.754582 C.3        1 MOL1         0.0138
      18    H8      20.151639   15.723103   18.711338 H          1 MOL1         0.0794
      19    H9      18.692585   15.175639   17.891310 H          1 MOL1         0.0794
      20    O5      19.898243   13.663777   18.666808 O.3        1 MOL1        -0.5486
      21    H10     20.622901   13.606240   19.332261 H          1 MOL1         0.3769
      22    C7      14.720055   20.293984   21.395897 C.3        1 MOL1         0.2972
      23    H11     14.076845   21.183455   21.405903 H          1 MOL1         0.0751
      24    O6      16.117014   20.647467   21.393937 O.3        1 MOL1        -0.3740
      25    C8      14.439694   19.432261   22.649417 C.3        1 MOL1         0.1003
      26    H12     13.390578   19.112048   22.604716 H          1 MOL1         0.0783
      27    O7      14.653189   20.200233   23.844889 O.3        1 MOL1        -0.5519
      28    H13     15.233839   20.961769   23.597529 H          1 MOL1         0.3769
      29    C9      15.328020   18.167604   22.653233 C.3        1 MOL1         0.1053
      30    H14     16.365656   18.488594   22.798768 H          1 MOL1         0.0783
      31    O8      14.940292   17.315735   23.735193 O.3        1 MOL1        -0.5519
      32    H15     14.851902   17.916292   24.508958 H          1 MOL1         0.3769
      33    C10     15.241432   17.395463   21.312163 C.3        1 MOL1         0.1018
      34    H16     14.309427   16.815097   21.301563 H          1 MOL1         0.0783
      35    C11     15.314088   18.324066   20.065899 C.3        1 MOL1         0.1043
      36    H17     16.354649   18.656430   19.964108 H          1 MOL1         0.0783
      37    O9      14.461554   19.487745   20.228245 O.3        1 MOL1        -0.3740
      38    C12     14.929266   17.614508   18.745915 C.3        1 MOL1         0.0138
      39    H18     15.718355   16.892997   18.494605 H          1 MOL1         0.0794
      40    H19     14.901591   18.361036   17.940764 H          1 MOL1         0.0794
      41    O10     13.668577   16.940422   18.844629 O.3        1 MOL1        -0.5486
      42    H20     13.460592   16.566777   17.960526 H          1 MOL1         0.3769
      43    C13     18.608708   23.937460   20.698082 C.3        1 MOL1         0.2972
      44    H21     19.018493   24.901072   20.369003 H          1 MOL1         0.0751
      45    O11     19.643255   23.065697   21.192183 O.3        1 MOL1        -0.3740
      46    C14     17.527503   24.127557   21.799528 C.3        1 MOL1         0.1003
      47    H22     16.722555   24.729349   21.357882 H          1 MOL1         0.0783
      48    O12     18.043815   24.820297   22.945905 O.3        1 MOL1        -0.5519
      49    H23     18.784854   24.273534   23.310599 H          1 MOL1         0.3769
      50    C15     16.923334   22.762343   22.215274 C.3        1 MOL1         0.1053
      51    H24     17.711773   22.168292   22.698082 H          1 MOL1         0.0783
      52    O13     15.841671   22.968819   23.130011 O.3        1 MOL1        -0.5519
      53    H25     16.165377   23.649171   23.761892 H          1 MOL1         0.3769
      54    C16     16.421495   21.988726   20.971493 C.3        1 MOL1         0.1018
      55    H26     15.538570   22.504585   20.571365 H          1 MOL1         0.0783
      56    C17     17.505938   21.913350   19.863022 C.3        1 MOL1         0.1043
      57    H27     18.337341   21.298929   20.233199 H          1 MOL1         0.0783
      58    O14     17.980339   23.256732   19.586801 O.3        1 MOL1        -0.3740
      59    C18     17.029403   21.268332   18.535017 C.3        1 MOL1         0.0138
      60    H28     17.211848   20.187897   18.589103 H          1 MOL1         0.0794
      61    H29     17.652539   21.652982   17.716670 H          1 MOL1         0.0794
      62    O15     15.644769   21.505283   18.251758 O.3        1 MOL1        -0.5486
      63    H30     15.122076   20.926960   18.855118 H          1 MOL1         0.3769
      64    C19     23.515833   22.574153   22.345054 C.3        1 MOL1         0.2972
      65    H31     24.557427   22.624165   22.688003 H          1 MOL1         0.0751
      66    O16     23.191650   21.262243   21.844866 O.3        1 MOL1        -0.3740
      67    C20     22.561213   22.908827   23.515781 C.3        1 MOL1         0.1003
      68    H32     22.789567   23.929607   23.848631 H          1 MOL1         0.0783
      69    O17     22.751363   21.994052   24.607142 O.3        1 MOL1        -0.5519
      70    H33     22.692960   21.081114   24.232282 H          1 MOL1         0.3769
      71    C21     21.088971   22.867169   23.057129 C.3        1 MOL1         0.1053
      72    H34     20.851467   21.823717   22.841880 H          1 MOL1         0.0783
      73    O18     20.246767   23.337556   24.113713 O.3        1 MOL1        -0.5519
      74    H35     20.598213   22.911436   24.927444 H          1 MOL1         0.3769
      75    C22     20.826463   23.665350   21.757628 C.3        1 MOL1         0.1018
      76    H36     20.684264   24.725410   22.006115 H          1 MOL1         0.0783
      77    C23     21.948643   23.493575   20.693322 C.3        1 MOL1         0.1043
      78    H37     21.800493   22.511599   20.232107 H          1 MOL1         0.0783
      79    O19     23.272377   23.529537   21.289538 O.3        1 MOL1        -0.3740
      80    C24     21.888152   24.540859   19.556099 C.3        1 MOL1         0.0138
      81    H38     21.003869   24.334118   18.938254 H          1 MOL1         0.0794
      82    H39     22.770109   24.414995   18.913726 H          1 MOL1         0.0794
      83    O20     21.826462   25.880209   20.060595 O.3        1 MOL1        -0.5486
      84    H40     21.871079   26.490981   19.292570 H          1 MOL1         0.3769
      85    C25     24.925802   17.732946   20.576662 C.3        1 MOL1         0.2972
      86    H41     25.522840   16.927226   20.130409 H          1 MOL1         0.0751
      87    O21     23.652897   17.250999   21.053045 O.3        1 MOL1        -0.3740
      88    C26     25.682926   18.420461   21.741859 C.3        1 MOL1         0.1003
      89    H42     26.584332   18.877416   21.313153 H          1 MOL1         0.0783
      90    O22     26.078400   17.478753   22.750392 O.3        1 MOL1        -0.5519
      91    H43     25.248694   17.074682   23.111372 H          1 MOL1         0.3769
      92    C27     24.824651   19.554223   22.356723 C.3        1 MOL1         0.1053
      93    H44     23.963605   19.094838   22.860313 H          1 MOL1         0.0783
      94    O23     25.620199   20.273847   23.304205 O.3        1 MOL1        -0.5519
      95    H45     26.013887   19.587544   23.886016 H          1 MOL1         0.3769
      96    C28     24.288890   20.525319   21.268695 C.3        1 MOL1         0.1018
      97    H46     25.109552   21.188320   20.965986 H          1 MOL1         0.0783
      98    C29     23.735187   19.792424   20.011523 C.3        1 MOL1         0.1043
      99    H47     22.779531   19.326847   20.280816 H          1 MOL1         0.0783
     100    O24     24.663591   18.760043   19.595981 O.3        1 MOL1        -0.3740
     101    C30     23.447740   20.713186   18.795857 C.3        1 MOL1         0.0138
     102    H48     22.398520   21.029229   18.840460 H          1 MOL1         0.0794
     103    H49     23.553900   20.121729   17.876604 H          1 MOL1         0.0794
     104    O25     24.299424   21.865267   18.736376 O.3        1 MOL1        -0.5486
     105    H50     24.104641   22.419143   19.526720 H          1 MOL1         0.3769
     106    C31     21.336884   13.986351   21.923039 C.3        1 MOL1         0.2972
     107    H51     20.905034   13.004640   22.157667 H          1 MOL1         0.0751
     108    O26     20.313164   14.965763   21.661457 O.3        1 MOL1        -0.3740
     109    C32     22.188631   14.478358   23.115286 C.3        1 MOL1         0.1003
     110    H52     22.997546   13.751597   23.265412 H          1 MOL1         0.0783
     111    O27     21.386579   14.549869   24.305825 O.3        1 MOL1        -0.5519
     112    H53     20.442902   14.498375   24.018085 H          1 MOL1         0.3769
     113    C33     22.829659   15.851037   22.807489 C.3        1 MOL1         0.1053
     114    H54     22.027310   16.597697   22.773952 H          1 MOL1         0.0783
     115    O28     23.746533   16.182089   23.854551 O.3        1 MOL1        -0.5519
     116    H55     23.219912   16.106838   24.680830 H          1 MOL1         0.3769
     117    C34     23.555978   15.866035   21.436571 C.3        1 MOL1         0.1018
     118    H56     24.541670   15.395580   21.549829 H          1 MOL1         0.0783
     119    C35     22.747359   15.164798   20.307074 C.3        1 MOL1         0.1043
     120    H57     21.926866   15.837217   20.028167 H          1 MOL1         0.0783
     121    O29     22.187422   13.905968   20.761376 O.3        1 MOL1        -0.3740
     122    C36     23.573873   14.901787   19.025752 C.3        1 MOL1         0.0138
     123    H58     23.779193   15.865172   18.539676 H          1 MOL1         0.0794
     124    H59     22.964468   14.309288   18.330050 H          1 MOL1         0.0794
     125    O30     24.806322   14.227594   19.307741 O.3        1 MOL1        -0.5486
     126    H60     25.237699   14.023140   18.449367 H          1 MOL1         0.3769
     127    C1      19.003905   18.776964   22.285770 C.3        1 MOL1        -0.1693
     128    H1      18.320496   19.626092   22.405804 H          1 MOL1         0.0829
     129    H2      18.585028   18.091382   21.544938 H          1 MOL1         0.0829
     130    C2      19.496680   18.138237   23.626953 C.3        1 MOL1        -0.1768
     131    H3      19.935112   17.138381   23.530714 H          1 MOL1         0.0829
     132    H4      18.772975   18.128349   24.448967 H          1 MOL1         0.0829
     133    C3      20.526408   19.307124   23.638801 C.3        1 MOL1         0.1211
     134    H5      20.102191   20.241142   24.029090 H          1 MOL1         0.0786
     135    C4      20.496408   19.180871   22.083208 C.3        1 MOL1        -0.1768
     136    H6      21.134660   18.388184   21.677254 H          1 MOL1         0.0829
     137    H7      20.671582   20.096821   21.511383 H          1 MOL1         0.0829
     138    O1      21.769696   19.044240   24.244275 O.3        1 MOL1        -0.5515
     139    H8      21.594854   18.826263   25.181630 H          1 MOL1         0.3773
@<TRIPOS>BOND
    1     1     2    1
    2     1     3    1
    3     1     4    1
    4     4     5    1
    5     4     6    1
    6     6     7    1
    7     4     8    1
    8     8     9    1
    9     8    10    1
   10    10    11    1
   11     8    12    1
   12    12    13    1
   13    12    14    1
   14    14    15    1
   15     1    16    1
   16    14    16    1
   17    14    17    1
   18    17    18    1
   19    17    19    1
   20    17    20    1
   21    20    21    1
   22    22    23    1
   23    22    24    1
   24    22    25    1
   25    25    26    1
   26    25    27    1
   27    27    28    1
   28    25    29    1
   29    29    30    1
   30    29    31    1
   31    31    32    1
   32     3    33    1
   33    29    33    1
   34    33    34    1
   35    33    35    1
   36    35    36    1
   37    22    37    1
   38    35    37    1
   39    35    38    1
   40    38    39    1
   41    38    40    1
   42    38    41    1
   43    41    42    1
   44    43    44    1
   45    43    45    1
   46    43    46    1
   47    46    47    1
   48    46    48    1
   49    48    49    1
   50    46    50    1
   51    50    51    1
   52    50    52    1
   53    52    53    1
   54    24    54    1
   55    50    54    1
   56    54    55    1
   57    54    56    1
   58    56    57    1
   59    43    58    1
   60    56    58    1
   61    56    59    1
   62    59    60    1
   63    59    61    1
   64    59    62    1
   65    62    63    1
   66    64    65    1
   67    64    66    1
   68    64    67    1
   69    67    68    1
   70    67    69    1
   71    69    70    1
   72    67    71    1
   73    71    72    1
   74    71    73    1
   75    73    74    1
   76    45    75    1
   77    71    75    1
   78    75    76    1
   79    75    77    1
   80    77    78    1
   81    64    79    1
   82    77    79    1
   83    77    80    1
   84    80    81    1
   85    80    82    1
   86    80    83    1
   87    83    84    1
   88    85    86    1
   89    85    87    1
   90    85    88    1
   91    88    89    1
   92    88    90    1
   93    90    91    1
   94    88    92    1
   95    92    93    1
   96    92    94    1
   97    94    95    1
   98    66    96    1
   99    92    96    1
  100    96    97    1
  101    96    98    1
  102    98    99    1
  103    85   100    1
  104    98   100    1
  105    98   101    1
  106   101   102    1
  107   101   103    1
  108   101   104    1
  109   104   105    1
  110   106   107    1
  111    12   108    1
  112   106   108    1
  113   106   109    1
  114   109   110    1
  115   109   111    1
  116   111   112    1
  117   109   113    1
  118   113   114    1
  119   113   115    1
  120   115   116    1
  121    87   117    1
  122   113   117    1
  123   117   118    1
  124   117   119    1
  125   119   120    1
  126   106   121    1
  127   119   121    1
  128   119   122    1
  129   122   123    1
  130   122   124    1
  131   122   125    1
  132   125   126    1
  133   127   128    1
  134   127   129    1
  135   127   130    1
  136   130   131    1
  137   130   132    1
  138   130   133    1
  139   133   134    1
  140   127   135    1
  141   133   135    1
  142   135   136    1
  143   135   137    1
  144   133   138    1
  145   138   139    1
@<TRIPOS>SUBSTRUCTURE
       1 MOL1            1 RESIDUE      1      MOL     
       2 MOL1          139 RESIDUE      1      MOL     
@<SCITEGIC>MOL_PROPERTY
feprocess Rank
SciTegic.value.IntegerValue
32

@<SCITEGIC>MOL_PROPERTY
Conf_Id
SciTegic.value.IntegerValue
457

@<SCITEGIC>MOL_PROPERTY
Probability
SciTegic.value.DoubleValue
0.46

@<SCITEGIC>MOL_PROPERTY
G
SciTegic.value.DoubleValue
547.256

@<SCITEGIC>MOL_PROPERTY
E
SciTegic.value.DoubleValue
368.762

@<SCITEGIC>MOL_PROPERTY
-TS
SciTegic.value.DoubleValue
178.494

@<SCITEGIC>MOL_PROPERTY
U+W
SciTegic.value.DoubleValue
246.251

@<SCITEGIC>MOL_PROPERTY
U
SciTegic.value.DoubleValue
284.227

@<SCITEGIC>MOL_PROPERTY
W
SciTegic.value.DoubleValue
-37.977

@<SCITEGIC>MOL_PROPERTY
W(PB)
SciTegic.value.DoubleValue
-43.920

@<SCITEGIC>MOL_PROPERTY
W(SA)
SciTegic.value.DoubleValue
5.943

@<SCITEGIC>MOL_PROPERTY
Valence
SciTegic.value.DoubleValue
152.556

@<SCITEGIC>MOL_PROPERTY
Coulomb
SciTegic.value.DoubleValue
152.516

@<SCITEGIC>MOL_PROPERTY
VdW
SciTegic.value.DoubleValue
-20.844

@<SCITEGIC>MOL_PROPERTY
VdW6
SciTegic.value.DoubleValue
-168.124

@<SCITEGIC>MOL_PROPERTY
VdW12
SciTegic.value.DoubleValue
147.280

@<SCITEGIC>MOL_PROPERTY
Bond
SciTegic.value.DoubleValue
4.663

@<SCITEGIC>MOL_PROPERTY
Angle
SciTegic.value.DoubleValue
13.183

@<SCITEGIC>MOL_PROPERTY
Pdih
SciTegic.value.DoubleValue
134.710

@<SCITEGIC>MOL_PROPERTY
Idih
SciTegic.value.DoubleValue
0.000

@<SCITEGIC>MOL_PROPERTY
Tether
SciTegic.value.DoubleValue
0.000

@<TRIPOS>MOLECULE
CD_guest-s16_fast_vm2_rndm.mol2 : feprocess host+ligand conformer 33
         139         145           2
SMALL
USER_CHARGES
 
@<TRIPOS>ATOM
       1    C1      16.141624   15.210932   21.666751 C.3        1 MOL1         0.2972
       2    H1      15.049556   15.112669   21.722106 H          1 MOL1         0.0751
       3    O1      16.539522   16.589092   21.518033 O.3        1 MOL1        -0.3740
       4    C2      16.780134   14.651237   22.960173 C.3        1 MOL1         0.1003
       5    H2      16.521272   13.586475   23.026752 H          1 MOL1         0.0783
       6    O2      16.262805   15.341863   24.107978 O.3        1 MOL1        -0.5519
       7    H3      15.958992   16.225041   23.789808 H          1 MOL1         0.3769
       8    C3      18.319630   14.769634   22.905575 C.3        1 MOL1         0.1053
       9    H4      18.571458   15.835879   22.948993 H          1 MOL1         0.0783
      10    O3      18.899951   14.098074   24.029036 O.3        1 MOL1        -0.5519
      11    H5      18.382337   14.408186   24.805077 H          1 MOL1         0.3769
      12    C4      18.899636   14.184581   21.594272 C.3        1 MOL1         0.1018
      13    H6      18.941570   13.091217   21.687357 H          1 MOL1         0.0783
      14    C5      18.096141   14.593901   20.326697 C.3        1 MOL1         0.1043
      15    H7      18.334814   15.643585   20.120611 H          1 MOL1         0.0783
      16    O4      16.667399   14.469015   20.547630 O.3        1 MOL1        -0.3740
      17    C6      18.464882   13.782503   19.061370 C.3        1 MOL1         0.0138
      18    H8      19.465423   14.087981   18.727553 H          1 MOL1         0.0794
      19    H9      17.762213   14.044274   18.258808 H          1 MOL1         0.0794
      20    O5      18.442008   12.370247   19.301802 O.3        1 MOL1        -0.5486
      21    H10     18.607989   11.919278   18.445240 H          1 MOL1         0.3769
      22    C7      15.006648   20.279100   20.314459 C.3        1 MOL1         0.2972
      23    H11     14.426058   21.093482   19.862272 H          1 MOL1         0.0751
      24    O6      16.248890   20.758205   20.865953 O.3        1 MOL1        -0.3740
      25    C8      14.192122   19.542411   21.413881 C.3        1 MOL1         0.1003
      26    H12     13.318449   19.097246   20.920195 H          1 MOL1         0.0783
      27    O7      13.732238   20.436688   22.437353 O.3        1 MOL1        -0.5519
      28    H13     14.536371   20.817929   22.872095 H          1 MOL1         0.3769
      29    C9      15.027582   18.389371   22.024341 C.3        1 MOL1         0.1053
      30    H14     15.889059   18.826377   22.548452 H          1 MOL1         0.0783
      31    O8      14.224082   17.645861   22.946785 O.3        1 MOL1        -0.5519
      32    H15     13.751994   18.322295   23.481462 H          1 MOL1         0.3769
      33    C10     15.557196   17.450382   20.911276 C.3        1 MOL1         0.1018
      34    H16     14.708912   16.882868   20.506264 H          1 MOL1         0.0783
      35    C11     16.236669   18.234875   19.752485 C.3        1 MOL1         0.1043
      36    H17     17.168918   18.673553   20.132643 H          1 MOL1         0.0783
      37    O9      15.345933   19.293444   19.313684 O.3        1 MOL1        -0.3740
      38    C12     16.614151   17.377623   18.515475 C.3        1 MOL1         0.0138
      39    H18     17.641630   17.016229   18.640332 H          1 MOL1         0.0794
      40    H19     16.619180   18.027649   17.630309 H          1 MOL1         0.0794
      41    O10     15.733389   16.267603   18.300327 O.3        1 MOL1        -0.5486
      42    H20     15.912039   15.608778   19.011695 H          1 MOL1         0.3769
      43    C13     18.496788   23.945897   22.113392 C.3        1 MOL1         0.2972
      44    H21     18.913859   24.901134   22.457852 H          1 MOL1         0.0751
      45    O11     19.542683   23.005704   21.798670 O.3        1 MOL1        -0.3740
      46    C14     17.582931   23.348354   23.211678 C.3        1 MOL1         0.1003
      47    H22     16.762439   24.059237   23.373788 H          1 MOL1         0.0783
      48    O12     18.300166   23.170070   24.441241 O.3        1 MOL1        -0.5519
      49    H23     18.939848   22.432077   24.284450 H          1 MOL1         0.3769
      50    C15     16.972529   22.004970   22.756028 C.3        1 MOL1         0.1053
      51    H24     17.786036   21.275514   22.670273 H          1 MOL1         0.0783
      52    O13     16.033249   21.557467   23.738361 O.3        1 MOL1        -0.5519
      53    H25     16.522721   21.596342   24.590241 H          1 MOL1         0.3769
      54    C16     16.296621   22.108283   21.367696 C.3        1 MOL1         0.1018
      55    H26     15.297979   22.550282   21.481810 H          1 MOL1         0.0783
      56    C17     17.140984   22.918788   20.342650 C.3        1 MOL1         0.1043
      57    H27     17.968854   22.271309   20.034671 H          1 MOL1         0.0783
      58    O14     17.691173   24.129704   20.928283 O.3        1 MOL1        -0.3740
      59    C18     16.358253   23.298361   19.063088 C.3        1 MOL1         0.0138
      60    H28     16.170697   22.383361   18.485075 H          1 MOL1         0.0794
      61    H29     16.988585   23.950845   18.444057 H          1 MOL1         0.0794
      62    O15     15.116245   23.945590   19.364583 O.3        1 MOL1        -0.5486
      63    H30     14.712505   24.227547   18.514708 H          1 MOL1         0.3769
      64    C19     23.572877   22.719493   20.897146 C.3        1 MOL1         0.2972
      65    H31     24.605435   22.848513   20.547633 H          1 MOL1         0.0751
      66    O16     23.323554   21.371045   21.342893 O.3        1 MOL1        -0.3740
      67    C20     23.252399   23.686258   22.064101 C.3        1 MOL1         0.1003
      68    H32     23.373004   24.707570   21.680007 H          1 MOL1         0.0783
      69    O17     24.153631   23.492627   23.165707 O.3        1 MOL1        -0.5519
      70    H33     24.129854   22.530750   23.402534 H          1 MOL1         0.3769
      71    C21     21.782714   23.525167   22.529035 C.3        1 MOL1         0.1053
      72    H34     21.682104   22.545733   23.015908 H          1 MOL1         0.0783
      73    O18     21.480955   24.566714   23.462450 O.3        1 MOL1        -0.5519
      74    H35     22.214795   24.551289   24.115047 H          1 MOL1         0.3769
      75    C22     20.785675   23.576089   21.339053 C.3        1 MOL1         0.1018
      76    H36     20.666477   24.623962   21.034678 H          1 MOL1         0.0783
      77    C23     21.256114   22.738069   20.113231 C.3        1 MOL1         0.1043
      78    H37     21.155062   21.675564   20.362400 H          1 MOL1         0.0783
      79    O19     22.647387   23.022078   19.831896 O.3        1 MOL1        -0.3740
      80    C24     20.441667   22.968078   18.812191 C.3        1 MOL1         0.0138
      81    H38     19.648523   22.212977   18.758968 H          1 MOL1         0.0794
      82    H39     21.099427   22.785387   17.951881 H          1 MOL1         0.0794
      83    O20     19.870674   24.279772   18.718268 O.3        1 MOL1        -0.5486
      84    H40     19.193607   24.359802   19.429889 H          1 MOL1         0.3769
      85    C25     25.003904   17.652601   21.851033 C.3        1 MOL1         0.2972
      86    H41     25.643599   16.769956   21.981466 H          1 MOL1         0.0751
      87    O21     23.620783   17.288378   21.680168 O.3        1 MOL1        -0.3740
      88    C26     25.107113   18.567281   23.093213 C.3        1 MOL1         0.1003
      89    H42     26.147368   18.908847   23.173118 H          1 MOL1         0.0783
      90    O22     24.746314   17.846255   24.282946 O.3        1 MOL1        -0.5519
      91    H43     24.321084   17.002773   23.990816 H          1 MOL1         0.3769
      92    C27     24.200999   19.805651   22.919217 C.3        1 MOL1         0.1053
      93    H44     23.164402   19.452622   22.902652 H          1 MOL1         0.0783
      94    O23     24.390804   20.696105   24.022708 O.3        1 MOL1        -0.5519
      95    H45     24.395671   20.113647   24.815425 H          1 MOL1         0.3769
      96    C28     24.474595   20.538115   21.582553 C.3        1 MOL1         0.1018
      97    H46     25.397418   21.124370   21.685740 H          1 MOL1         0.0783
      98    C29     24.581501   19.564322   20.373017 C.3        1 MOL1         0.1043
      99    H47     23.567242   19.216972   20.141358 H          1 MOL1         0.0783
     100    O24     25.409121   18.415356   20.694980 O.3        1 MOL1        -0.3740
     101    C30     25.139877   20.227915   19.091694 C.3        1 MOL1         0.0138
     102    H48     24.383983   20.922304   18.700479 H          1 MOL1         0.0794
     103    H49     25.292484   19.450291   18.331146 H          1 MOL1         0.0794
     104    O25     26.363640   20.931068   19.339031 O.3        1 MOL1        -0.5486
     105    H50     26.698241   21.259639   18.476049 H          1 MOL1         0.3769
     106    C31     21.261366   13.923894   20.976305 C.3        1 MOL1         0.2972
     107    H51     20.883712   12.944396   20.655387 H          1 MOL1         0.0751
     108    O26     20.207109   14.770073   21.469183 O.3        1 MOL1        -0.3740
     109    C32     22.296802   13.774175   22.122057 C.3        1 MOL1         0.1003
     110    H52     23.122094   13.156230   21.745209 H          1 MOL1         0.0783
     111    O27     21.704507   13.134204   23.264716 O.3        1 MOL1        -0.5519
     112    H53     20.842241   13.588170   23.442357 H          1 MOL1         0.3769
     113    C33     22.871270   15.156559   22.522649 C.3        1 MOL1         0.1053
     114    H54     22.059624   15.737048   22.979119 H          1 MOL1         0.0783
     115    O28     23.932538   14.987436   23.468083 O.3        1 MOL1        -0.5519
     116    H55     23.600758   14.318897   24.108591 H          1 MOL1         0.3769
     117    C34     23.380779   15.929212   21.280341 C.3        1 MOL1         0.1018
     118    H56     24.292096   15.441840   20.909143 H          1 MOL1         0.0783
     119    C35     22.327115   15.962452   20.142843 C.3        1 MOL1         0.1043
     120    H57     21.469262   16.557288   20.482301 H          1 MOL1         0.0783
     121    O29     21.898527   14.605957   19.871780 O.3        1 MOL1        -0.3740
     122    C36     22.825327   16.608163   18.822907 C.3        1 MOL1         0.0138
     123    H58     22.598543   17.681146   18.856207 H          1 MOL1         0.0794
     124    H59     22.247745   16.189208   17.988158 H          1 MOL1         0.0794
     125    O30     24.228107   16.423608   18.592599 O.3        1 MOL1        -0.5486
     126    H60     24.708151   16.980807   19.248396 H          1 MOL1         0.3769
     127    C1      19.511598   18.344480   22.487006 C.3        1 MOL1        -0.1693
     128    H1      19.603734   17.530596   21.759940 H          1 MOL1         0.0829
     129    H2      18.451878   18.468803   22.744858 H          1 MOL1         0.0829
     130    C2      20.247194   19.670744   22.118887 C.3        1 MOL1        -0.1768
     131    H3      21.159797   19.531611   21.528063 H          1 MOL1         0.0829
     132    H4      19.628469   20.430723   21.635772 H          1 MOL1         0.0829
     133    C3      20.496066   19.850320   23.650819 C.3        1 MOL1         0.1211
     134    H5      21.456530   20.310629   23.910468 H          1 MOL1         0.0786
     135    C4      20.478703   18.291411   23.715980 C.3        1 MOL1        -0.1768
     136    H6      20.067408   17.850830   24.630514 H          1 MOL1         0.0829
     137    H7      21.450929   17.830337   23.512488 H          1 MOL1         0.0829
     138    O1      19.463252   20.486912   24.372864 O.3        1 MOL1        -0.5515
     139    H8      19.562907   20.215635   25.307665 H          1 MOL1         0.3773
@<TRIPOS>BOND
    1     1     2    1
    2     1     3    1
    3     1     4    1
    4     4     5    1
    5     4     6    1
    6     6     7    1
    7     4     8    1
    8     8     9    1
    9     8    10    1
   10    10    11    1
   11     8    12    1
   12    12    13    1
   13    12    14    1
   14    14    15    1
   15     1    16    1
   16    14    16    1
   17    14    17    1
   18    17    18    1
   19    17    19    1
   20    17    20    1
   21    20    21    1
   22    22    23    1
   23    22    24    1
   24    22    25    1
   25    25    26    1
   26    25    27    1
   27    27    28    1
   28    25    29    1
   29    29    30    1
   30    29    31    1
   31    31    32    1
   32     3    33    1
   33    29    33    1
   34    33    34    1
   35    33    35    1
   36    35    36    1
   37    22    37    1
   38    35    37    1
   39    35    38    1
   40    38    39    1
   41    38    40    1
   42    38    41    1
   43    41    42    1
   44    43    44    1
   45    43    45    1
   46    43    46    1
   47    46    47    1
   48    46    48    1
   49    48    49    1
   50    46    50    1
   51    50    51    1
   52    50    52    1
   53    52    53    1
   54    24    54    1
   55    50    54    1
   56    54    55    1
   57    54    56    1
   58    56    57    1
   59    43    58    1
   60    56    58    1
   61    56    59    1
   62    59    60    1
   63    59    61    1
   64    59    62    1
   65    62    63    1
   66    64    65    1
   67    64    66    1
   68    64    67    1
   69    67    68    1
   70    67    69    1
   71    69    70    1
   72    67    71    1
   73    71    72    1
   74    71    73    1
   75    73    74    1
   76    45    75    1
   77    71    75    1
   78    75    76    1
   79    75    77    1
   80    77    78    1
   81    64    79    1
   82    77    79    1
   83    77    80    1
   84    80    81    1
   85    80    82    1
   86    80    83    1
   87    83    84    1
   88    85    86    1
   89    85    87    1
   90    85    88    1
   91    88    89    1
   92    88    90    1
   93    90    91    1
   94    88    92    1
   95    92    93    1
   96    92    94    1
   97    94    95    1
   98    66    96    1
   99    92    96    1
  100    96    97    1
  101    96    98    1
  102    98    99    1
  103    85   100    1
  104    98   100    1
  105    98   101    1
  106   101   102    1
  107   101   103    1
  108   101   104    1
  109   104   105    1
  110   106   107    1
  111    12   108    1
  112   106   108    1
  113   106   109    1
  114   109   110    1
  115   109   111    1
  116   111   112    1
  117   109   113    1
  118   113   114    1
  119   113   115    1
  120   115   116    1
  121    87   117    1
  122   113   117    1
  123   117   118    1
  124   117   119    1
  125   119   120    1
  126   106   121    1
  127   119   121    1
  128   119   122    1
  129   122   123    1
  130   122   124    1
  131   122   125    1
  132   125   126    1
  133   127   128    1
  134   127   129    1
  135   127   130    1
  136   130   131    1
  137   130   132    1
  138   130   133    1
  139   133   134    1
  140   127   135    1
  141   133   135    1
  142   135   136    1
  143   135   137    1
  144   133   138    1
  145   138   139    1
@<TRIPOS>SUBSTRUCTURE
       1 MOL1            1 RESIDUE      1      MOL     
       2 MOL1          139 RESIDUE      1      MOL     
@<SCITEGIC>MOL_PROPERTY
feprocess Rank
SciTegic.value.IntegerValue
33

@<SCITEGIC>MOL_PROPERTY
Conf_Id
SciTegic.value.IntegerValue
578

@<SCITEGIC>MOL_PROPERTY
Probability
SciTegic.value.DoubleValue
0.44

@<SCITEGIC>MOL_PROPERTY
G
SciTegic.value.DoubleValue
547.284

@<SCITEGIC>MOL_PROPERTY
E
SciTegic.value.DoubleValue
369.103

@<SCITEGIC>MOL_PROPERTY
-TS
SciTegic.value.DoubleValue
178.181

@<SCITEGIC>MOL_PROPERTY
U+W
SciTegic.value.DoubleValue
246.592

@<SCITEGIC>MOL_PROPERTY
U
SciTegic.value.DoubleValue
284.761

@<SCITEGIC>MOL_PROPERTY
W
SciTegic.value.DoubleValue
-38.169

@<SCITEGIC>MOL_PROPERTY
W(PB)
SciTegic.value.DoubleValue
-44.180

@<SCITEGIC>MOL_PROPERTY
W(SA)
SciTegic.value.DoubleValue
6.011

@<SCITEGIC>MOL_PROPERTY
Valence
SciTegic.value.DoubleValue
152.588

@<SCITEGIC>MOL_PROPERTY
Coulomb
SciTegic.value.DoubleValue
152.293

@<SCITEGIC>MOL_PROPERTY
VdW
SciTegic.value.DoubleValue
-20.120

@<SCITEGIC>MOL_PROPERTY
VdW6
SciTegic.value.DoubleValue
-167.677

@<SCITEGIC>MOL_PROPERTY
VdW12
SciTegic.value.DoubleValue
147.557

@<SCITEGIC>MOL_PROPERTY
Bond
SciTegic.value.DoubleValue
4.609

@<SCITEGIC>MOL_PROPERTY
Angle
SciTegic.value.DoubleValue
12.244

@<SCITEGIC>MOL_PROPERTY
Pdih
SciTegic.value.DoubleValue
135.735

@<SCITEGIC>MOL_PROPERTY
Idih
SciTegic.value.DoubleValue
0.000

@<SCITEGIC>MOL_PROPERTY
Tether
SciTegic.value.DoubleValue
0.000

@<TRIPOS>MOLECULE
CD_guest-s16_fast_vm2_rndm.mol2 : feprocess host+ligand conformer 34
         139         145           2
SMALL
USER_CHARGES
 
@<TRIPOS>ATOM
       1    C1      16.172265   15.278650   21.655196 C.3        1 MOL1         0.2972
       2    H1      15.091020   15.124919   21.767144 H          1 MOL1         0.0751
       3    O1      16.494901   16.667799   21.461335 O.3        1 MOL1        -0.3740
       4    C2      16.907462   14.791754   22.925619 C.3        1 MOL1         0.1003
       5    H2      16.714823   13.716281   23.032341 H          1 MOL1         0.0783
       6    O2      16.417337   15.483217   24.086185 O.3        1 MOL1        -0.5519
       7    H3      15.904026   16.262401   23.759932 H          1 MOL1         0.3769
       8    C3      18.431354   14.998449   22.777534 C.3        1 MOL1         0.1053
       9    H4      18.618089   16.077688   22.740887 H          1 MOL1         0.0783
      10    O3      19.102833   14.428107   23.905193 O.3        1 MOL1        -0.5519
      11    H5      18.590682   14.739579   24.684883 H          1 MOL1         0.3769
      12    C4      18.967529   14.375829   21.465630 C.3        1 MOL1         0.1018
      13    H6      19.018276   13.286068   21.592233 H          1 MOL1         0.0783
      14    C5      18.091468   14.734965   20.230324 C.3        1 MOL1         0.1043
      15    H7      18.268539   15.792199   19.996593 H          1 MOL1         0.0783
      16    O4      16.682123   14.544083   20.522758 O.3        1 MOL1        -0.3740
      17    C6      18.439933   13.921273   18.961116 C.3        1 MOL1         0.0138
      18    H8      19.414604   14.260545   18.585046 H          1 MOL1         0.0794
      19    H9      17.695942   14.145867   18.184935 H          1 MOL1         0.0794
      20    O5      18.481755   12.512353   19.219109 O.3        1 MOL1        -0.5486
      21    H10     18.624186   12.056342   18.360989 H          1 MOL1         0.3769
      22    C7      14.706184   20.316263   20.600309 C.3        1 MOL1         0.2972
      23    H11     14.066681   21.136494   20.249571 H          1 MOL1         0.0751
      24    O6      15.966399   20.792934   21.104144 O.3        1 MOL1        -0.3740
      25    C8      14.025412   19.506898   21.736068 C.3        1 MOL1         0.1003
      26    H12     13.113106   19.060006   21.320158 H          1 MOL1         0.0783
      27    O7      13.672204   20.350919   22.842971 O.3        1 MOL1        -0.5519
      28    H13     14.485291   20.855102   23.101397 H          1 MOL1         0.3769
      29    C9      14.953371   18.357040   22.204642 C.3        1 MOL1         0.1053
      30    H14     15.843751   18.802847   22.668688 H          1 MOL1         0.0783
      31    O8      14.271150   17.538668   23.160777 O.3        1 MOL1        -0.5519
      32    H15     13.818213   18.171626   23.761936 H          1 MOL1         0.3769
      33    C10     15.414795   17.496832   21.001747 C.3        1 MOL1         0.1018
      34    H16     14.561471   16.904271   20.646505 H          1 MOL1         0.0783
      35    C11     15.954684   18.358686   19.828277 C.3        1 MOL1         0.1043
      36    H17     16.895227   18.822901   20.147512 H          1 MOL1         0.0783
      37    O9      14.987259   19.394860   19.520841 O.3        1 MOL1        -0.3740
      38    C12     16.275644   17.562031   18.536410 C.3        1 MOL1         0.0138
      39    H18     17.326675   17.249433   18.577403 H          1 MOL1         0.0794
      40    H19     16.181160   18.237916   17.676124 H          1 MOL1         0.0794
      41    O10     15.441545   16.410595   18.353054 O.3        1 MOL1        -0.5486
      42    H20     15.714434   15.743585   19.025149 H          1 MOL1         0.3769
      43    C13     18.445243   23.954133   21.767446 C.3        1 MOL1         0.2972
      44    H21     18.936171   24.921478   21.936705 H          1 MOL1         0.0751
      45    O11     19.410407   22.890522   21.617278 O.3        1 MOL1        -0.3740
      46    C14     17.524579   23.627161   22.964899 C.3        1 MOL1         0.1003
      47    H22     16.763062   24.415863   23.021925 H          1 MOL1         0.0783
      48    O12     18.276291   23.598544   24.189593 O.3        1 MOL1        -0.5519
      49    H23     19.226168   23.731435   23.948808 H          1 MOL1         0.3769
      50    C15     16.808198   22.278328   22.744411 C.3        1 MOL1         0.1053
      51    H24     17.569004   21.490910   22.783603 H          1 MOL1         0.0783
      52    O13     15.854482   22.069289   23.790071 O.3        1 MOL1        -0.5519
      53    H25     16.334961   22.302765   24.616015 H          1 MOL1         0.3769
      54    C16     16.114578   22.198135   21.361420 C.3        1 MOL1         0.1018
      55    H26     15.149082   22.718266   21.413966 H          1 MOL1         0.0783
      56    C17     16.983864   22.761978   20.199041 C.3        1 MOL1         0.1043
      57    H27     17.754941   22.017187   19.970048 H          1 MOL1         0.0783
      58    O14     17.634579   24.002695   20.575493 O.3        1 MOL1        -0.3740
      59    C18     16.187383   22.997493   18.894068 C.3        1 MOL1         0.0138
      60    H28     15.907796   22.020658   18.476515 H          1 MOL1         0.0794
      61    H29     16.845906   23.487333   18.164172 H          1 MOL1         0.0794
      62    O15     15.011863   23.786881   19.114645 O.3        1 MOL1        -0.5486
      63    H30     14.596574   23.953544   18.240327 H          1 MOL1         0.3769
      64    C19     23.571905   22.613125   21.103598 C.3        1 MOL1         0.2972
      65    H31     24.607804   22.830083   20.812354 H          1 MOL1         0.0751
      66    O16     23.436402   21.286861   21.644900 O.3        1 MOL1        -0.3740
      67    C20     23.092283   23.595646   22.205068 C.3        1 MOL1         0.1003
      68    H32     23.189072   24.613189   21.804741 H          1 MOL1         0.0783
      69    O17     23.903812   23.469615   23.384852 O.3        1 MOL1        -0.5519
      70    H33     24.031781   22.501879   23.550144 H          1 MOL1         0.3769
      71    C21     21.600281   23.356154   22.553807 C.3        1 MOL1         0.1053
      72    H34     21.513783   22.376983   23.042484 H          1 MOL1         0.0783
      73    O18     21.145758   24.379885   23.445492 O.3        1 MOL1        -0.5519
      74    H35     21.862432   24.473352   24.112767 H          1 MOL1         0.3769
      75    C22     20.734840   23.338373   21.269049 C.3        1 MOL1         0.1018
      76    H36     20.719909   24.351442   20.845041 H          1 MOL1         0.0783
      77    C23     21.309100   22.372350   20.200533 C.3        1 MOL1         0.1043
      78    H37     21.262732   21.346456   20.584657 H          1 MOL1         0.0783
      79    O19     22.691187   22.730507   19.961643 O.3        1 MOL1        -0.3740
      80    C24     20.540281   22.386061   18.853383 C.3        1 MOL1         0.0138
      81    H38     19.721529   21.657547   18.915671 H          1 MOL1         0.0794
      82    H39     21.215108   22.036629   18.060854 H          1 MOL1         0.0794
      83    O20     20.009299   23.675301   18.518171 O.3        1 MOL1        -0.5486
      84    H40     19.286453   23.869870   19.158399 H          1 MOL1         0.3769
      85    C25     25.222293   17.603362   21.838984 C.3        1 MOL1         0.2972
      86    H41     25.877278   16.723388   21.878357 H          1 MOL1         0.0751
      87    O21     23.832129   17.229046   21.795870 O.3        1 MOL1        -0.3740
      88    C26     25.440967   18.477915   23.096107 C.3        1 MOL1         0.1003
      89    H42     26.483633   18.821340   23.089061 H          1 MOL1         0.0783
      90    O22     25.197212   17.706894   24.283255 O.3        1 MOL1        -0.5519
      91    H43     24.552169   17.001690   24.033723 H          1 MOL1         0.3769
      92    C27     24.522228   19.720790   23.060684 C.3        1 MOL1         0.1053
      93    H44     23.488921   19.372711   23.178614 H          1 MOL1         0.0783
      94    O23     24.850756   20.600700   24.141175 O.3        1 MOL1        -0.5519
      95    H45     24.915130   20.020009   24.931751 H          1 MOL1         0.3769
      96    C28     24.629867   20.485089   21.717354 C.3        1 MOL1         0.1018
      97    H46     25.539852   21.099092   21.741175 H          1 MOL1         0.0783
      98    C29     24.638109   19.551689   20.471807 C.3        1 MOL1         0.1043
      99    H47     23.611037   19.197070   20.325887 H          1 MOL1         0.0783
     100    O24     25.509121   18.408813   20.678232 O.3        1 MOL1        -0.3740
     101    C30     25.070605   20.255415   19.162979 C.3        1 MOL1         0.0138
     102    H48     24.268194   20.934505   18.846580 H          1 MOL1         0.0794
     103    H49     25.180194   19.496445   18.376642 H          1 MOL1         0.0794
     104    O25     26.292821   20.986084   19.322317 O.3        1 MOL1        -0.5486
     105    H50     26.541099   21.346819   18.443268 H          1 MOL1         0.3769
     106    C31     21.306139   14.062531   20.801112 C.3        1 MOL1         0.2972
     107    H51     20.891251   13.121473   20.417567 H          1 MOL1         0.0751
     108    O26     20.268122   14.957612   21.248413 O.3        1 MOL1        -0.3740
     109    C32     22.276112   13.801239   21.984564 C.3        1 MOL1         0.1003
     110    H52     23.081190   13.156320   21.609101 H          1 MOL1         0.0783
     111    O27     21.611546   13.136037   23.070330 O.3        1 MOL1        -0.5519
     112    H53     20.808559   13.670245   23.298406 H          1 MOL1         0.3769
     113    C33     22.915234   15.125021   22.472294 C.3        1 MOL1         0.1053
     114    H54     22.122981   15.743016   22.914283 H          1 MOL1         0.0783
     115    O28     23.915079   14.845898   23.458089 O.3        1 MOL1        -0.5519
     116    H55     23.505554   14.184963   24.059685 H          1 MOL1         0.3769
     117    C34     23.540462   15.912514   21.294294 C.3        1 MOL1         0.1018
     118    H56     24.445153   15.386308   20.962303 H          1 MOL1         0.0783
     119    C35     22.555415   16.048113   20.098257 C.3        1 MOL1         0.1043
     120    H57     21.720046   16.690169   20.406365 H          1 MOL1         0.0783
     121    O29     22.049567   14.733768   19.760774 O.3        1 MOL1        -0.3740
     122    C36     23.159086   16.676256   18.814429 C.3        1 MOL1         0.0138
     123    H58     22.991826   17.759406   18.841486 H          1 MOL1         0.0794
     124    H59     22.602250   16.297165   17.947078 H          1 MOL1         0.0794
     125    O30     24.556908   16.407971   18.651580 O.3        1 MOL1        -0.5486
     126    H60     25.038903   16.988070   19.286523 H          1 MOL1         0.3769
     127    C1      20.361274   18.279001   23.617594 C.3        1 MOL1        -0.1693
     128    H1      20.417351   17.190820   23.498982 H          1 MOL1         0.0829
     129    H2      20.785219   18.545162   24.592853 H          1 MOL1         0.0829
     130    C2      18.972800   18.914798   23.275186 C.3        1 MOL1        -0.1768
     131    H3      18.092937   18.298743   23.488895 H          1 MOL1         0.0829
     132    H4      18.818697   19.909856   23.707065 H          1 MOL1         0.0829
     133    C3      19.469261   18.901077   21.797130 C.3        1 MOL1         0.1211
     134    H5      19.329494   17.936680   21.290548 H          1 MOL1         0.0786
     135    C4      20.889171   19.097548   22.396841 C.3        1 MOL1        -0.1768
     136    H6      21.150947   20.134509   22.631367 H          1 MOL1         0.0829
     137    H7      21.703013   18.650171   21.822663 H          1 MOL1         0.0829
     138    O1      19.028787   19.956922   20.979480 O.3        1 MOL1        -0.5515
     139    H8      19.138590   20.787769   21.486975 H          1 MOL1         0.3773
@<TRIPOS>BOND
    1     1     2    1
    2     1     3    1
    3     1     4    1
    4     4     5    1
    5     4     6    1
    6     6     7    1
    7     4     8    1
    8     8     9    1
    9     8    10    1
   10    10    11    1
   11     8    12    1
   12    12    13    1
   13    12    14    1
   14    14    15    1
   15     1    16    1
   16    14    16    1
   17    14    17    1
   18    17    18    1
   19    17    19    1
   20    17    20    1
   21    20    21    1
   22    22    23    1
   23    22    24    1
   24    22    25    1
   25    25    26    1
   26    25    27    1
   27    27    28    1
   28    25    29    1
   29    29    30    1
   30    29    31    1
   31    31    32    1
   32     3    33    1
   33    29    33    1
   34    33    34    1
   35    33    35    1
   36    35    36    1
   37    22    37    1
   38    35    37    1
   39    35    38    1
   40    38    39    1
   41    38    40    1
   42    38    41    1
   43    41    42    1
   44    43    44    1
   45    43    45    1
   46    43    46    1
   47    46    47    1
   48    46    48    1
   49    48    49    1
   50    46    50    1
   51    50    51    1
   52    50    52    1
   53    52    53    1
   54    24    54    1
   55    50    54    1
   56    54    55    1
   57    54    56    1
   58    56    57    1
   59    43    58    1
   60    56    58    1
   61    56    59    1
   62    59    60    1
   63    59    61    1
   64    59    62    1
   65    62    63    1
   66    64    65    1
   67    64    66    1
   68    64    67    1
   69    67    68    1
   70    67    69    1
   71    69    70    1
   72    67    71    1
   73    71    72    1
   74    71    73    1
   75    73    74    1
   76    45    75    1
   77    71    75    1
   78    75    76    1
   79    75    77    1
   80    77    78    1
   81    64    79    1
   82    77    79    1
   83    77    80    1
   84    80    81    1
   85    80    82    1
   86    80    83    1
   87    83    84    1
   88    85    86    1
   89    85    87    1
   90    85    88    1
   91    88    89    1
   92    88    90    1
   93    90    91    1
   94    88    92    1
   95    92    93    1
   96    92    94    1
   97    94    95    1
   98    66    96    1
   99    92    96    1
  100    96    97    1
  101    96    98    1
  102    98    99    1
  103    85   100    1
  104    98   100    1
  105    98   101    1
  106   101   102    1
  107   101   103    1
  108   101   104    1
  109   104   105    1
  110   106   107    1
  111    12   108    1
  112   106   108    1
  113   106   109    1
  114   109   110    1
  115   109   111    1
  116   111   112    1
  117   109   113    1
  118   113   114    1
  119   113   115    1
  120   115   116    1
  121    87   117    1
  122   113   117    1
  123   117   118    1
  124   117   119    1
  125   119   120    1
  126   106   121    1
  127   119   121    1
  128   119   122    1
  129   122   123    1
  130   122   124    1
  131   122   125    1
  132   125   126    1
  133   127   128    1
  134   127   129    1
  135   127   130    1
  136   130   131    1
  137   130   132    1
  138   130   133    1
  139   133   134    1
  140   127   135    1
  141   133   135    1
  142   135   136    1
  143   135   137    1
  144   133   138    1
  145   138   139    1
@<TRIPOS>SUBSTRUCTURE
       1 MOL1            1 RESIDUE      1      MOL     
       2 MOL1          139 RESIDUE      1      MOL     
@<SCITEGIC>MOL_PROPERTY
feprocess Rank
SciTegic.value.IntegerValue
34

@<SCITEGIC>MOL_PROPERTY
Conf_Id
SciTegic.value.IntegerValue
394

@<SCITEGIC>MOL_PROPERTY
Probability
SciTegic.value.DoubleValue
0.43

@<SCITEGIC>MOL_PROPERTY
G
SciTegic.value.DoubleValue
547.303

@<SCITEGIC>MOL_PROPERTY
E
SciTegic.value.DoubleValue
368.979

@<SCITEGIC>MOL_PROPERTY
-TS
SciTegic.value.DoubleValue
178.324

@<SCITEGIC>MOL_PROPERTY
U+W
SciTegic.value.DoubleValue
246.468

@<SCITEGIC>MOL_PROPERTY
U
SciTegic.value.DoubleValue
280.976

@<SCITEGIC>MOL_PROPERTY
W
SciTegic.value.DoubleValue
-34.509

@<SCITEGIC>MOL_PROPERTY
W(PB)
SciTegic.value.DoubleValue
-40.489

@<SCITEGIC>MOL_PROPERTY
W(SA)
SciTegic.value.DoubleValue
5.981

@<SCITEGIC>MOL_PROPERTY
Valence
SciTegic.value.DoubleValue
153.993

@<SCITEGIC>MOL_PROPERTY
Coulomb
SciTegic.value.DoubleValue
149.452

@<SCITEGIC>MOL_PROPERTY
VdW
SciTegic.value.DoubleValue
-22.469

@<SCITEGIC>MOL_PROPERTY
VdW6
SciTegic.value.DoubleValue
-169.490

@<SCITEGIC>MOL_PROPERTY
VdW12
SciTegic.value.DoubleValue
147.022

@<SCITEGIC>MOL_PROPERTY
Bond
SciTegic.value.DoubleValue
4.546

@<SCITEGIC>MOL_PROPERTY
Angle
SciTegic.value.DoubleValue
11.772

@<SCITEGIC>MOL_PROPERTY
Pdih
SciTegic.value.DoubleValue
137.675

@<SCITEGIC>MOL_PROPERTY
Idih
SciTegic.value.DoubleValue
0.000

@<SCITEGIC>MOL_PROPERTY
Tether
SciTegic.value.DoubleValue
0.000

@<TRIPOS>MOLECULE
CD_guest-s16_fast_vm2_rndm.mol2 : feprocess host+ligand conformer 35
         139         145           2
SMALL
USER_CHARGES
 
@<TRIPOS>ATOM
       1    C1      16.191854   15.093643   20.613288 C.3        1 MOL1         0.2972
       2    H1      15.126366   15.076512   20.350266 H          1 MOL1         0.0751
       3    O1      16.626280   16.426199   20.977446 O.3        1 MOL1        -0.3740
       4    C2      16.495115   14.105316   21.768598 C.3        1 MOL1         0.1003
       5    H2      16.289820   13.094304   21.392965 H          1 MOL1         0.0783
       6    O2      15.668723   14.347677   22.916362 O.3        1 MOL1        -0.5519
       7    H3      15.870556   15.264609   23.231358 H          1 MOL1         0.3769
       8    C3      17.993448   14.178387   22.141202 C.3        1 MOL1         0.1053
       9    H4      18.193896   15.178905   22.549361 H          1 MOL1         0.0783
      10    O3      18.297762   13.190881   23.132554 O.3        1 MOL1        -0.5519
      11    H5      17.570705   13.254298   23.790968 H          1 MOL1         0.3769
      12    C4      18.900823   13.967516   20.901658 C.3        1 MOL1         0.1018
      13    H6      18.964776   12.889985   20.702183 H          1 MOL1         0.0783
      14    C5      18.414429   14.723463   19.627603 C.3        1 MOL1         0.1043
      15    H7      18.699277   15.774921   19.726661 H          1 MOL1         0.0783
      16    O4      16.973888   14.649921   19.486779 O.3        1 MOL1        -0.3740
      17    C6      19.048616   14.203781   18.315299 C.3        1 MOL1         0.0138
      18    H8      20.106141   14.494849   18.295146 H          1 MOL1         0.0794
      19    H9      18.559933   14.705541   17.469438 H          1 MOL1         0.0794
      20    O5      18.931216   12.781400   18.183714 O.3        1 MOL1        -0.5486
      21    H10     19.314794   12.530035   17.315327 H          1 MOL1         0.3769
      22    C7      15.105001   20.152319   22.059892 C.3        1 MOL1         0.2972
      23    H11     14.471316   20.992430   22.373000 H          1 MOL1         0.0751
      24    O6      16.412701   20.595891   21.656437 O.3        1 MOL1        -0.3740
      25    C8      15.276122   19.155639   23.230568 C.3        1 MOL1         0.1003
      26    H12     14.279039   18.776758   23.490427 H          1 MOL1         0.0783
      27    O7      15.848337   19.809704   24.375398 O.3        1 MOL1        -0.5519
      28    H13     16.111743   20.717848   24.086475 H          1 MOL1         0.3769
      29    C9      16.150753   17.955921   22.799635 C.3        1 MOL1         0.1053
      30    H14     17.162775   18.331719   22.605924 H          1 MOL1         0.0783
      31    O8      16.187516   17.004240   23.865742 O.3        1 MOL1        -0.5519
      32    H15     16.379818   17.539473   24.668639 H          1 MOL1         0.3769
      33    C10     15.602316   17.301738   21.503544 C.3        1 MOL1         0.1018
      34    H16     14.686233   16.751449   21.757350 H          1 MOL1         0.0783
      35    C11     15.289270   18.353327   20.400245 C.3        1 MOL1         0.1043
      36    H17     16.244265   18.739134   20.024427 H          1 MOL1         0.0783
      37    O9      14.513888   19.453829   20.943713 O.3        1 MOL1        -0.3740
      38    C12     14.523953   17.769287   19.188883 C.3        1 MOL1         0.0138
      39    H18     15.204171   17.111706   18.630601 H          1 MOL1         0.0794
      40    H19     14.244502   18.593717   18.519103 H          1 MOL1         0.0794
      41    O10     13.360086   17.035832   19.590004 O.3        1 MOL1        -0.5486
      42    H20     12.883066   16.764901   18.775432 H          1 MOL1         0.3769
      43    C13     18.486869   24.135100   20.930574 C.3        1 MOL1         0.2972
      44    H21     18.771445   25.155952   20.645259 H          1 MOL1         0.0751
      45    O11     19.634622   23.321862   21.245004 O.3        1 MOL1        -0.3740
      46    C14     17.585377   24.149252   22.193021 C.3        1 MOL1         0.1003
      47    H22     16.683522   24.725616   21.948951 H          1 MOL1         0.0783
      48    O12     18.259823   24.773078   23.297866 O.3        1 MOL1        -0.5519
      49    H23     19.207154   24.485328   23.267071 H          1 MOL1         0.3769
      50    C15     17.147634   22.710200   22.567947 C.3        1 MOL1         0.1053
      51    H24     18.039308   22.147636   22.877762 H          1 MOL1         0.0783
      52    O13     16.208271   22.757293   23.646706 O.3        1 MOL1        -0.5519
      53    H25     16.580434   23.413067   24.278737 H          1 MOL1         0.3769
      54    C16     16.523620   21.994109   21.344357 C.3        1 MOL1         0.1018
      55    H26     15.546418   22.445467   21.127055 H          1 MOL1         0.0783
      56    C17     17.422027   22.105140   20.086199 C.3        1 MOL1         0.1043
      57    H27     18.345852   21.547830   20.277993 H          1 MOL1         0.0783
      58    O14     17.751292   23.496163   19.861702 O.3        1 MOL1        -0.3740
      59    C18     16.790615   21.511757   18.798993 C.3        1 MOL1         0.0138
      60    H28     17.050845   20.447175   18.745384 H          1 MOL1         0.0794
      61    H29     17.250185   21.995611   17.926878 H          1 MOL1         0.0794
      62    O15     15.365329   21.653919   18.748746 O.3        1 MOL1        -0.5486
      63    H30     14.985922   21.055349   19.432512 H          1 MOL1         0.3769
      64    C19     23.701081   22.924730   20.948461 C.3        1 MOL1         0.2972
      65    H31     24.783564   23.007724   20.793072 H          1 MOL1         0.0751
      66    O16     23.298993   21.549173   21.149097 O.3        1 MOL1        -0.3740
      67    C20     23.239030   23.803784   22.139804 C.3        1 MOL1         0.1003
      68    H32     23.419849   24.849248   21.857238 H          1 MOL1         0.0783
      69    O17     23.974689   23.521510   23.338304 O.3        1 MOL1        -0.5519
      70    H33     23.733404   22.601177   23.611585 H          1 MOL1         0.3769
      71    C21     21.717988   23.629866   22.359964 C.3        1 MOL1         0.1053
      72    H34     21.529129   22.588472   22.655425 H          1 MOL1         0.0783
      73    O18     21.272433   24.512335   23.395395 O.3        1 MOL1        -0.5519
      74    H35     21.943336   24.432481   24.109571 H          1 MOL1         0.3769
      75    C22     20.930947   23.917151   21.056200 C.3        1 MOL1         0.1018
      76    H36     20.871773   25.005474   20.924582 H          1 MOL1         0.0783
      77    C23     21.563682   23.262667   19.792432 C.3        1 MOL1         0.1043
      78    H37     21.333497   22.191953   19.811414 H          1 MOL1         0.0783
      79    O19     23.005045   23.425034   19.788319 O.3        1 MOL1        -0.3740
      80    C24     21.002766   23.823897   18.464211 C.3        1 MOL1         0.0138
      81    H38     19.963478   23.487080   18.354196 H          1 MOL1         0.0794
      82    H39     21.574874   23.391840   17.632296 H          1 MOL1         0.0794
      83    O20     21.057413   25.255320   18.416451 O.3        1 MOL1        -0.5486
      84    H40     20.731388   25.536475   17.533745 H          1 MOL1         0.3769
      85    C25     24.593177   17.785124   22.352137 C.3        1 MOL1         0.2972
      86    H41     25.160693   16.926996   22.734412 H          1 MOL1         0.0751
      87    O21     23.378213   17.371557   21.700830 O.3        1 MOL1        -0.3740
      88    C26     24.222945   18.740786   23.511730 C.3        1 MOL1         0.1003
      89    H42     25.163268   19.092298   23.956094 H          1 MOL1         0.0783
      90    O22     23.450817   18.064270   24.517672 O.3        1 MOL1        -0.5519
      91    H43     23.429700   17.107805   24.269167 H          1 MOL1         0.3769
      92    C27     23.450544   19.970804   22.980720 C.3        1 MOL1         0.1053
      93    H44     22.483331   19.624200   22.593675 H          1 MOL1         0.0783
      94    O23     23.236614   20.871925   24.069608 O.3        1 MOL1        -0.5519
      95    H45     22.915302   20.297435   24.801559 H          1 MOL1         0.3769
      96    C28     24.222351   20.668727   21.827214 C.3        1 MOL1         0.1018
      97    H46     25.072319   21.215393   22.255088 H          1 MOL1         0.0783
      98    C29     24.728187   19.651853   20.763024 C.3        1 MOL1         0.1043
      99    H47     23.856354   19.289227   20.203789 H          1 MOL1         0.0783
     100    O24     25.383563   18.524847   21.398335 O.3        1 MOL1        -0.3740
     101    C30     25.707621   20.265372   19.732883 C.3        1 MOL1         0.0138
     102    H48     25.171351   21.018451   19.139573 H          1 MOL1         0.0794
     103    H49     26.020949   19.473431   19.039692 H          1 MOL1         0.0794
     104    O25     26.859773   20.854195   20.351169 O.3        1 MOL1        -0.5486
     105    H50     26.570750   21.635887   20.864532 H          1 MOL1         0.3769
     106    C31     21.354395   13.774337   20.956673 C.3        1 MOL1         0.2972
     107    H51     21.116808   12.744124   20.662382 H          1 MOL1         0.0751
     108    O26     20.170770   14.522480   21.285357 O.3        1 MOL1        -0.3740
     109    C32     22.235206   13.785102   22.232256 C.3        1 MOL1         0.1003
     110    H52     23.152857   13.226092   22.007584 H          1 MOL1         0.0783
     111    O27     21.544340   13.150136   23.320966 O.3        1 MOL1        -0.5519
     112    H53     20.594174   13.413364   23.245063 H          1 MOL1         0.3769
     113    C33     22.634702   15.233105   22.620186 C.3        1 MOL1         0.1053
     114    H54     21.726047   15.776887   22.915558 H          1 MOL1         0.0783
     115    O28     23.550694   15.183851   23.719590 O.3        1 MOL1        -0.5519
     116    H55     23.180369   14.501804   24.324948 H          1 MOL1         0.3769
     117    C34     23.262455   15.967762   21.406204 C.3        1 MOL1         0.1018
     118    H56     24.240960   15.523530   21.181653 H          1 MOL1         0.0783
     119    C35     22.356028   15.855443   20.154199 C.3        1 MOL1         0.1043
     120    H57     21.419103   16.386580   20.362033 H          1 MOL1         0.0783
     121    O29     22.068550   14.459322   19.902561 O.3        1 MOL1        -0.3740
     122    C36     22.967137   16.487059   18.877057 C.3        1 MOL1         0.0138
     123    H58     22.783083   17.568878   18.904024 H          1 MOL1         0.0794
     124    H59     22.435305   16.093120   18.000988 H          1 MOL1         0.0794
     125    O30     24.374276   16.246692   18.752310 O.3        1 MOL1        -0.5486
     126    H60     24.820359   16.755451   19.464893 H          1 MOL1         0.3769
     127    C1      20.259045   19.709645   18.853296 C.3        1 MOL1        -0.1693
     128    H1      19.633286   20.586992   18.656467 H          1 MOL1         0.0829
     129    H2      21.102959   19.723464   18.153726 H          1 MOL1         0.0829
     130    C2      19.481245   18.356841   18.959190 C.3        1 MOL1        -0.1768
     131    H3      20.093965   17.468226   18.774608 H          1 MOL1         0.0829
     132    H4      18.564821   18.278759   18.364604 H          1 MOL1         0.0829
     133    C3      19.282917   18.709556   20.464553 C.3        1 MOL1         0.1211
     134    H5      18.420158   19.354066   20.662880 H          1 MOL1         0.0786
     135    C4      20.626394   19.483137   20.356481 C.3        1 MOL1        -0.1768
     136    H6      21.512708   18.863909   20.522579 H          1 MOL1         0.0829
     137    H7      20.701061   20.375394   20.986355 H          1 MOL1         0.0829
     138    O1      19.299489   17.621429   21.355106 O.3        1 MOL1        -0.5515
     139    H8      18.437165   17.158717   21.276488 H          1 MOL1         0.3773
@<TRIPOS>BOND
    1     1     2    1
    2     1     3    1
    3     1     4    1
    4     4     5    1
    5     4     6    1
    6     6     7    1
    7     4     8    1
    8     8     9    1
    9     8    10    1
   10    10    11    1
   11     8    12    1
   12    12    13    1
   13    12    14    1
   14    14    15    1
   15     1    16    1
   16    14    16    1
   17    14    17    1
   18    17    18    1
   19    17    19    1
   20    17    20    1
   21    20    21    1
   22    22    23    1
   23    22    24    1
   24    22    25    1
   25    25    26    1
   26    25    27    1
   27    27    28    1
   28    25    29    1
   29    29    30    1
   30    29    31    1
   31    31    32    1
   32     3    33    1
   33    29    33    1
   34    33    34    1
   35    33    35    1
   36    35    36    1
   37    22    37    1
   38    35    37    1
   39    35    38    1
   40    38    39    1
   41    38    40    1
   42    38    41    1
   43    41    42    1
   44    43    44    1
   45    43    45    1
   46    43    46    1
   47    46    47    1
   48    46    48    1
   49    48    49    1
   50    46    50    1
   51    50    51    1
   52    50    52    1
   53    52    53    1
   54    24    54    1
   55    50    54    1
   56    54    55    1
   57    54    56    1
   58    56    57    1
   59    43    58    1
   60    56    58    1
   61    56    59    1
   62    59    60    1
   63    59    61    1
   64    59    62    1
   65    62    63    1
   66    64    65    1
   67    64    66    1
   68    64    67    1
   69    67    68    1
   70    67    69    1
   71    69    70    1
   72    67    71    1
   73    71    72    1
   74    71    73    1
   75    73    74    1
   76    45    75    1
   77    71    75    1
   78    75    76    1
   79    75    77    1
   80    77    78    1
   81    64    79    1
   82    77    79    1
   83    77    80    1
   84    80    81    1
   85    80    82    1
   86    80    83    1
   87    83    84    1
   88    85    86    1
   89    85    87    1
   90    85    88    1
   91    88    89    1
   92    88    90    1
   93    90    91    1
   94    88    92    1
   95    92    93    1
   96    92    94    1
   97    94    95    1
   98    66    96    1
   99    92    96    1
  100    96    97    1
  101    96    98    1
  102    98    99    1
  103    85   100    1
  104    98   100    1
  105    98   101    1
  106   101   102    1
  107   101   103    1
  108   101   104    1
  109   104   105    1
  110   106   107    1
  111    12   108    1
  112   106   108    1
  113   106   109    1
  114   109   110    1
  115   109   111    1
  116   111   112    1
  117   109   113    1
  118   113   114    1
  119   113   115    1
  120   115   116    1
  121    87   117    1
  122   113   117    1
  123   117   118    1
  124   117   119    1
  125   119   120    1
  126   106   121    1
  127   119   121    1
  128   119   122    1
  129   122   123    1
  130   122   124    1
  131   122   125    1
  132   125   126    1
  133   127   128    1
  134   127   129    1
  135   127   130    1
  136   130   131    1
  137   130   132    1
  138   130   133    1
  139   133   134    1
  140   127   135    1
  141   133   135    1
  142   135   136    1
  143   135   137    1
  144   133   138    1
  145   138   139    1
@<TRIPOS>SUBSTRUCTURE
       1 MOL1            1 RESIDUE      1      MOL     
       2 MOL1          139 RESIDUE      1      MOL     
@<SCITEGIC>MOL_PROPERTY
feprocess Rank
SciTegic.value.IntegerValue
35

@<SCITEGIC>MOL_PROPERTY
Conf_Id
SciTegic.value.IntegerValue
167

@<SCITEGIC>MOL_PROPERTY
Probability
SciTegic.value.DoubleValue
0.41

@<SCITEGIC>MOL_PROPERTY
G
SciTegic.value.DoubleValue
547.321

@<SCITEGIC>MOL_PROPERTY
E
SciTegic.value.DoubleValue
368.992

@<SCITEGIC>MOL_PROPERTY
-TS
SciTegic.value.DoubleValue
178.329

@<SCITEGIC>MOL_PROPERTY
U+W
SciTegic.value.DoubleValue
246.481

@<SCITEGIC>MOL_PROPERTY
U
SciTegic.value.DoubleValue
283.873

@<SCITEGIC>MOL_PROPERTY
W
SciTegic.value.DoubleValue
-37.391

@<SCITEGIC>MOL_PROPERTY
W(PB)
SciTegic.value.DoubleValue
-43.418

@<SCITEGIC>MOL_PROPERTY
W(SA)
SciTegic.value.DoubleValue
6.027

@<SCITEGIC>MOL_PROPERTY
Valence
SciTegic.value.DoubleValue
152.125

@<SCITEGIC>MOL_PROPERTY
Coulomb
SciTegic.value.DoubleValue
153.272

@<SCITEGIC>MOL_PROPERTY
VdW
SciTegic.value.DoubleValue
-21.525

@<SCITEGIC>MOL_PROPERTY
VdW6
SciTegic.value.DoubleValue
-168.901

@<SCITEGIC>MOL_PROPERTY
VdW12
SciTegic.value.DoubleValue
147.376

@<SCITEGIC>MOL_PROPERTY
Bond
SciTegic.value.DoubleValue
4.648

@<SCITEGIC>MOL_PROPERTY
Angle
SciTegic.value.DoubleValue
12.034

@<SCITEGIC>MOL_PROPERTY
Pdih
SciTegic.value.DoubleValue
135.444

@<SCITEGIC>MOL_PROPERTY
Idih
SciTegic.value.DoubleValue
0.000

@<SCITEGIC>MOL_PROPERTY
Tether
SciTegic.value.DoubleValue
0.000

@<TRIPOS>MOLECULE
CD_guest-s16_fast_vm2_rndm.mol2 : feprocess host+ligand conformer 36
         139         145           2
SMALL
USER_CHARGES
 
@<TRIPOS>ATOM
       1    C1      16.223745   15.192060   20.569952 C.3        1 MOL1         0.2972
       2    H1      15.201602   15.059095   20.192354 H          1 MOL1         0.0751
       3    O1      16.459174   16.547052   21.011822 O.3        1 MOL1        -0.3740
       4    C2      16.516881   14.230222   21.752103 C.3        1 MOL1         0.1003
       5    H2      16.441704   13.205535   21.365368 H          1 MOL1         0.0783
       6    O2      15.571257   14.393384   22.819435 O.3        1 MOL1        -0.5519
       7    H3      15.572825   15.350568   23.075221 H          1 MOL1         0.3769
       8    C3      17.963162   14.442124   22.262494 C.3        1 MOL1         0.1053
       9    H4      18.033932   15.455139   22.680631 H          1 MOL1         0.0783
      10    O3      18.270094   13.481719   23.278226 O.3        1 MOL1        -0.5519
      11    H5      17.471333   13.450446   23.851099 H          1 MOL1         0.3769
      12    C4      18.977783   14.321616   21.098125 C.3        1 MOL1         0.1018
      13    H6      19.058112   13.263734   20.815479 H          1 MOL1         0.0783
      14    C5      18.567379   15.152181   19.850386 C.3        1 MOL1         0.1043
      15    H7      18.679977   16.212381   20.093886 H          1 MOL1         0.0783
      16    O4      17.179612   14.887506   19.528337 O.3        1 MOL1        -0.3740
      17    C6      19.437658   14.902216   18.590183 C.3        1 MOL1         0.0138
      18    H8      20.260876   15.627630   18.589041 H          1 MOL1         0.0794
      19    H9      18.831352   15.112931   17.699120 H          1 MOL1         0.0794
      20    O5      19.972604   13.574636   18.518183 O.3        1 MOL1        -0.5486
      21    H10     20.691911   13.514428   19.189116 H          1 MOL1         0.3769
      22    C7      14.766632   20.242726   21.610042 C.3        1 MOL1         0.2972
      23    H11     14.139267   21.132121   21.753534 H          1 MOL1         0.0751
      24    O6      16.159240   20.586815   21.485038 O.3        1 MOL1        -0.3740
      25    C8      14.623909   19.290303   22.818757 C.3        1 MOL1         0.1003
      26    H12     13.581574   18.947786   22.855612 H          1 MOL1         0.0783
      27    O7      14.946652   19.974742   24.040220 O.3        1 MOL1        -0.5519
      28    H13     15.421609   20.802688   23.783639 H          1 MOL1         0.3769
      29    C9      15.534718   18.056089   22.632580 C.3        1 MOL1         0.1053
      30    H14     16.572739   18.404837   22.660630 H          1 MOL1         0.0783
      31    O8      15.310439   17.137203   23.704902 O.3        1 MOL1        -0.5519
      32    H15     15.298184   17.697228   24.513625 H          1 MOL1         0.3769
      33    C10     15.295748   17.363331   21.265796 C.3        1 MOL1         0.1018
      34    H16     14.377501   16.765020   21.334484 H          1 MOL1         0.0783
      35    C11     15.194009   18.371023   20.081925 C.3        1 MOL1         0.1043
      36    H17     16.207600   18.722780   19.859848 H          1 MOL1         0.0783
      37    O9      14.371754   19.517441   20.426218 O.3        1 MOL1        -0.3740
      38    C12     14.641687   17.740156   18.781891 C.3        1 MOL1         0.0138
      39    H18     15.396945   17.050051   18.381814 H          1 MOL1         0.0794
      40    H19     14.500611   18.535679   18.037825 H          1 MOL1         0.0794
      41    O10     13.411504   17.039288   19.003151 O.3        1 MOL1        -0.5486
      42    H20     13.083499   16.730474   18.130401 H          1 MOL1         0.3769
      43    C13     18.561100   23.979059   20.968017 C.3        1 MOL1         0.2972
      44    H21     18.922904   24.970967   20.667757 H          1 MOL1         0.0751
      45    O11     19.612199   23.179180   21.539288 O.3        1 MOL1        -0.3740
      46    C14     17.448619   24.100248   22.043564 C.3        1 MOL1         0.1003
      47    H22     16.641263   24.708572   21.615685 H          1 MOL1         0.0783
      48    O12     17.952411   24.743988   23.226039 O.3        1 MOL1        -0.5519
      49    H23     18.833331   24.338982   23.427919 H          1 MOL1         0.3769
      50    C15     16.864048   22.708623   22.398534 C.3        1 MOL1         0.1053
      51    H24     17.645738   22.126251   22.904956 H          1 MOL1         0.0783
      52    O13     15.739840   22.867246   23.270380 O.3        1 MOL1        -0.5519
      53    H25     16.024494   23.533391   23.935556 H          1 MOL1         0.3769
      54    C16     16.447599   21.944835   21.117292 C.3        1 MOL1         0.1018
      55    H26     15.575454   22.440419   20.670657 H          1 MOL1         0.0783
      56    C17     17.598104   21.911613   20.077578 C.3        1 MOL1         0.1043
      57    H27     18.433158   21.336318   20.496883 H          1 MOL1         0.0783
      58    O14     18.024648   23.272445   19.825594 O.3        1 MOL1        -0.3740
      59    C18     17.226906   21.240239   18.729970 C.3        1 MOL1         0.0138
      60    H28     17.464745   20.171300   18.803965 H          1 MOL1         0.0794
      61    H29     17.871380   21.652822   17.942586 H          1 MOL1         0.0794
      62    O15     15.846914   21.403729   18.375928 O.3        1 MOL1        -0.5486
      63    H30     15.317897   20.885436   19.025589 H          1 MOL1         0.3769
      64    C19     23.691505   22.863732   21.893855 C.3        1 MOL1         0.2972
      65    H31     24.777978   22.996792   21.976708 H          1 MOL1         0.0751
      66    O16     23.332121   21.470591   21.829142 O.3        1 MOL1        -0.3740
      67    C20     22.991583   23.480413   23.128125 C.3        1 MOL1         0.1003
      68    H32     23.214248   24.555342   23.137432 H          1 MOL1         0.0783
      69    O17     23.490051   22.877016   24.332509 O.3        1 MOL1        -0.5519
      70    H33     23.806719   21.975090   24.084745 H          1 MOL1         0.3769
      71    C21     21.458584   23.305733   23.030148 C.3        1 MOL1         0.1053
      72    H34     21.238387   22.235606   23.127409 H          1 MOL1         0.0783
      73    O18     20.819675   24.020661   24.093354 O.3        1 MOL1        -0.5519
      74    H35     21.323682   23.777682   24.901654 H          1 MOL1         0.3769
      75    C22     20.906565   23.796066   21.668488 C.3        1 MOL1         0.1018
      76    H36     20.841494   24.891847   21.695588 H          1 MOL1         0.0783
      77    C23     21.763601   23.333982   20.454521 C.3        1 MOL1         0.1043
      78    H37     21.561853   22.267272   20.302542 H          1 MOL1         0.0783
      79    O19     23.180368   23.516439   20.713958 O.3        1 MOL1        -0.3740
      80    C24     21.418490   24.058937   19.131468 C.3        1 MOL1         0.0138
      81    H38     20.439525   23.705450   18.781996 H          1 MOL1         0.0794
      82    H39     22.156629   23.770940   18.370825 H          1 MOL1         0.0794
      83    O20     21.394946   25.483095   19.287645 O.3        1 MOL1        -0.5486
      84    H40     21.240399   25.877491   18.401606 H          1 MOL1         0.3769
      85    C25     24.878743   17.712212   20.908587 C.3        1 MOL1         0.2972
      86    H41     25.496903   16.880714   20.546182 H          1 MOL1         0.0751
      87    O21     23.581424   17.259128   21.345533 O.3        1 MOL1        -0.3740
      88    C26     25.569037   18.446925   22.089032 C.3        1 MOL1         0.1003
      89    H42     26.529424   18.827904   21.718134 H          1 MOL1         0.0783
      90    O22     25.812242   17.557937   23.190588 O.3        1 MOL1        -0.5519
      91    H43     24.948674   17.130903   23.422954 H          1 MOL1         0.3769
      92    C27     24.722073   19.658963   22.550061 C.3        1 MOL1         0.1053
      93    H44     23.792051   19.276008   22.988949 H          1 MOL1         0.0783
      94    O23     25.444054   20.409237   23.532325 O.3        1 MOL1        -0.5519
      95    H45     25.815120   19.738033   24.147347 H          1 MOL1         0.3769
      96    C28     24.351303   20.572249   21.355127 C.3        1 MOL1         0.1018
      97    H46     25.253944   21.105702   21.029192 H          1 MOL1         0.0783
      98    C29     23.772761   19.763636   20.159084 C.3        1 MOL1         0.1043
      99    H47     22.799233   19.352601   20.455241 H          1 MOL1         0.0783
     100    O24     24.676245   18.674520   19.850762 O.3        1 MOL1        -0.3740
     101    C30     23.540241   20.583005   18.862213 C.3        1 MOL1         0.0138
     102    H48     22.512191   20.964089   18.868158 H          1 MOL1         0.0794
     103    H49     23.615159   19.903088   18.003050 H          1 MOL1         0.0794
     104    O25     24.457321   21.672351   18.703756 O.3        1 MOL1        -0.5486
     105    H50     24.184335   22.376350   19.337717 H          1 MOL1         0.3769
     106    C31     21.261605   13.882736   21.813539 C.3        1 MOL1         0.2972
     107    H51     20.850961   12.873603   21.948534 H          1 MOL1         0.0751
     108    O26     20.224023   14.852433   21.576858 O.3        1 MOL1        -0.3740
     109    C32     22.030126   14.311136   23.084954 C.3        1 MOL1         0.1003
     110    H52     22.862487   13.609429   23.226173 H          1 MOL1         0.0783
     111    O27     21.165156   14.265819   24.231700 O.3        1 MOL1        -0.5519
     112    H53     20.238069   14.241948   23.890501 H          1 MOL1         0.3769
     113    C33     22.616875   15.729178   22.906674 C.3        1 MOL1         0.1053
     114    H54     21.776807   16.429692   22.840208 H          1 MOL1         0.0783
     115    O28     23.430457   16.055652   24.037649 O.3        1 MOL1        -0.5519
     116    H55     22.893310   15.790563   24.817644 H          1 MOL1         0.3769
     117    C34     23.442815   15.847988   21.602474 C.3        1 MOL1         0.1018
     118    H56     24.413642   15.358566   21.757792 H          1 MOL1         0.0783
     119    C35     22.716576   15.229301   20.372590 C.3        1 MOL1         0.1043
     120    H57     21.893614   15.902861   20.102838 H          1 MOL1         0.0783
     121    O29     22.171710   13.922746   20.694845 O.3        1 MOL1        -0.3740
     122    C36     23.618453   15.086620   19.123345 C.3        1 MOL1         0.0138
     123    H58     23.817843   16.088634   18.719923 H          1 MOL1         0.0794
     124    H59     23.066682   14.530056   18.353809 H          1 MOL1         0.0794
     125    O30     24.855243   14.428530   19.424139 O.3        1 MOL1        -0.5486
     126    H60     25.336923   14.298007   18.578227 H          1 MOL1         0.3769
     127    C1      20.701869   19.075705   23.553392 C.3        1 MOL1        -0.1693
     128    H1      21.677420   18.583853   23.469565 H          1 MOL1         0.0829
     129    H2      20.675002   19.639779   24.492922 H          1 MOL1         0.0829
     130    C2      19.467829   18.156972   23.267388 C.3        1 MOL1        -0.1768
     131    H3      18.523685   18.541793   23.668587 H          1 MOL1         0.0829
     132    H4      19.572405   17.106338   23.557954 H          1 MOL1         0.0829
     133    C3      19.730136   18.481064   21.764167 C.3        1 MOL1         0.1211
     134    H5      20.504365   17.853160   21.303057 H          1 MOL1         0.0786
     135    C4      20.248616   19.853230   22.277239 C.3        1 MOL1        -0.1768
     136    H6      19.462200   20.594752   22.456755 H          1 MOL1         0.0829
     137    H7      21.034525   20.313171   21.675214 H          1 MOL1         0.0829
     138    O1      18.597741   18.570015   20.933718 O.3        1 MOL1        -0.5515
     139    H8      18.036268   17.783547   21.102856 H          1 MOL1         0.3773
@<TRIPOS>BOND
    1     1     2    1
    2     1     3    1
    3     1     4    1
    4     4     5    1
    5     4     6    1
    6     6     7    1
    7     4     8    1
    8     8     9    1
    9     8    10    1
   10    10    11    1
   11     8    12    1
   12    12    13    1
   13    12    14    1
   14    14    15    1
   15     1    16    1
   16    14    16    1
   17    14    17    1
   18    17    18    1
   19    17    19    1
   20    17    20    1
   21    20    21    1
   22    22    23    1
   23    22    24    1
   24    22    25    1
   25    25    26    1
   26    25    27    1
   27    27    28    1
   28    25    29    1
   29    29    30    1
   30    29    31    1
   31    31    32    1
   32     3    33    1
   33    29    33    1
   34    33    34    1
   35    33    35    1
   36    35    36    1
   37    22    37    1
   38    35    37    1
   39    35    38    1
   40    38    39    1
   41    38    40    1
   42    38    41    1
   43    41    42    1
   44    43    44    1
   45    43    45    1
   46    43    46    1
   47    46    47    1
   48    46    48    1
   49    48    49    1
   50    46    50    1
   51    50    51    1
   52    50    52    1
   53    52    53    1
   54    24    54    1
   55    50    54    1
   56    54    55    1
   57    54    56    1
   58    56    57    1
   59    43    58    1
   60    56    58    1
   61    56    59    1
   62    59    60    1
   63    59    61    1
   64    59    62    1
   65    62    63    1
   66    64    65    1
   67    64    66    1
   68    64    67    1
   69    67    68    1
   70    67    69    1
   71    69    70    1
   72    67    71    1
   73    71    72    1
   74    71    73    1
   75    73    74    1
   76    45    75    1
   77    71    75    1
   78    75    76    1
   79    75    77    1
   80    77    78    1
   81    64    79    1
   82    77    79    1
   83    77    80    1
   84    80    81    1
   85    80    82    1
   86    80    83    1
   87    83    84    1
   88    85    86    1
   89    85    87    1
   90    85    88    1
   91    88    89    1
   92    88    90    1
   93    90    91    1
   94    88    92    1
   95    92    93    1
   96    92    94    1
   97    94    95    1
   98    66    96    1
   99    92    96    1
  100    96    97    1
  101    96    98    1
  102    98    99    1
  103    85   100    1
  104    98   100    1
  105    98   101    1
  106   101   102    1
  107   101   103    1
  108   101   104    1
  109   104   105    1
  110   106   107    1
  111    12   108    1
  112   106   108    1
  113   106   109    1
  114   109   110    1
  115   109   111    1
  116   111   112    1
  117   109   113    1
  118   113   114    1
  119   113   115    1
  120   115   116    1
  121    87   117    1
  122   113   117    1
  123   117   118    1
  124   117   119    1
  125   119   120    1
  126   106   121    1
  127   119   121    1
  128   119   122    1
  129   122   123    1
  130   122   124    1
  131   122   125    1
  132   125   126    1
  133   127   128    1
  134   127   129    1
  135   127   130    1
  136   130   131    1
  137   130   132    1
  138   130   133    1
  139   133   134    1
  140   127   135    1
  141   133   135    1
  142   135   136    1
  143   135   137    1
  144   133   138    1
  145   138   139    1
@<TRIPOS>SUBSTRUCTURE
       1 MOL1            1 RESIDUE      1      MOL     
       2 MOL1          139 RESIDUE      1      MOL     
@<SCITEGIC>MOL_PROPERTY
feprocess Rank
SciTegic.value.IntegerValue
36

@<SCITEGIC>MOL_PROPERTY
Conf_Id
SciTegic.value.IntegerValue
422

@<SCITEGIC>MOL_PROPERTY
Probability
SciTegic.value.DoubleValue
0.40

@<SCITEGIC>MOL_PROPERTY
G
SciTegic.value.DoubleValue
547.346

@<SCITEGIC>MOL_PROPERTY
E
SciTegic.value.DoubleValue
368.828

@<SCITEGIC>MOL_PROPERTY
-TS
SciTegic.value.DoubleValue
178.517

@<SCITEGIC>MOL_PROPERTY
U+W
SciTegic.value.DoubleValue
246.317

@<SCITEGIC>MOL_PROPERTY
U
SciTegic.value.DoubleValue
280.731

@<SCITEGIC>MOL_PROPERTY
W
SciTegic.value.DoubleValue
-34.413

@<SCITEGIC>MOL_PROPERTY
W(PB)
SciTegic.value.DoubleValue
-40.415

@<SCITEGIC>MOL_PROPERTY
W(SA)
SciTegic.value.DoubleValue
6.002

@<SCITEGIC>MOL_PROPERTY
Valence
SciTegic.value.DoubleValue
153.746

@<SCITEGIC>MOL_PROPERTY
Coulomb
SciTegic.value.DoubleValue
149.249

@<SCITEGIC>MOL_PROPERTY
VdW
SciTegic.value.DoubleValue
-22.264

@<SCITEGIC>MOL_PROPERTY
VdW6
SciTegic.value.DoubleValue
-170.063

@<SCITEGIC>MOL_PROPERTY
VdW12
SciTegic.value.DoubleValue
147.799

@<SCITEGIC>MOL_PROPERTY
Bond
SciTegic.value.DoubleValue
4.592

@<SCITEGIC>MOL_PROPERTY
Angle
SciTegic.value.DoubleValue
11.702

@<SCITEGIC>MOL_PROPERTY
Pdih
SciTegic.value.DoubleValue
137.453

@<SCITEGIC>MOL_PROPERTY
Idih
SciTegic.value.DoubleValue
0.000

@<SCITEGIC>MOL_PROPERTY
Tether
SciTegic.value.DoubleValue
0.000

@<TRIPOS>MOLECULE
CD_guest-s16_fast_vm2_rndm.mol2 : feprocess host+ligand conformer 37
         139         145           2
SMALL
USER_CHARGES
 
@<TRIPOS>ATOM
       1    C1      16.171631   15.133483   20.731501 C.3        1 MOL1         0.2972
       2    H1      15.140091   14.972569   20.392628 H          1 MOL1         0.0751
       3    O1      16.379625   16.476705   21.205226 O.3        1 MOL1        -0.3740
       4    C2      16.536540   14.177922   21.897956 C.3        1 MOL1         0.1003
       5    H2      16.445479   13.149786   21.524340 H          1 MOL1         0.0783
       6    O2      15.645780   14.358758   23.010745 O.3        1 MOL1        -0.5519
       7    H3      15.587682   15.332226   23.187056 H          1 MOL1         0.3769
       8    C3      18.004739   14.401238   22.342454 C.3        1 MOL1         0.1053
       9    H4      18.076405   15.401934   22.786365 H          1 MOL1         0.0783
      10    O3      18.374163   13.418953   23.315885 O.3        1 MOL1        -0.5519
      11    H5      17.608450   13.368111   23.930954 H          1 MOL1         0.3769
      12    C4      18.970622   14.342844   21.132800 C.3        1 MOL1         0.1018
      13    H6      19.055756   13.300073   20.799789 H          1 MOL1         0.0783
      14    C5      18.484767   15.215130   19.944105 C.3        1 MOL1         0.1043
      15    H7      18.550219   16.267641   20.240430 H          1 MOL1         0.0783
      16    O4      17.103622   14.887744   19.652933 O.3        1 MOL1        -0.3740
      17    C6      19.328448   15.070045   18.650483 C.3        1 MOL1         0.0138
      18    H8      20.122010   15.827697   18.671174 H          1 MOL1         0.0794
      19    H9      18.690472   15.305201   17.788203 H          1 MOL1         0.0794
      20    O5      19.912479   13.770277   18.492550 O.3        1 MOL1        -0.5486
      21    H10     20.619143   13.683229   19.173593 H          1 MOL1         0.3769
      22    C7      14.811563   20.243142   21.498845 C.3        1 MOL1         0.2972
      23    H11     14.196480   21.150349   21.562192 H          1 MOL1         0.0751
      24    O6      16.218792   20.559390   21.439915 O.3        1 MOL1        -0.3740
      25    C8      14.554646   19.355405   22.738367 C.3        1 MOL1         0.1003
      26    H12     13.495925   19.065327   22.727143 H          1 MOL1         0.0783
      27    O7      14.840720   20.076724   23.948066 O.3        1 MOL1        -0.5519
      28    H13     15.245390   20.938972   23.681985 H          1 MOL1         0.3769
      29    C9      15.409398   18.073287   22.662708 C.3        1 MOL1         0.1053
      30    H14     16.458612   18.376952   22.749733 H          1 MOL1         0.0783
      31    O8      15.070539   17.201253   23.745763 O.3        1 MOL1        -0.5519
      32    H15     15.038263   17.785843   24.536019 H          1 MOL1         0.3769
      33    C10     15.232936   17.336433   21.312452 C.3        1 MOL1         0.1018
      34    H16     14.291251   16.772530   21.339218 H          1 MOL1         0.0783
      35    C11     15.265445   18.290946   20.082581 C.3        1 MOL1         0.1043
      36    H17     16.307476   18.588162   19.918866 H          1 MOL1         0.0783
      37    O9      14.472010   19.482858   20.320582 O.3        1 MOL1        -0.3740
      38    C12     14.776111   17.627718   18.773466 C.3        1 MOL1         0.0138
      39    H18     15.524399   16.888614   18.456834 H          1 MOL1         0.0794
      40    H19     14.724778   18.394930   17.989212 H          1 MOL1         0.0794
      41    O10     13.501747   16.992111   18.934249 O.3        1 MOL1        -0.5486
      42    H20     13.224990   16.653342   18.054933 H          1 MOL1         0.3769
      43    C13     18.595167   23.971498   20.926363 C.3        1 MOL1         0.2972
      44    H21     18.970080   24.956982   20.620954 H          1 MOL1         0.0751
      45    O11     19.617684   23.182641   21.559738 O.3        1 MOL1        -0.3740
      46    C14     17.441353   24.112435   21.953810 C.3        1 MOL1         0.1003
      47    H22     16.646631   24.704720   21.481997 H          1 MOL1         0.0783
      48    O12     17.899935   24.784207   23.139155 O.3        1 MOL1        -0.5519
      49    H23     18.760318   24.367193   23.395513 H          1 MOL1         0.3769
      50    C15     16.857574   22.724383   22.321787 C.3        1 MOL1         0.1053
      51    H24     17.623459   22.174563   22.883021 H          1 MOL1         0.0783
      52    O13     15.692099   22.892055   23.135844 O.3        1 MOL1        -0.5519
      53    H25     15.936417   23.581409   23.793526 H          1 MOL1         0.3769
      54    C16     16.510845   21.913719   21.047664 C.3        1 MOL1         0.1018
      55    H26     15.652138   22.388377   20.554254 H          1 MOL1         0.0783
      56    C17     17.692908   21.875557   20.045262 C.3        1 MOL1         0.1043
      57    H27     18.524951   21.325140   20.501213 H          1 MOL1         0.0783
      58    O14     18.107272   23.237074   19.779592 O.3        1 MOL1        -0.3740
      59    C18     17.367173   21.171204   18.701844 C.3        1 MOL1         0.0138
      60    H28     17.583606   20.100699   18.811185 H          1 MOL1         0.0794
      61    H29     18.048697   21.554301   17.930898 H          1 MOL1         0.0794
      62    O15     16.005235   21.343011   18.287564 O.3        1 MOL1        -0.5486
      63    H30     15.443817   20.821685   18.906845 H          1 MOL1         0.3769
      64    C19     23.670194   22.824920   22.004441 C.3        1 MOL1         0.2972
      65    H31     24.755656   22.939008   22.122496 H          1 MOL1         0.0751
      66    O16     23.297059   21.439073   21.869913 O.3        1 MOL1        -0.3740
      67    C20     22.946857   23.406227   23.242356 C.3        1 MOL1         0.1003
      68    H32     23.185904   24.476250   23.297696 H          1 MOL1         0.0783
      69    O17     23.403934   22.750773   24.435533 O.3        1 MOL1        -0.5519
      70    H33     23.718357   21.856911   24.160327 H          1 MOL1         0.3769
      71    C21     21.414967   23.261446   23.098789 C.3        1 MOL1         0.1053
      72    H34     21.175325   22.192650   23.159354 H          1 MOL1         0.0783
      73    O18     20.757217   23.955668   24.164582 O.3        1 MOL1        -0.5519
      74    H35     21.228613   23.675272   24.980224 H          1 MOL1         0.3769
      75    C22     20.904659   23.799271   21.739006 C.3        1 MOL1         0.1018
      76    H36     20.833794   24.893270   21.801644 H          1 MOL1         0.0783
      77    C23     21.792536   23.378230   20.532066 C.3        1 MOL1         0.1043
      78    H37     21.583658   22.320968   20.333380 H          1 MOL1         0.0783
      79    O19     23.202563   23.532414   20.838762 O.3        1 MOL1        -0.3740
      80    C24     21.496307   24.157387   19.227814 C.3        1 MOL1         0.0138
      81    H38     20.530285   23.821903   18.828414 H          1 MOL1         0.0794
      82    H39     22.260551   23.897858   18.482855 H          1 MOL1         0.0794
      83    O20     21.470606   25.574029   19.440480 O.3        1 MOL1        -0.5486
      84    H40     21.356864   26.004900   18.565266 H          1 MOL1         0.3769
      85    C25     24.863339   17.729418   20.796668 C.3        1 MOL1         0.2972
      86    H41     25.473587   16.909912   20.395563 H          1 MOL1         0.0751
      87    O21     23.576203   17.262996   21.247197 O.3        1 MOL1        -0.3740
      88    C26     25.580203   18.436997   21.977864 C.3        1 MOL1         0.1003
      89    H42     26.521903   18.845254   21.588464 H          1 MOL1         0.0783
      90    O22     25.874479   17.520269   23.043243 O.3        1 MOL1        -0.5519
      91    H43     25.019755   17.098508   23.314268 H          1 MOL1         0.3769
      92    C27     24.728540   19.619975   22.501092 C.3        1 MOL1         0.1053
      93    H44     23.816790   19.207484   22.952996 H          1 MOL1         0.0783
      94    O23     25.467159   20.348115   23.487529 O.3        1 MOL1        -0.5519
      95    H45     25.864940   19.662993   24.069578 H          1 MOL1         0.3769
      96    C28     24.315918   20.566840   21.345256 C.3        1 MOL1         0.1018
      97    H46     25.205046   21.122202   21.018697 H          1 MOL1         0.0783
      98    C29     23.725821   19.793471   20.130666 C.3        1 MOL1         0.1043
      99    H47     22.757208   19.369167   20.425337 H          1 MOL1         0.0783
     100    O24     24.632287   18.721109   19.773146 O.3        1 MOL1        -0.3740
     101    C30     23.474942   20.650580   18.861809 C.3        1 MOL1         0.0138
     102    H48     22.443558   21.021082   18.886396 H          1 MOL1         0.0794
     103    H49     23.547995   19.997769   17.981694 H          1 MOL1         0.0794
     104    O25     24.382747   21.751199   18.727905 O.3        1 MOL1        -0.5486
     105    H50     24.131144   22.421832   19.405445 H          1 MOL1         0.3769
     106    C31     21.266596   13.905763   21.812693 C.3        1 MOL1         0.2972
     107    H51     20.850949   12.902084   21.971363 H          1 MOL1         0.0751
     108    O26     20.232536   14.876426   21.568178 O.3        1 MOL1        -0.3740
     109    C32     22.056006   14.352710   23.065094 C.3        1 MOL1         0.1003
     110    H52     22.882389   13.644251   23.207736 H          1 MOL1         0.0783
     111    O27     21.208651   14.338442   24.225695 O.3        1 MOL1        -0.5519
     112    H53     20.279754   14.247356   23.900637 H          1 MOL1         0.3769
     113    C33     22.657599   15.760669   22.855184 C.3        1 MOL1         0.1053
     114    H54     21.829638   16.476294   22.798777 H          1 MOL1         0.0783
     115    O28     23.498586   16.087311   23.965701 O.3        1 MOL1        -0.5519
     116    H55     22.973663   15.837086   24.759009 H          1 MOL1         0.3769
     117    C34     23.456147   15.856291   21.532143 C.3        1 MOL1         0.1018
     118    H56     24.433682   15.376668   21.675348 H          1 MOL1         0.0783
     119    C35     22.709409   15.214997   20.326245 C.3        1 MOL1         0.1043
     120    H57     21.885737   15.886448   20.053883 H          1 MOL1         0.0783
     121    O29     22.162505   13.918318   20.681988 O.3        1 MOL1        -0.3740
     122    C36     23.592589   15.044748   19.067197 C.3        1 MOL1         0.0138
     123    H58     23.789764   16.038246   18.642160 H          1 MOL1         0.0794
     124    H59     23.027620   14.476035   18.316318 H          1 MOL1         0.0794
     125    O30     24.831272   14.387770   19.362508 O.3        1 MOL1        -0.5486
     126    H60     25.299670   14.238368   18.512234 H          1 MOL1         0.3769
     127    C1      19.419386   19.603864   23.468621 C.3        1 MOL1        -0.1693
     128    H1      19.753059   19.917474   24.464631 H          1 MOL1         0.0829
     129    H2      18.491990   20.135905   23.229375 H          1 MOL1         0.0829
     130    C2      19.369182   18.061454   23.215408 C.3        1 MOL1        -0.1768
     131    H3      20.114256   17.490507   23.780441 H          1 MOL1         0.0829
     132    H4      18.398043   17.578821   23.351919 H          1 MOL1         0.0829
     133    C3      19.778526   18.388376   21.744439 C.3        1 MOL1         0.1211
     134    H5      20.437419   17.651274   21.269308 H          1 MOL1         0.0786
     135    C4      20.508092   19.624920   22.344558 C.3        1 MOL1        -0.1768
     136    H6      21.523878   19.416732   22.697689 H          1 MOL1         0.0829
     137    H7      20.533419   20.513283   21.706148 H          1 MOL1         0.0829
     138    O1      18.712127   18.711742   20.879498 O.3        1 MOL1        -0.5515
     139    H8      18.077864   19.242394   21.402521 H          1 MOL1         0.3773
@<TRIPOS>BOND
    1     1     2    1
    2     1     3    1
    3     1     4    1
    4     4     5    1
    5     4     6    1
    6     6     7    1
    7     4     8    1
    8     8     9    1
    9     8    10    1
   10    10    11    1
   11     8    12    1
   12    12    13    1
   13    12    14    1
   14    14    15    1
   15     1    16    1
   16    14    16    1
   17    14    17    1
   18    17    18    1
   19    17    19    1
   20    17    20    1
   21    20    21    1
   22    22    23    1
   23    22    24    1
   24    22    25    1
   25    25    26    1
   26    25    27    1
   27    27    28    1
   28    25    29    1
   29    29    30    1
   30    29    31    1
   31    31    32    1
   32     3    33    1
   33    29    33    1
   34    33    34    1
   35    33    35    1
   36    35    36    1
   37    22    37    1
   38    35    37    1
   39    35    38    1
   40    38    39    1
   41    38    40    1
   42    38    41    1
   43    41    42    1
   44    43    44    1
   45    43    45    1
   46    43    46    1
   47    46    47    1
   48    46    48    1
   49    48    49    1
   50    46    50    1
   51    50    51    1
   52    50    52    1
   53    52    53    1
   54    24    54    1
   55    50    54    1
   56    54    55    1
   57    54    56    1
   58    56    57    1
   59    43    58    1
   60    56    58    1
   61    56    59    1
   62    59    60    1
   63    59    61    1
   64    59    62    1
   65    62    63    1
   66    64    65    1
   67    64    66    1
   68    64    67    1
   69    67    68    1
   70    67    69    1
   71    69    70    1
   72    67    71    1
   73    71    72    1
   74    71    73    1
   75    73    74    1
   76    45    75    1
   77    71    75    1
   78    75    76    1
   79    75    77    1
   80    77    78    1
   81    64    79    1
   82    77    79    1
   83    77    80    1
   84    80    81    1
   85    80    82    1
   86    80    83    1
   87    83    84    1
   88    85    86    1
   89    85    87    1
   90    85    88    1
   91    88    89    1
   92    88    90    1
   93    90    91    1
   94    88    92    1
   95    92    93    1
   96    92    94    1
   97    94    95    1
   98    66    96    1
   99    92    96    1
  100    96    97    1
  101    96    98    1
  102    98    99    1
  103    85   100    1
  104    98   100    1
  105    98   101    1
  106   101   102    1
  107   101   103    1
  108   101   104    1
  109   104   105    1
  110   106   107    1
  111    12   108    1
  112   106   108    1
  113   106   109    1
  114   109   110    1
  115   109   111    1
  116   111   112    1
  117   109   113    1
  118   113   114    1
  119   113   115    1
  120   115   116    1
  121    87   117    1
  122   113   117    1
  123   117   118    1
  124   117   119    1
  125   119   120    1
  126   106   121    1
  127   119   121    1
  128   119   122    1
  129   122   123    1
  130   122   124    1
  131   122   125    1
  132   125   126    1
  133   127   128    1
  134   127   129    1
  135   127   130    1
  136   130   131    1
  137   130   132    1
  138   130   133    1
  139   133   134    1
  140   127   135    1
  141   133   135    1
  142   135   136    1
  143   135   137    1
  144   133   138    1
  145   138   139    1
@<TRIPOS>SUBSTRUCTURE
       1 MOL1            1 RESIDUE      1      MOL     
       2 MOL1          139 RESIDUE      1      MOL     
@<SCITEGIC>MOL_PROPERTY
feprocess Rank
SciTegic.value.IntegerValue
37

@<SCITEGIC>MOL_PROPERTY
Conf_Id
SciTegic.value.IntegerValue
750

@<SCITEGIC>MOL_PROPERTY
Probability
SciTegic.value.DoubleValue
0.39

@<SCITEGIC>MOL_PROPERTY
G
SciTegic.value.DoubleValue
547.354

@<SCITEGIC>MOL_PROPERTY
E
SciTegic.value.DoubleValue
369.076

@<SCITEGIC>MOL_PROPERTY
-TS
SciTegic.value.DoubleValue
178.278

@<SCITEGIC>MOL_PROPERTY
U+W
SciTegic.value.DoubleValue
246.565

@<SCITEGIC>MOL_PROPERTY
U
SciTegic.value.DoubleValue
280.916

@<SCITEGIC>MOL_PROPERTY
W
SciTegic.value.DoubleValue
-34.352

@<SCITEGIC>MOL_PROPERTY
W(PB)
SciTegic.value.DoubleValue
-40.390

@<SCITEGIC>MOL_PROPERTY
W(SA)
SciTegic.value.DoubleValue
6.038

@<SCITEGIC>MOL_PROPERTY
Valence
SciTegic.value.DoubleValue
153.795

@<SCITEGIC>MOL_PROPERTY
Coulomb
SciTegic.value.DoubleValue
149.598

@<SCITEGIC>MOL_PROPERTY
VdW
SciTegic.value.DoubleValue
-22.477

@<SCITEGIC>MOL_PROPERTY
VdW6
SciTegic.value.DoubleValue
-170.144

@<SCITEGIC>MOL_PROPERTY
VdW12
SciTegic.value.DoubleValue
147.667

@<SCITEGIC>MOL_PROPERTY
Bond
SciTegic.value.DoubleValue
4.492

@<SCITEGIC>MOL_PROPERTY
Angle
SciTegic.value.DoubleValue
11.481

@<SCITEGIC>MOL_PROPERTY
Pdih
SciTegic.value.DoubleValue
137.822

@<SCITEGIC>MOL_PROPERTY
Idih
SciTegic.value.DoubleValue
0.000

@<SCITEGIC>MOL_PROPERTY
Tether
SciTegic.value.DoubleValue
0.000

@<TRIPOS>MOLECULE
CD_guest-s16_fast_vm2_rndm.mol2 : feprocess host+ligand conformer 38
         139         145           2
SMALL
USER_CHARGES
 
@<TRIPOS>ATOM
       1    C1      16.216362   15.169201   21.927764 C.3        1 MOL1         0.2972
       2    H1      15.169141   14.955384   22.177758 H          1 MOL1         0.0751
       3    O1      16.453730   16.582103   21.806967 O.3        1 MOL1        -0.3740
       4    C2      17.145467   14.632062   23.042576 C.3        1 MOL1         0.1003
       5    H2      16.993807   13.546642   23.106121 H          1 MOL1         0.0783
       6    O2      16.812100   15.233564   24.304441 O.3        1 MOL1        -0.5519
       7    H3      16.313714   16.062840   24.102613 H          1 MOL1         0.3769
       8    C3      18.631734   14.889450   22.696608 C.3        1 MOL1         0.1053
       9    H4      18.804599   15.972833   22.712969 H          1 MOL1         0.0783
      10    O3      19.455371   14.257569   23.680768 O.3        1 MOL1        -0.5519
      11    H5      19.050934   14.505696   24.542450 H          1 MOL1         0.3769
      12    C4      18.983293   14.364004   21.281451 C.3        1 MOL1         0.1018
      13    H6      19.043525   13.268041   21.317600 H          1 MOL1         0.0783
      14    C5      17.938169   14.808604   20.217766 C.3        1 MOL1         0.1043
      15    H7      18.058321   15.888539   20.063475 H          1 MOL1         0.0783
      16    O4      16.587216   14.543307   20.680976 O.3        1 MOL1        -0.3740
      17    C6      18.126705   14.124811   18.842865 C.3        1 MOL1         0.0138
      18    H8      19.038925   14.523038   18.378086 H          1 MOL1         0.0794
      19    H9      17.283608   14.400444   18.195143 H          1 MOL1         0.0794
      20    O5      18.222647   12.699585   18.958625 O.3        1 MOL1        -0.5486
      21    H10     18.262518   12.328929   18.050085 H          1 MOL1         0.3769
      22    C7      14.575293   20.254526   21.355867 C.3        1 MOL1         0.2972
      23    H11     13.865883   21.072464   21.176455 H          1 MOL1         0.0751
      24    O6      15.905259   20.756449   21.607322 O.3        1 MOL1        -0.3740
      25    C8      14.143630   19.449798   22.608002 C.3        1 MOL1         0.1003
      26    H12     13.141720   19.043714   22.417330 H          1 MOL1         0.0783
      27    O7      14.102085   20.311382   23.756176 O.3        1 MOL1        -0.5519
      28    H13     14.825301   20.972234   23.633384 H          1 MOL1         0.3769
      29    C9      15.106699   18.264061   22.859864 C.3        1 MOL1         0.1053
      30    H14     16.079797   18.682403   23.145204 H          1 MOL1         0.0783
      31    O8      14.608839   17.446120   23.923393 O.3        1 MOL1        -0.5519
      32    H15     14.333071   18.077760   24.624701 H          1 MOL1         0.3769
      33    C10     15.299522   17.411413   21.581388 C.3        1 MOL1         0.1018
      34    H16     14.389906   16.822675   21.404472 H          1 MOL1         0.0783
      35    C11     15.599000   18.287697   20.336293 C.3        1 MOL1         0.1043
      36    H17     16.583996   18.739385   20.485950 H          1 MOL1         0.0783
      37    O9      14.614677   19.347592   20.231222 O.3        1 MOL1        -0.3740
      38    C12     15.658678   17.510879   18.994653 C.3        1 MOL1         0.0138
      39    H18     16.695124   17.191461   18.827768 H          1 MOL1         0.0794
      40    H19     15.405402   18.199780   18.178045 H          1 MOL1         0.0794
      41    O10     14.794894   16.368385   18.959221 O.3        1 MOL1        -0.5486
      42    H20     15.223005   15.668676   19.505463 H          1 MOL1         0.3769
      43    C13     18.535502   23.851583   20.585658 C.3        1 MOL1         0.2972
      44    H21     18.969134   24.773642   20.177654 H          1 MOL1         0.0751
      45    O11     19.550884   22.992060   21.146150 O.3        1 MOL1        -0.3740
      46    C14     17.491272   24.174994   21.685955 C.3        1 MOL1         0.1003
      47    H22     16.713537   24.795710   21.222365 H          1 MOL1         0.0783
      48    O12     18.082359   24.904195   22.773014 O.3        1 MOL1        -0.5519
      49    H23     18.886813   24.403367   23.063586 H          1 MOL1         0.3769
      50    C15     16.817353   22.879883   22.202055 C.3        1 MOL1         0.1053
      51    H24     17.579197   22.281840   22.721148 H          1 MOL1         0.0783
      52    O13     15.764706   23.220263   23.111410 O.3        1 MOL1        -0.5519
      53    H25     16.149037   23.904036   23.703906 H          1 MOL1         0.3769
      54    C16     16.250624   22.034177   21.033065 C.3        1 MOL1         0.1018
      55    H26     15.370609   22.551903   20.629763 H          1 MOL1         0.0783
      56    C17     17.307891   21.838213   19.903658 C.3        1 MOL1         0.1043
      57    H27     18.116109   21.203117   20.286308 H          1 MOL1         0.0783
      58    O14     17.854494   23.129077   19.538559 O.3        1 MOL1        -0.3740
      59    C18     16.782777   21.175097   18.604570 C.3        1 MOL1         0.0138
      60    H28     16.900598   20.089781   18.692867 H          1 MOL1         0.0794
      61    H29     17.423921   21.489549   17.770443 H          1 MOL1         0.0794
      62    O15     15.415825   21.490711   18.317255 O.3        1 MOL1        -0.5486
      63    H30     14.869240   20.867269   18.848940 H          1 MOL1         0.3769
      64    C19     23.658928   22.810347   21.776819 C.3        1 MOL1         0.2972
      65    H31     24.730232   23.017986   21.893938 H          1 MOL1         0.0751
      66    O16     23.389139   21.393085   21.731238 O.3        1 MOL1        -0.3740
      67    C20     22.843007   23.431424   22.939499 C.3        1 MOL1         0.1003
      68    H32     22.975072   24.519887   22.883382 H          1 MOL1         0.0783
      69    O17     23.307550   22.977411   24.219388 O.3        1 MOL1        -0.5519
      70    H33     23.420896   21.994622   24.166292 H          1 MOL1         0.3769
      71    C21     21.334919   23.130668   22.760705 C.3        1 MOL1         0.1053
      72    H34     21.184733   22.046046   22.837069 H          1 MOL1         0.0783
      73    O18     20.596736   23.797102   23.789837 O.3        1 MOL1        -0.5519
      74    H35     21.104140   23.626447   24.615016 H          1 MOL1         0.3769
      75    C22     20.842575   23.597992   21.368003 C.3        1 MOL1         0.1018
      76    H36     20.779131   24.694272   21.383294 H          1 MOL1         0.0783
      77    C23     21.787583   23.141987   20.216378 C.3        1 MOL1         0.1043
      78    H37     21.663645   22.062558   20.071840 H          1 MOL1         0.0783
      79    O19     23.172238   23.408529   20.555914 O.3        1 MOL1        -0.3740
      80    C24     21.479905   23.821145   18.860193 C.3        1 MOL1         0.0138
      81    H38     20.532519   23.419118   18.476103 H          1 MOL1         0.0794
      82    H39     22.265159   23.544261   18.144109 H          1 MOL1         0.0794
      83    O20     21.391696   25.247167   18.976360 O.3        1 MOL1        -0.5486
      84    H40     21.272083   25.612478   18.072591 H          1 MOL1         0.3769
      85    C25     25.000874   17.602254   21.830249 C.3        1 MOL1         0.2972
      86    H41     25.618546   16.697364   21.897142 H          1 MOL1         0.0751
      87    O21     23.689221   17.314497   21.303455 O.3        1 MOL1        -0.3740
      88    C26     24.853057   18.257852   23.226282 C.3        1 MOL1         0.1003
      89    H42     25.858611   18.549476   23.556623 H          1 MOL1         0.0783
      90    O22     24.287697   17.348225   24.184266 O.3        1 MOL1        -0.5519
      91    H43     24.203930   16.469525   23.739301 H          1 MOL1         0.3769
      92    C27     23.986821   19.533745   23.138085 C.3        1 MOL1         0.1053
      93    H44     22.969852   19.221849   22.882652 H          1 MOL1         0.0783
      94    O23     23.979778   20.179130   24.413320 O.3        1 MOL1        -0.5519
      95    H45     23.843942   19.447560   25.057434 H          1 MOL1         0.3769
      96    C28     24.487024   20.506209   22.038507 C.3        1 MOL1         0.1018
      97    H46     25.360297   21.046602   22.426647 H          1 MOL1         0.0783
      98    C29     24.858550   19.782927   20.710903 C.3        1 MOL1         0.1043
      99    H47     23.925586   19.508152   20.203108 H          1 MOL1         0.0783
     100    O24     25.624458   18.576326   20.966939 O.3        1 MOL1        -0.3740
     101    C30     25.659437   20.678403   19.735840 C.3        1 MOL1         0.0138
     102    H48     24.994130   21.470249   19.365355 H          1 MOL1         0.0794
     103    H49     25.961089   20.073033   18.870623 H          1 MOL1         0.0794
     104    O25     26.809088   21.263844   20.360409 O.3        1 MOL1        -0.5486
     105    H50     27.293861   21.772508   19.674176 H          1 MOL1         0.3769
     106    C31     21.243567   14.098189   20.335478 C.3        1 MOL1         0.2972
     107    H51     20.799545   13.177951   19.934435 H          1 MOL1         0.0751
     108    O26     20.243869   14.962694   20.914033 O.3        1 MOL1        -0.3740
     109    C32     22.315787   13.783066   21.411264 C.3        1 MOL1         0.1003
     110    H52     23.108554   13.206919   20.916422 H          1 MOL1         0.0783
     111    O27     21.776699   12.998668   22.485716 O.3        1 MOL1        -0.5519
     112    H53     21.006242   13.499052   22.857132 H          1 MOL1         0.3769
     113    C33     22.948242   15.089623   21.954327 C.3        1 MOL1         0.1053
     114    H54     22.171933   15.647742   22.496519 H          1 MOL1         0.0783
     115    O28     24.016708   14.751541   22.844786 O.3        1 MOL1        -0.5519
     116    H55     23.679951   13.986684   23.365200 H          1 MOL1         0.3769
     117    C34     23.470999   15.983111   20.796309 C.3        1 MOL1         0.1018
     118    H56     24.395272   15.547516   20.395833 H          1 MOL1         0.0783
     119    C35     22.436181   16.124819   19.646505 C.3        1 MOL1         0.1043
     120    H57     21.615210   16.752887   20.006273 H          1 MOL1         0.0783
     121    O29     21.908567   14.826314   19.279862 O.3        1 MOL1        -0.3740
     122    C36     22.999695   16.815623   18.379822 C.3        1 MOL1         0.0138
     123    H58     23.095513   17.890604   18.582297 H          1 MOL1         0.0794
     124    H59     22.268472   16.703965   17.568280 H          1 MOL1         0.0794
     125    O30     24.268344   16.287272   17.974753 O.3        1 MOL1        -0.5486
     126    H60     24.942708   16.628975   18.600809 H          1 MOL1         0.3769
     127    C1      20.334051   19.074407   22.789715 C.3        1 MOL1        -0.1693
     128    H1      20.762566   18.144797   23.187957 H          1 MOL1         0.0829
     129    H2      20.507525   19.878905   23.513473 H          1 MOL1         0.0829
     130    C2      18.875941   18.943160   22.245435 C.3        1 MOL1        -0.1768
     131    H3      18.239765   18.232306   22.777383 H          1 MOL1         0.0829
     132    H4      18.341039   19.892383   22.143041 H          1 MOL1         0.0829
     133    C3      19.550809   18.418138   20.942248 C.3        1 MOL1         0.1211
     134    H5      19.819542   17.359831   20.998998 H          1 MOL1         0.0786
     135    C4      20.709538   19.386717   21.304520 C.3        1 MOL1        -0.1768
     136    H6      21.705731   19.082338   20.974148 H          1 MOL1         0.0829
     137    H7      20.537120   20.424089   21.002247 H          1 MOL1         0.0829
     138    O1      18.909907   18.698966   19.720363 O.3        1 MOL1        -0.5515
     139    H8      19.560321   18.536537   19.009953 H          1 MOL1         0.3773
@<TRIPOS>BOND
    1     1     2    1
    2     1     3    1
    3     1     4    1
    4     4     5    1
    5     4     6    1
    6     6     7    1
    7     4     8    1
    8     8     9    1
    9     8    10    1
   10    10    11    1
   11     8    12    1
   12    12    13    1
   13    12    14    1
   14    14    15    1
   15     1    16    1
   16    14    16    1
   17    14    17    1
   18    17    18    1
   19    17    19    1
   20    17    20    1
   21    20    21    1
   22    22    23    1
   23    22    24    1
   24    22    25    1
   25    25    26    1
   26    25    27    1
   27    27    28    1
   28    25    29    1
   29    29    30    1
   30    29    31    1
   31    31    32    1
   32     3    33    1
   33    29    33    1
   34    33    34    1
   35    33    35    1
   36    35    36    1
   37    22    37    1
   38    35    37    1
   39    35    38    1
   40    38    39    1
   41    38    40    1
   42    38    41    1
   43    41    42    1
   44    43    44    1
   45    43    45    1
   46    43    46    1
   47    46    47    1
   48    46    48    1
   49    48    49    1
   50    46    50    1
   51    50    51    1
   52    50    52    1
   53    52    53    1
   54    24    54    1
   55    50    54    1
   56    54    55    1
   57    54    56    1
   58    56    57    1
   59    43    58    1
   60    56    58    1
   61    56    59    1
   62    59    60    1
   63    59    61    1
   64    59    62    1
   65    62    63    1
   66    64    65    1
   67    64    66    1
   68    64    67    1
   69    67    68    1
   70    67    69    1
   71    69    70    1
   72    67    71    1
   73    71    72    1
   74    71    73    1
   75    73    74    1
   76    45    75    1
   77    71    75    1
   78    75    76    1
   79    75    77    1
   80    77    78    1
   81    64    79    1
   82    77    79    1
   83    77    80    1
   84    80    81    1
   85    80    82    1
   86    80    83    1
   87    83    84    1
   88    85    86    1
   89    85    87    1
   90    85    88    1
   91    88    89    1
   92    88    90    1
   93    90    91    1
   94    88    92    1
   95    92    93    1
   96    92    94    1
   97    94    95    1
   98    66    96    1
   99    92    96    1
  100    96    97    1
  101    96    98    1
  102    98    99    1
  103    85   100    1
  104    98   100    1
  105    98   101    1
  106   101   102    1
  107   101   103    1
  108   101   104    1
  109   104   105    1
  110   106   107    1
  111    12   108    1
  112   106   108    1
  113   106   109    1
  114   109   110    1
  115   109   111    1
  116   111   112    1
  117   109   113    1
  118   113   114    1
  119   113   115    1
  120   115   116    1
  121    87   117    1
  122   113   117    1
  123   117   118    1
  124   117   119    1
  125   119   120    1
  126   106   121    1
  127   119   121    1
  128   119   122    1
  129   122   123    1
  130   122   124    1
  131   122   125    1
  132   125   126    1
  133   127   128    1
  134   127   129    1
  135   127   130    1
  136   130   131    1
  137   130   132    1
  138   130   133    1
  139   133   134    1
  140   127   135    1
  141   133   135    1
  142   135   136    1
  143   135   137    1
  144   133   138    1
  145   138   139    1
@<TRIPOS>SUBSTRUCTURE
       1 MOL1            1 RESIDUE      1      MOL     
       2 MOL1          139 RESIDUE      1      MOL     
@<SCITEGIC>MOL_PROPERTY
feprocess Rank
SciTegic.value.IntegerValue
38

@<SCITEGIC>MOL_PROPERTY
Conf_Id
SciTegic.value.IntegerValue
41

@<SCITEGIC>MOL_PROPERTY
Probability
SciTegic.value.DoubleValue
0.39

@<SCITEGIC>MOL_PROPERTY
G
SciTegic.value.DoubleValue
547.361

@<SCITEGIC>MOL_PROPERTY
E
SciTegic.value.DoubleValue
368.447

@<SCITEGIC>MOL_PROPERTY
-TS
SciTegic.value.DoubleValue
178.915

@<SCITEGIC>MOL_PROPERTY
U+W
SciTegic.value.DoubleValue
245.935

@<SCITEGIC>MOL_PROPERTY
U
SciTegic.value.DoubleValue
283.818

@<SCITEGIC>MOL_PROPERTY
W
SciTegic.value.DoubleValue
-37.883

@<SCITEGIC>MOL_PROPERTY
W(PB)
SciTegic.value.DoubleValue
-43.874

@<SCITEGIC>MOL_PROPERTY
W(SA)
SciTegic.value.DoubleValue
5.991

@<SCITEGIC>MOL_PROPERTY
Valence
SciTegic.value.DoubleValue
153.536

@<SCITEGIC>MOL_PROPERTY
Coulomb
SciTegic.value.DoubleValue
151.373

@<SCITEGIC>MOL_PROPERTY
VdW
SciTegic.value.DoubleValue
-21.091

@<SCITEGIC>MOL_PROPERTY
VdW6
SciTegic.value.DoubleValue
-170.135

@<SCITEGIC>MOL_PROPERTY
VdW12
SciTegic.value.DoubleValue
149.044

@<SCITEGIC>MOL_PROPERTY
Bond
SciTegic.value.DoubleValue
4.787

@<SCITEGIC>MOL_PROPERTY
Angle
SciTegic.value.DoubleValue
12.392

@<SCITEGIC>MOL_PROPERTY
Pdih
SciTegic.value.DoubleValue
136.357

@<SCITEGIC>MOL_PROPERTY
Idih
SciTegic.value.DoubleValue
0.000

@<SCITEGIC>MOL_PROPERTY
Tether
SciTegic.value.DoubleValue
0.000

@<TRIPOS>MOLECULE
CD_guest-s16_fast_vm2_rndm.mol2 : feprocess host+ligand conformer 39
         139         145           2
SMALL
USER_CHARGES
 
@<TRIPOS>ATOM
       1    C1      16.189976   15.030724   21.727150 C.3        1 MOL1         0.2972
       2    H1      15.139822   14.831181   21.974608 H          1 MOL1         0.0751
       3    O1      16.476858   16.442794   21.689808 O.3        1 MOL1        -0.3740
       4    C2      17.116976   14.380456   22.781069 C.3        1 MOL1         0.1003
       5    H2      16.954701   13.295557   22.738366 H          1 MOL1         0.0783
       6    O2      16.801150   14.852460   24.100822 O.3        1 MOL1        -0.5519
       7    H3      16.469512   15.780715   24.010019 H          1 MOL1         0.3769
       8    C3      18.602471   14.651783   22.446667 C.3        1 MOL1         0.1053
       9    H4      18.789604   15.724566   22.581091 H          1 MOL1         0.0783
      10    O3      19.424034   13.906569   23.350528 O.3        1 MOL1        -0.5519
      11    H5      19.068567   14.116572   24.242745 H          1 MOL1         0.3769
      12    C4      18.943956   14.279160   20.978673 C.3        1 MOL1         0.1018
      13    H6      19.076787   13.191281   20.911913 H          1 MOL1         0.0783
      14    C5      17.864016   14.753224   19.961335 C.3        1 MOL1         0.1043
      15    H7      17.969137   15.839540   19.842111 H          1 MOL1         0.0783
      16    O4      16.526872   14.464570   20.444693 O.3        1 MOL1        -0.3740
      17    C6      18.023990   14.126276   18.555715 C.3        1 MOL1         0.0138
      18    H8      18.918803   14.554063   18.083629 H          1 MOL1         0.0794
      19    H9      17.160773   14.417111   17.942196 H          1 MOL1         0.0794
      20    O5      18.138600   12.698830   18.609316 O.3        1 MOL1        -0.5486
      21    H10     18.156976   12.366159   17.685375 H          1 MOL1         0.3769
      22    C7      14.813366   20.230727   21.687666 C.3        1 MOL1         0.2972
      23    H11     14.150845   21.106118   21.683710 H          1 MOL1         0.0751
      24    O6      16.197977   20.614108   21.583068 O.3        1 MOL1        -0.3740
      25    C8      14.637826   19.445870   23.009600 C.3        1 MOL1         0.1003
      26    H12     13.594102   19.109642   23.062104 H          1 MOL1         0.0783
      27    O7      14.924321   20.291200   24.135439 O.3        1 MOL1        -0.5519
      28    H13     15.436539   21.062015   23.789178 H          1 MOL1         0.3769
      29    C9      15.549031   18.197138   23.025073 C.3        1 MOL1         0.1053
      30    H14     16.590616   18.541085   23.051441 H          1 MOL1         0.0783
      31    O8      15.272837   17.416987   24.191524 O.3        1 MOL1        -0.5519
      32    H15     15.214353   18.070837   24.924086 H          1 MOL1         0.3769
      33    C10     15.351726   17.338803   21.750905 C.3        1 MOL1         0.1018
      34    H16     14.395232   16.806384   21.829762 H          1 MOL1         0.0783
      35    C11     15.371988   18.190049   20.450254 C.3        1 MOL1         0.1043
      36    H17     16.399964   18.532250   20.293199 H          1 MOL1         0.0783
      37    O9      14.507313   19.347760   20.585857 O.3        1 MOL1        -0.3740
      38    C12     14.965446   17.408441   19.176660 C.3        1 MOL1         0.0138
      39    H18     15.794036   16.746860   18.891287 H          1 MOL1         0.0794
      40    H19     14.828974   18.125935   18.356524 H          1 MOL1         0.0794
      41    O10     13.772888   16.636352   19.356773 O.3        1 MOL1        -0.5486
      42    H20     14.036453   15.780598   19.758287 H          1 MOL1         0.3769
      43    C13     18.595265   23.859294   20.531931 C.3        1 MOL1         0.2972
      44    H21     18.980797   24.793295   20.103135 H          1 MOL1         0.0751
      45    O11     19.641467   23.084096   21.152547 O.3        1 MOL1        -0.3740
      46    C14     17.520601   24.151398   21.612722 C.3        1 MOL1         0.1003
      47    H22     16.710683   24.711881   21.128050 H          1 MOL1         0.0783
      48    O12     18.066285   24.940804   22.682063 O.3        1 MOL1        -0.5519
      49    H23     18.941632   24.545523   22.926178 H          1 MOL1         0.3769
      50    C15     16.924577   22.832119   22.165397 C.3        1 MOL1         0.1053
      51    H24     17.715556   22.308633   22.717210 H          1 MOL1         0.0783
      52    O13     15.835443   23.121627   23.047672 O.3        1 MOL1        -0.5519
      53    H25     16.153846   23.860508   23.613138 H          1 MOL1         0.3769
      54    C16     16.444422   21.912553   21.015065 C.3        1 MOL1         0.1018
      55    H26     15.540649   22.347375   20.567984 H          1 MOL1         0.0783
      56    C17     17.525501   21.745537   19.915093 C.3        1 MOL1         0.1043
      57    H27     18.363918   21.191586   20.347907 H          1 MOL1         0.0783
      58    O14     17.982613   23.054367   19.499396 O.3        1 MOL1        -0.3740
      59    C18     17.063735   20.956059   18.662195 C.3        1 MOL1         0.0138
      60    H28     17.285549   19.893499   18.819910 H          1 MOL1         0.0794
      61    H29     17.667811   21.278887   17.803800 H          1 MOL1         0.0794
      62    O15     15.670095   21.117455   18.369705 O.3        1 MOL1        -0.5486
      63    H30     15.167295   20.619424   19.055698 H          1 MOL1         0.3769
      64    C19     23.744731   22.833464   21.588516 C.3        1 MOL1         0.2972
      65    H31     24.831723   22.981360   21.625363 H          1 MOL1         0.0751
      66    O16     23.387311   21.444203   21.735550 O.3        1 MOL1        -0.3740
      67    C20     23.028595   23.646128   22.697725 C.3        1 MOL1         0.1003
      68    H32     23.216687   24.708925   22.496971 H          1 MOL1         0.0783
      69    O17     23.535441   23.322423   24.001369 O.3        1 MOL1        -0.5519
      70    H33     23.515253   22.336039   24.092789 H          1 MOL1         0.3769
      71    C21     21.499168   23.413274   22.630179 C.3        1 MOL1         0.1053
      72    H34     21.303343   22.361907   22.873441 H          1 MOL1         0.0783
      73    O18     20.841492   24.259077   23.579578 O.3        1 MOL1        -0.5519
      74    H35     21.373187   24.179283   24.402844 H          1 MOL1         0.3769
      75    C22     20.947449   23.692485   21.209799 C.3        1 MOL1         0.1018
      76    H36     20.899183   24.780775   21.072243 H          1 MOL1         0.0783
      77    C23     21.814589   23.052408   20.086497 C.3        1 MOL1         0.1043
      78    H37     21.639852   21.969583   20.093661 H          1 MOL1         0.0783
      79    O19     23.223701   23.299413   20.325483 O.3        1 MOL1        -0.3740
      80    C24     21.463296   23.563414   18.668504 C.3        1 MOL1         0.0138
      81    H38     20.485620   23.153288   18.382037 H          1 MOL1         0.0794
      82    H39     22.202673   23.166270   17.960237 H          1 MOL1         0.0794
      83    O20     21.428169   24.994836   18.601779 O.3        1 MOL1        -0.5486
      84    H40     21.262667   25.245045   17.666623 H          1 MOL1         0.3769
      85    C25     24.720292   17.598171   22.280917 C.3        1 MOL1         0.2972
      86    H41     25.264917   16.667162   22.483538 H          1 MOL1         0.0751
      87    O21     23.429605   17.335334   21.698478 O.3        1 MOL1        -0.3740
      88    C26     24.501032   18.378445   23.599520 C.3        1 MOL1         0.1003
      89    H42     25.486535   18.595509   24.031330 H          1 MOL1         0.0783
      90    O22     23.729465   17.589686   24.516988 O.3        1 MOL1        -0.5519
      91    H43     22.961304   17.256086   23.994867 H          1 MOL1         0.3769
      92    C27     23.772426   19.714685   23.341109 C.3        1 MOL1         0.1053
      93    H44     22.749982   19.466609   23.045842 H          1 MOL1         0.0783
      94    O23     23.742643   20.478649   24.550002 O.3        1 MOL1        -0.5519
      95    H45     23.477579   19.837954   25.247064 H          1 MOL1         0.3769
      96    C28     24.412148   20.539660   22.196822 C.3        1 MOL1         0.1018
      97    H46     25.290635   21.068200   22.589852 H          1 MOL1         0.0783
      98    C29     24.806073   19.671692   20.968665 C.3        1 MOL1         0.1043
      99    H47     23.879991   19.420426   20.440416 H          1 MOL1         0.0783
     100    O24     25.462020   18.441814   21.373171 O.3        1 MOL1        -0.3740
     101    C30     25.717928   20.412322   19.961706 C.3        1 MOL1         0.0138
     102    H48     25.129031   21.201090   19.473973 H          1 MOL1         0.0794
     103    H49     26.026785   19.705459   19.179928 H          1 MOL1         0.0794
     104    O25     26.866639   20.986938   20.597081 O.3        1 MOL1        -0.5486
     105    H50     27.428565   21.382578   19.895377 H          1 MOL1         0.3769
     106    C31     21.213785   14.269720   19.997422 C.3        1 MOL1         0.2972
     107    H51     20.826562   13.426353   19.411344 H          1 MOL1         0.0751
     108    O26     20.151009   14.993879   20.649621 O.3        1 MOL1        -0.3740
     109    C32     22.240796   13.796719   21.059451 C.3        1 MOL1         0.1003
     110    H52     23.081946   13.350183   20.513368 H          1 MOL1         0.0783
     111    O27     21.685236   12.806033   21.937098 O.3        1 MOL1        -0.5519
     112    H53     20.922582   13.230122   22.406364 H          1 MOL1         0.3769
     113    C33     22.789262   14.999864   21.867988 C.3        1 MOL1         0.1053
     114    H54     21.968672   15.411159   22.472430 H          1 MOL1         0.0783
     115    O28     23.842817   14.537674   22.719191 O.3        1 MOL1        -0.5519
     116    H55     23.482150   13.741757   23.167982 H          1 MOL1         0.3769
     117    C34     23.312022   16.122676   20.929641 C.3        1 MOL1         0.1018
     118    H56     24.279176   15.810955   20.514843 H          1 MOL1         0.0783
     119    C35     22.330181   16.433124   19.765026 C.3        1 MOL1         0.1043
     120    H57     21.454226   16.937759   20.188333 H          1 MOL1         0.0783
     121    O29     21.908781   15.197658   19.134607 O.3        1 MOL1        -0.3740
     122    C36     22.899804   17.382033   18.678537 C.3        1 MOL1         0.0138
     123    H58     22.671425   18.414851   18.969565 H          1 MOL1         0.0794
     124    H59     22.366330   17.196957   17.736678 H          1 MOL1         0.0794
     125    O30     24.312475   17.236511   18.480597 O.3        1 MOL1        -0.5486
     126    H60     24.755730   17.496457   19.319408 H          1 MOL1         0.3769
     127    C1      20.402784   19.500008   21.534473 C.3        1 MOL1        -0.1693
     128    H1      20.255625   20.264955   20.768398 H          1 MOL1         0.0829
     129    H2      21.416470   19.102064   21.425658 H          1 MOL1         0.0829
     130    C2      19.299283   18.401618   21.646386 C.3        1 MOL1        -0.1768
     131    H3      18.292227   18.753007   21.407171 H          1 MOL1         0.0829
     132    H4      19.481194   17.471690   21.103901 H          1 MOL1         0.0829
     133    C3      19.618288   18.376365   23.174612 C.3        1 MOL1         0.1211
     134    H5      18.750007   18.182283   23.816340 H          1 MOL1         0.0786
     135    C4      19.977310   19.882628   22.993707 C.3        1 MOL1        -0.1768
     136    H6      20.762195   20.266934   23.651917 H          1 MOL1         0.0829
     137    H7      19.116571   20.557367   23.052545 H          1 MOL1         0.0829
     138    O1      20.699260   17.552045   23.568984 O.3        1 MOL1        -0.5515
     139    H8      20.795745   17.660641   24.535514 H          1 MOL1         0.3773
@<TRIPOS>BOND
    1     1     2    1
    2     1     3    1
    3     1     4    1
    4     4     5    1
    5     4     6    1
    6     6     7    1
    7     4     8    1
    8     8     9    1
    9     8    10    1
   10    10    11    1
   11     8    12    1
   12    12    13    1
   13    12    14    1
   14    14    15    1
   15     1    16    1
   16    14    16    1
   17    14    17    1
   18    17    18    1
   19    17    19    1
   20    17    20    1
   21    20    21    1
   22    22    23    1
   23    22    24    1
   24    22    25    1
   25    25    26    1
   26    25    27    1
   27    27    28    1
   28    25    29    1
   29    29    30    1
   30    29    31    1
   31    31    32    1
   32     3    33    1
   33    29    33    1
   34    33    34    1
   35    33    35    1
   36    35    36    1
   37    22    37    1
   38    35    37    1
   39    35    38    1
   40    38    39    1
   41    38    40    1
   42    38    41    1
   43    41    42    1
   44    43    44    1
   45    43    45    1
   46    43    46    1
   47    46    47    1
   48    46    48    1
   49    48    49    1
   50    46    50    1
   51    50    51    1
   52    50    52    1
   53    52    53    1
   54    24    54    1
   55    50    54    1
   56    54    55    1
   57    54    56    1
   58    56    57    1
   59    43    58    1
   60    56    58    1
   61    56    59    1
   62    59    60    1
   63    59    61    1
   64    59    62    1
   65    62    63    1
   66    64    65    1
   67    64    66    1
   68    64    67    1
   69    67    68    1
   70    67    69    1
   71    69    70    1
   72    67    71    1
   73    71    72    1
   74    71    73    1
   75    73    74    1
   76    45    75    1
   77    71    75    1
   78    75    76    1
   79    75    77    1
   80    77    78    1
   81    64    79    1
   82    77    79    1
   83    77    80    1
   84    80    81    1
   85    80    82    1
   86    80    83    1
   87    83    84    1
   88    85    86    1
   89    85    87    1
   90    85    88    1
   91    88    89    1
   92    88    90    1
   93    90    91    1
   94    88    92    1
   95    92    93    1
   96    92    94    1
   97    94    95    1
   98    66    96    1
   99    92    96    1
  100    96    97    1
  101    96    98    1
  102    98    99    1
  103    85   100    1
  104    98   100    1
  105    98   101    1
  106   101   102    1
  107   101   103    1
  108   101   104    1
  109   104   105    1
  110   106   107    1
  111    12   108    1
  112   106   108    1
  113   106   109    1
  114   109   110    1
  115   109   111    1
  116   111   112    1
  117   109   113    1
  118   113   114    1
  119   113   115    1
  120   115   116    1
  121    87   117    1
  122   113   117    1
  123   117   118    1
  124   117   119    1
  125   119   120    1
  126   106   121    1
  127   119   121    1
  128   119   122    1
  129   122   123    1
  130   122   124    1
  131   122   125    1
  132   125   126    1
  133   127   128    1
  134   127   129    1
  135   127   130    1
  136   130   131    1
  137   130   132    1
  138   130   133    1
  139   133   134    1
  140   127   135    1
  141   133   135    1
  142   135   136    1
  143   135   137    1
  144   133   138    1
  145   138   139    1
@<TRIPOS>SUBSTRUCTURE
       1 MOL1            1 RESIDUE      1      MOL     
       2 MOL1          139 RESIDUE      1      MOL     
@<SCITEGIC>MOL_PROPERTY
feprocess Rank
SciTegic.value.IntegerValue
39

@<SCITEGIC>MOL_PROPERTY
Conf_Id
SciTegic.value.IntegerValue
723

@<SCITEGIC>MOL_PROPERTY
Probability
SciTegic.value.DoubleValue
0.38

@<SCITEGIC>MOL_PROPERTY
G
SciTegic.value.DoubleValue
547.368

@<SCITEGIC>MOL_PROPERTY
E
SciTegic.value.DoubleValue
369.544

@<SCITEGIC>MOL_PROPERTY
-TS
SciTegic.value.DoubleValue
177.825

@<SCITEGIC>MOL_PROPERTY
U+W
SciTegic.value.DoubleValue
247.033

@<SCITEGIC>MOL_PROPERTY
U
SciTegic.value.DoubleValue
286.600

@<SCITEGIC>MOL_PROPERTY
W
SciTegic.value.DoubleValue
-39.568

@<SCITEGIC>MOL_PROPERTY
W(PB)
SciTegic.value.DoubleValue
-45.515

@<SCITEGIC>MOL_PROPERTY
W(SA)
SciTegic.value.DoubleValue
5.948

@<SCITEGIC>MOL_PROPERTY
Valence
SciTegic.value.DoubleValue
152.499

@<SCITEGIC>MOL_PROPERTY
Coulomb
SciTegic.value.DoubleValue
156.335

@<SCITEGIC>MOL_PROPERTY
VdW
SciTegic.value.DoubleValue
-22.234

@<SCITEGIC>MOL_PROPERTY
VdW6
SciTegic.value.DoubleValue
-169.162

@<SCITEGIC>MOL_PROPERTY
VdW12
SciTegic.value.DoubleValue
146.928

@<SCITEGIC>MOL_PROPERTY
Bond
SciTegic.value.DoubleValue
4.562

@<SCITEGIC>MOL_PROPERTY
Angle
SciTegic.value.DoubleValue
12.334

@<SCITEGIC>MOL_PROPERTY
Pdih
SciTegic.value.DoubleValue
135.603

@<SCITEGIC>MOL_PROPERTY
Idih
SciTegic.value.DoubleValue
0.000

@<SCITEGIC>MOL_PROPERTY
Tether
SciTegic.value.DoubleValue
0.000

@<TRIPOS>MOLECULE
CD_guest-s16_fast_vm2_rndm.mol2 : feprocess host+ligand conformer 40
         139         145           2
SMALL
USER_CHARGES
 
@<TRIPOS>ATOM
       1    C1      16.037641   14.919991   21.627401 C.3        1 MOL1         0.2972
       2    H1      14.951286   14.800385   21.727730 H          1 MOL1         0.0751
       3    O1      16.441778   16.298585   21.738558 O.3        1 MOL1        -0.3740
       4    C2      16.760961   14.128665   22.740951 C.3        1 MOL1         0.1003
       5    H2      16.536206   13.063502   22.599255 H          1 MOL1         0.0783
       6    O2      16.297232   14.551467   24.033514 O.3        1 MOL1        -0.5519
       7    H3      16.056340   15.507819   23.954313 H          1 MOL1         0.3769
       8    C3      18.289464   14.322429   22.625276 C.3        1 MOL1         0.1053
       9    H4      18.506917   15.368308   22.874241 H          1 MOL1         0.0783
      10    O3      18.961916   13.465222   23.553762 O.3        1 MOL1        -0.5519
      11    H5      18.478257   13.579506   24.402080 H          1 MOL1         0.3769
      12    C4      18.806652   14.046306   21.190470 C.3        1 MOL1         0.1018
      13    H6      18.916488   12.961065   21.064253 H          1 MOL1         0.0783
      14    C5      17.901453   14.636367   20.068674 C.3        1 MOL1         0.1043
      15    H7      18.091347   15.716563   20.028353 H          1 MOL1         0.0783
      16    O4      16.496145   14.416836   20.357136 O.3        1 MOL1        -0.3740
      17    C6      18.203703   14.070269   18.660475 C.3        1 MOL1         0.0138
      18    H8      19.170704   14.466948   18.323368 H          1 MOL1         0.0794
      19    H9      17.440205   14.440110   17.962940 H          1 MOL1         0.0794
      20    O5      18.234859   12.637822   18.649884 O.3        1 MOL1        -0.5486
      21    H10     18.354775   12.349006   17.718833 H          1 MOL1         0.3769
      22    C7      14.954132   20.178196   21.417246 C.3        1 MOL1         0.2972
      23    H11     14.285887   21.037980   21.277001 H          1 MOL1         0.0751
      24    O6      16.321479   20.600205   21.594509 O.3        1 MOL1        -0.3740
      25    C8      14.515074   19.386030   22.673957 C.3        1 MOL1         0.1003
      26    H12     13.473678   19.074520   22.520412 H          1 MOL1         0.0783
      27    O7      14.594837   20.215719   23.844160 O.3        1 MOL1        -0.5519
      28    H13     15.103059   21.023426   23.586171 H          1 MOL1         0.3769
      29    C9      15.374165   18.114355   22.853229 C.3        1 MOL1         0.1053
      30    H14     16.398407   18.430163   23.086253 H          1 MOL1         0.0783
      31    O8      14.853359   17.323898   23.927214 O.3        1 MOL1        -0.5519
      32    H15     14.682951   17.965356   24.652877 H          1 MOL1         0.3769
      33    C10     15.412182   17.282627   21.550177 C.3        1 MOL1         0.1018
      34    H16     14.424545   16.830383   21.389973 H          1 MOL1         0.0783
      35    C11     15.792995   18.156005   20.323550 C.3        1 MOL1         0.1043
      36    H17     16.825367   18.497569   20.465708 H          1 MOL1         0.0783
      37    O9      14.909386   19.304618   20.266898 O.3        1 MOL1        -0.3740
      38    C12     15.742258   17.427949   18.954807 C.3        1 MOL1         0.0138
      39    H18     16.722163   16.973744   18.763609 H          1 MOL1         0.0794
      40    H19     15.582769   18.174916   18.165677 H          1 MOL1         0.0794
      41    O10     14.727374   16.420262   18.887204 O.3        1 MOL1        -0.5486
      42    H20     15.096521   15.615343   19.318961 H          1 MOL1         0.3769
      43    C13     18.579004   24.077432   20.855518 C.3        1 MOL1         0.2972
      44    H21     18.889044   25.049235   20.450025 H          1 MOL1         0.0751
      45    O11     19.615604   23.495164   21.670286 O.3        1 MOL1        -0.3740
      46    C14     17.330300   24.247765   21.762429 C.3        1 MOL1         0.1003
      47    H22     16.548422   24.731255   21.162436 H          1 MOL1         0.0783
      48    O12     17.647963   25.075701   22.891679 O.3        1 MOL1        -0.5519
      49    H23     18.532175   24.775690   23.209591 H          1 MOL1         0.3769
      50    C15     16.788812   22.877482   22.245705 C.3        1 MOL1         0.1053
      51    H24     17.521747   22.445111   22.939247 H          1 MOL1         0.0783
      52    O13     15.537973   23.061212   22.917642 O.3        1 MOL1        -0.5519
      53    H25     15.679857   23.822935   23.522962 H          1 MOL1         0.3769
      54    C16     16.616251   21.902731   21.056729 C.3        1 MOL1         0.1018
      55    H26     15.805975   22.271728   20.413512 H          1 MOL1         0.0783
      56    C17     17.911225   21.817110   20.211388 C.3        1 MOL1         0.1043
      57    H27     18.718016   21.417863   20.836177 H          1 MOL1         0.0783
      58    O14     18.246367   23.158167   19.791562 O.3        1 MOL1        -0.3740
      59    C18     17.813153   20.913666   18.956169 C.3        1 MOL1         0.0138
      60    H28     18.047979   19.883336   19.250703 H          1 MOL1         0.0794
      61    H29     18.589841   21.221464   18.243656 H          1 MOL1         0.0794
      62    O15     16.524630   20.957887   18.330291 O.3        1 MOL1        -0.5486
      63    H30     15.891740   20.496514   18.928268 H          1 MOL1         0.3769
      64    C19     23.713457   22.893008   21.529785 C.3        1 MOL1         0.2972
      65    H31     24.803054   22.974924   21.425511 H          1 MOL1         0.0751
      66    O16     23.296366   21.529112   21.749603 O.3        1 MOL1        -0.3740
      67    C20     23.214560   23.759287   22.709470 C.3        1 MOL1         0.1003
      68    H32     23.481518   24.800831   22.487849 H          1 MOL1         0.0783
      69    O17     23.837962   23.365580   23.942727 O.3        1 MOL1        -0.5519
      70    H33     23.802225   22.376619   23.993822 H          1 MOL1         0.3769
      71    C21     21.675305   23.677715   22.827597 C.3        1 MOL1         0.1053
      72    H34     21.414710   22.655053   23.127725 H          1 MOL1         0.0783
      73    O18     21.232870   24.599942   23.829790 O.3        1 MOL1        -0.5519
      74    H35     21.838072   24.459814   24.591430 H          1 MOL1         0.3769
      75    C22     20.963894   23.979103   21.481539 C.3        1 MOL1         0.1018
      76    H36     20.976446   25.066286   21.331166 H          1 MOL1         0.0783
      77    C23     21.634771   23.261672   20.263442 C.3        1 MOL1         0.1043
      78    H37     21.361917   22.199079   20.292386 H          1 MOL1         0.0783
      79    O19     23.075627   23.384746   20.338815 O.3        1 MOL1        -0.3740
      80    C24     21.240790   23.816779   18.870191 C.3        1 MOL1         0.0138
      81    H38     20.271561   23.405048   18.571700 H          1 MOL1         0.0794
      82    H39     21.969636   23.449369   18.135219 H          1 MOL1         0.0794
      83    O20     21.198848   25.249441   18.842597 O.3        1 MOL1        -0.5486
      84    H40     21.008247   25.523073   17.918953 H          1 MOL1         0.3769
      85    C25     24.789285   17.676280   21.864974 C.3        1 MOL1         0.2972
      86    H41     25.400762   16.766001   21.917122 H          1 MOL1         0.0751
      87    O21     23.414006   17.376219   21.569834 O.3        1 MOL1        -0.3740
      88    C26     24.833259   18.422600   23.219496 C.3        1 MOL1         0.1003
      89    H42     25.876636   18.706940   23.408357 H          1 MOL1         0.0783
      90    O22     24.369439   17.571901   24.280975 O.3        1 MOL1        -0.5519
      91    H43     24.086248   16.722252   23.863372 H          1 MOL1         0.3769
      92    C27     23.982178   19.710842   23.152706 C.3        1 MOL1         0.1053
      93    H44     22.933822   19.416699   23.040862 H          1 MOL1         0.0783
      94    O23     24.142473   20.455217   24.363397 O.3        1 MOL1        -0.5519
      95    H45     24.059030   19.786901   25.080270 H          1 MOL1         0.3769
      96    C28     24.369493   20.583288   21.935336 C.3        1 MOL1         0.1018
      97    H46     25.323544   21.077028   22.163420 H          1 MOL1         0.0783
      98    C29     24.499965   19.766997   20.617520 C.3        1 MOL1         0.1043
      99    H47     23.489940   19.488478   20.294321 H          1 MOL1         0.0783
     100    O24     25.277376   18.561466   20.835504 O.3        1 MOL1        -0.3740
     101    C30     25.147426   20.562087   19.458632 C.3        1 MOL1         0.0138
     102    H48     24.437940   21.330596   19.123473 H          1 MOL1         0.0794
     103    H49     25.311295   19.880425   18.613178 H          1 MOL1         0.0794
     104    O25     26.381249   21.177157   19.850312 O.3        1 MOL1        -0.5486
     105    H50     26.762032   21.611937   19.056364 H          1 MOL1         0.3769
     106    C31     21.134877   14.064496   20.417251 C.3        1 MOL1         0.2972
     107    H51     20.793791   13.136894   19.939482 H          1 MOL1         0.0751
     108    O26     20.067578   14.732606   21.111831 O.3        1 MOL1        -0.3740
     109    C32     22.244725   13.777123   21.463614 C.3        1 MOL1         0.1003
     110    H52     23.076323   13.290454   20.937674 H          1 MOL1         0.0783
     111    O27     21.761404   12.903423   22.497604 O.3        1 MOL1        -0.5519
     112    H53     20.882359   13.251748   22.792559 H          1 MOL1         0.3769
     113    C33     22.772645   15.097576   22.080696 C.3        1 MOL1         0.1053
     114    H54     21.962756   15.548938   22.669394 H          1 MOL1         0.0783
     115    O28     23.888586   14.818802   22.933150 O.3        1 MOL1        -0.5519
     116    H55     23.623927   14.023258   23.447669 H          1 MOL1         0.3769
     117    C34     23.176213   16.095491   20.966013 C.3        1 MOL1         0.1018
     118    H56     24.070311   15.716302   20.453474 H          1 MOL1         0.0783
     119    C35     22.042355   16.283220   19.925385 C.3        1 MOL1         0.1043
     120    H57     21.184144   16.753715   20.422816 H          1 MOL1         0.0783
     121    O29     21.660222   14.978132   19.426390 O.3        1 MOL1        -0.3740
     122    C36     22.420017   17.196266   18.730050 C.3        1 MOL1         0.0138
     123    H58     22.175915   18.231926   19.000017 H          1 MOL1         0.0794
     124    H59     21.785145   16.934822   17.873221 H          1 MOL1         0.0794
     125    O30     23.804458   17.108290   18.366325 O.3        1 MOL1        -0.5486
     126    H60     24.326226   17.478192   19.114909 H          1 MOL1         0.3769
     127    C1      19.490421   18.765059   24.036757 C.3        1 MOL1        -0.1693
     128    H1      18.409178   18.585741   24.047042 H          1 MOL1         0.0829
     129    H2      19.880026   18.603982   25.048751 H          1 MOL1         0.0829
     130    C2      19.929780   20.092686   23.337105 C.3        1 MOL1        -0.1768
     131    H3      20.927833   20.443296   23.622918 H          1 MOL1         0.0829
     132    H4      19.229820   20.930833   23.411107 H          1 MOL1         0.0829
     133    C3      19.871101   19.274578   22.012494 C.3        1 MOL1         0.1211
     134    H5      18.863780   19.194370   21.584032 H          1 MOL1         0.0786
     135    C4      20.264095   18.046191   22.884458 C.3        1 MOL1        -0.1768
     136    H6      21.334995   17.923642   23.069464 H          1 MOL1         0.0829
     137    H7      19.857552   17.087673   22.552816 H          1 MOL1         0.0829
     138    O1      20.799269   19.658359   21.024141 O.3        1 MOL1        -0.5515
     139    H8      21.578332   20.027261   21.488049 H          1 MOL1         0.3773
@<TRIPOS>BOND
    1     1     2    1
    2     1     3    1
    3     1     4    1
    4     4     5    1
    5     4     6    1
    6     6     7    1
    7     4     8    1
    8     8     9    1
    9     8    10    1
   10    10    11    1
   11     8    12    1
   12    12    13    1
   13    12    14    1
   14    14    15    1
   15     1    16    1
   16    14    16    1
   17    14    17    1
   18    17    18    1
   19    17    19    1
   20    17    20    1
   21    20    21    1
   22    22    23    1
   23    22    24    1
   24    22    25    1
   25    25    26    1
   26    25    27    1
   27    27    28    1
   28    25    29    1
   29    29    30    1
   30    29    31    1
   31    31    32    1
   32     3    33    1
   33    29    33    1
   34    33    34    1
   35    33    35    1
   36    35    36    1
   37    22    37    1
   38    35    37    1
   39    35    38    1
   40    38    39    1
   41    38    40    1
   42    38    41    1
   43    41    42    1
   44    43    44    1
   45    43    45    1
   46    43    46    1
   47    46    47    1
   48    46    48    1
   49    48    49    1
   50    46    50    1
   51    50    51    1
   52    50    52    1
   53    52    53    1
   54    24    54    1
   55    50    54    1
   56    54    55    1
   57    54    56    1
   58    56    57    1
   59    43    58    1
   60    56    58    1
   61    56    59    1
   62    59    60    1
   63    59    61    1
   64    59    62    1
   65    62    63    1
   66    64    65    1
   67    64    66    1
   68    64    67    1
   69    67    68    1
   70    67    69    1
   71    69    70    1
   72    67    71    1
   73    71    72    1
   74    71    73    1
   75    73    74    1
   76    45    75    1
   77    71    75    1
   78    75    76    1
   79    75    77    1
   80    77    78    1
   81    64    79    1
   82    77    79    1
   83    77    80    1
   84    80    81    1
   85    80    82    1
   86    80    83    1
   87    83    84    1
   88    85    86    1
   89    85    87    1
   90    85    88    1
   91    88    89    1
   92    88    90    1
   93    90    91    1
   94    88    92    1
   95    92    93    1
   96    92    94    1
   97    94    95    1
   98    66    96    1
   99    92    96    1
  100    96    97    1
  101    96    98    1
  102    98    99    1
  103    85   100    1
  104    98   100    1
  105    98   101    1
  106   101   102    1
  107   101   103    1
  108   101   104    1
  109   104   105    1
  110   106   107    1
  111    12   108    1
  112   106   108    1
  113   106   109    1
  114   109   110    1
  115   109   111    1
  116   111   112    1
  117   109   113    1
  118   113   114    1
  119   113   115    1
  120   115   116    1
  121    87   117    1
  122   113   117    1
  123   117   118    1
  124   117   119    1
  125   119   120    1
  126   106   121    1
  127   119   121    1
  128   119   122    1
  129   122   123    1
  130   122   124    1
  131   122   125    1
  132   125   126    1
  133   127   128    1
  134   127   129    1
  135   127   130    1
  136   130   131    1
  137   130   132    1
  138   130   133    1
  139   133   134    1
  140   127   135    1
  141   133   135    1
  142   135   136    1
  143   135   137    1
  144   133   138    1
  145   138   139    1
@<TRIPOS>SUBSTRUCTURE
       1 MOL1            1 RESIDUE      1      MOL     
       2 MOL1          139 RESIDUE      1      MOL     
@<SCITEGIC>MOL_PROPERTY
feprocess Rank
SciTegic.value.IntegerValue
40

@<SCITEGIC>MOL_PROPERTY
Conf_Id
SciTegic.value.IntegerValue
647

@<SCITEGIC>MOL_PROPERTY
Probability
SciTegic.value.DoubleValue
0.38

@<SCITEGIC>MOL_PROPERTY
G
SciTegic.value.DoubleValue
547.378

@<SCITEGIC>MOL_PROPERTY
E
SciTegic.value.DoubleValue
370.631

@<SCITEGIC>MOL_PROPERTY
-TS
SciTegic.value.DoubleValue
176.747

@<SCITEGIC>MOL_PROPERTY
U+W
SciTegic.value.DoubleValue
248.119

@<SCITEGIC>MOL_PROPERTY
U
SciTegic.value.DoubleValue
282.416

@<SCITEGIC>MOL_PROPERTY
W
SciTegic.value.DoubleValue
-34.296

@<SCITEGIC>MOL_PROPERTY
W(PB)
SciTegic.value.DoubleValue
-40.245

@<SCITEGIC>MOL_PROPERTY
W(SA)
SciTegic.value.DoubleValue
5.949

@<SCITEGIC>MOL_PROPERTY
Valence
SciTegic.value.DoubleValue
153.202

@<SCITEGIC>MOL_PROPERTY
Coulomb
SciTegic.value.DoubleValue
151.965

@<SCITEGIC>MOL_PROPERTY
VdW
SciTegic.value.DoubleValue
-22.751

@<SCITEGIC>MOL_PROPERTY
VdW6
SciTegic.value.DoubleValue
-167.180

@<SCITEGIC>MOL_PROPERTY
VdW12
SciTegic.value.DoubleValue
144.429

@<SCITEGIC>MOL_PROPERTY
Bond
SciTegic.value.DoubleValue
4.427

@<SCITEGIC>MOL_PROPERTY
Angle
SciTegic.value.DoubleValue
11.493

@<SCITEGIC>MOL_PROPERTY
Pdih
SciTegic.value.DoubleValue
137.283

@<SCITEGIC>MOL_PROPERTY
Idih
SciTegic.value.DoubleValue
0.000

@<SCITEGIC>MOL_PROPERTY
Tether
SciTegic.value.DoubleValue
0.000

@<TRIPOS>MOLECULE
CD_guest-s16_fast_vm2_rndm.mol2 : feprocess host+ligand conformer 41
         139         145           2
SMALL
USER_CHARGES
 
@<TRIPOS>ATOM
       1    C1      16.202350   15.218220   21.602411 C.3        1 MOL1         0.2972
       2    H1      15.115670   15.114532   21.719551 H          1 MOL1         0.0751
       3    O1      16.587360   16.589036   21.385141 O.3        1 MOL1        -0.3740
       4    C2      16.922317   14.713664   22.874075 C.3        1 MOL1         0.1003
       5    H2      16.693629   13.645657   22.984992 H          1 MOL1         0.0783
       6    O2      16.461681   15.424156   24.035483 O.3        1 MOL1        -0.5519
       7    H3      15.879893   16.155921   23.713937 H          1 MOL1         0.3769
       8    C3      18.451432   14.869121   22.719578 C.3        1 MOL1         0.1053
       9    H4      18.672785   15.942015   22.677040 H          1 MOL1         0.0783
      10    O3      19.100612   14.291643   23.855331 O.3        1 MOL1        -0.5519
      11    H5      18.584402   14.615538   24.627716 H          1 MOL1         0.3769
      12    C4      18.967287   14.218359   21.410095 C.3        1 MOL1         0.1018
      13    H6      19.017118   13.130549   21.551617 H          1 MOL1         0.0783
      14    C5      18.086457   14.566232   20.174266 C.3        1 MOL1         0.1043
      15    H7      18.297329   15.607785   19.901416 H          1 MOL1         0.0783
      16    O4      16.673325   14.440637   20.481970 O.3        1 MOL1        -0.3740
      17    C6      18.398850   13.699034   18.931628 C.3        1 MOL1         0.0138
      18    H8      19.386875   13.985510   18.546307 H          1 MOL1         0.0794
      19    H9      17.664074   13.929595   18.148490 H          1 MOL1         0.0794
      20    O5      18.383101   12.298467   19.234260 O.3        1 MOL1        -0.5486
      21    H10     18.514871   11.810181   18.392285 H          1 MOL1         0.3769
      22    C7      14.856525   20.314401   20.712798 C.3        1 MOL1         0.2972
      23    H11     14.215121   21.143261   20.386314 H          1 MOL1         0.0751
      24    O6      16.091873   20.784588   21.283018 O.3        1 MOL1        -0.3740
      25    C8      14.150846   19.453672   21.793988 C.3        1 MOL1         0.1003
      26    H12     13.230117   19.054844   21.348767 H          1 MOL1         0.0783
      27    O7      13.816348   20.246296   22.945060 O.3        1 MOL1        -0.5519
      28    H13     14.626292   20.758180   23.197367 H          1 MOL1         0.3769
      29    C9      15.042969   18.255915   22.209109 C.3        1 MOL1         0.1053
      30    H14     15.920544   18.652522   22.735566 H          1 MOL1         0.0783
      31    O8      14.312860   17.390444   23.084599 O.3        1 MOL1        -0.5519
      32    H15     13.852244   17.991523   23.712525 H          1 MOL1         0.3769
      33    C10     15.533254   17.470639   20.965575 C.3        1 MOL1         0.1018
      34    H16     14.684684   16.920192   20.538221 H          1 MOL1         0.0783
      35    C11     16.129228   18.400789   19.876252 C.3        1 MOL1         0.1043
      36    H17     17.056576   18.841188   20.262567 H          1 MOL1         0.0783
      37    O9      15.179016   19.456342   19.593826 O.3        1 MOL1        -0.3740
      38    C12     16.501789   17.678538   18.554667 C.3        1 MOL1         0.0138
      39    H18     17.539954   17.331144   18.633733 H          1 MOL1         0.0794
      40    H19     16.473616   18.409091   17.735276 H          1 MOL1         0.0794
      41    O10     15.649020   16.565932   18.254258 O.3        1 MOL1        -0.5486
      42    H20     15.842903   15.862083   18.915003 H          1 MOL1         0.3769
      43    C13     18.461672   24.083932   21.832964 C.3        1 MOL1         0.2972
      44    H21     18.908409   25.077112   21.972103 H          1 MOL1         0.0751
      45    O11     19.472765   23.064086   21.709425 O.3        1 MOL1        -0.3740
      46    C14     17.567448   23.738570   23.047272 C.3        1 MOL1         0.1003
      47    H22     16.763093   24.484252   23.093185 H          1 MOL1         0.0783
      48    O12     18.335774   23.787971   24.259532 O.3        1 MOL1        -0.5519
      49    H23     19.278283   23.658839   23.997701 H          1 MOL1         0.3769
      50    C15     16.923600   22.344963   22.871516 C.3        1 MOL1         0.1053
      51    H24     17.726058   21.599889   22.928837 H          1 MOL1         0.0783
      52    O13     15.980436   22.110916   23.922696 O.3        1 MOL1        -0.5519
      53    H25     16.448992   22.374153   24.745975 H          1 MOL1         0.3769
      54    C16     16.221634   22.201157   21.498294 C.3        1 MOL1         0.1018
      55    H26     15.246970   22.704459   21.548682 H          1 MOL1         0.0783
      56    C17     17.063437   22.761242   20.316181 C.3        1 MOL1         0.1043
      57    H27     17.872261   22.045981   20.129297 H          1 MOL1         0.0783
      58    O14     17.642026   24.050725   20.646391 O.3        1 MOL1        -0.3740
      59    C18     16.267415   22.906117   18.997022 C.3        1 MOL1         0.0138
      60    H28     16.059833   21.902885   18.601333 H          1 MOL1         0.0794
      61    H29     16.898543   23.420967   18.260143 H          1 MOL1         0.0794
      62    O15     15.038686   23.618729   19.185170 O.3        1 MOL1        -0.5486
      63    H30     14.625250   23.738271   18.302344 H          1 MOL1         0.3769
      64    C19     23.539997   22.652338   20.854211 C.3        1 MOL1         0.2972
      65    H31     24.567702   22.790006   20.494189 H          1 MOL1         0.0751
      66    O16     23.325333   21.323337   21.358630 O.3        1 MOL1        -0.3740
      67    C20     23.197927   23.658032   21.986418 C.3        1 MOL1         0.1003
      68    H32     23.314062   24.667933   21.572237 H          1 MOL1         0.0783
      69    O17     24.084285   23.503166   23.106503 O.3        1 MOL1        -0.5519
      70    H33     24.049870   22.551079   23.379335 H          1 MOL1         0.3769
      71    C21     21.725523   23.493543   22.441977 C.3        1 MOL1         0.1053
      72    H34     21.633223   22.519016   22.937045 H          1 MOL1         0.0783
      73    O18     21.386200   24.534400   23.364161 O.3        1 MOL1        -0.5519
      74    H35     22.145366   24.584528   23.986676 H          1 MOL1         0.3769
      75    C22     20.754622   23.516554   21.234029 C.3        1 MOL1         0.1018
      76    H36     20.708262   24.541338   20.842482 H          1 MOL1         0.0783
      77    C23     21.215375   22.563759   20.096303 C.3        1 MOL1         0.1043
      78    H37     21.131219   21.528332   20.453416 H          1 MOL1         0.0783
      79    O19     22.598451   22.861221   19.778576 O.3        1 MOL1        -0.3740
      80    C24     20.384496   22.655671   18.789864 C.3        1 MOL1         0.0138
      81    H38     19.573856   21.919042   18.841375 H          1 MOL1         0.0794
      82    H39     21.023937   22.355529   17.949055 H          1 MOL1         0.0794
      83    O20     19.840868   23.960475   18.550304 O.3        1 MOL1        -0.5486
      84    H40     19.140347   24.115417   19.226282 H          1 MOL1         0.3769
      85    C25     24.973610   17.641160   21.981315 C.3        1 MOL1         0.2972
      86    H41     25.599285   16.758441   22.167195 H          1 MOL1         0.0751
      87    O21     23.614304   17.272591   21.669897 O.3        1 MOL1        -0.3740
      88    C26     24.969065   18.547606   23.234719 C.3        1 MOL1         0.1003
      89    H42     26.003915   18.867155   23.413970 H          1 MOL1         0.0783
      90    O22     24.488015   17.827330   24.381577 O.3        1 MOL1        -0.5519
      91    H43     24.132111   16.963877   24.055949 H          1 MOL1         0.3769
      92    C27     24.111790   19.809729   22.995718 C.3        1 MOL1         0.1053
      93    H44     23.064424   19.494232   22.924985 H          1 MOL1         0.0783
      94    O23     24.262892   20.707917   24.099979 O.3        1 MOL1        -0.5519
      95    H45     24.157869   20.142845   24.897844 H          1 MOL1         0.3769
      96    C28     24.480899   20.530036   21.675794 C.3        1 MOL1         0.1018
      97    H46     25.373790   21.145969   21.846352 H          1 MOL1         0.0783
      98    C29     24.704424   19.559171   20.477780 C.3        1 MOL1         0.1043
      99    H47     23.719760   19.215679   20.139099 H          1 MOL1         0.0783
     100    O24     25.491619   18.406089   20.874187 O.3        1 MOL1        -0.3740
     101    C30     25.388418   20.223515   19.259429 C.3        1 MOL1         0.0138
     102    H48     24.674690   20.916843   18.794242 H          1 MOL1         0.0794
     103    H49     25.615942   19.445713   18.518074 H          1 MOL1         0.0794
     104    O25     26.581776   20.926689   19.626547 O.3        1 MOL1        -0.5486
     105    H50     27.002760   21.250997   18.800551 H          1 MOL1         0.3769
     106    C31     21.336628   13.897954   20.803474 C.3        1 MOL1         0.2972
     107    H51     20.960228   12.921369   20.472467 H          1 MOL1         0.0751
     108    O26     20.262807   14.794797   21.158003 O.3        1 MOL1        -0.3740
     109    C32     22.277459   13.756660   22.030320 C.3        1 MOL1         0.1003
     110    H52     23.142854   13.161932   21.710047 H          1 MOL1         0.0783
     111    O27     21.631478   13.084653   23.121721 O.3        1 MOL1        -0.5519
     112    H53     20.795492   13.577894   23.320679 H          1 MOL1         0.3769
     113    C33     22.793388   15.149114   22.472865 C.3        1 MOL1         0.1053
     114    H54     21.936818   15.733982   22.833924 H          1 MOL1         0.0783
     115    O28     23.753288   14.999995   23.523993 O.3        1 MOL1        -0.5519
     116    H55     23.371116   14.321278   24.124695 H          1 MOL1         0.3769
     117    C34     23.429872   15.899613   21.276034 C.3        1 MOL1         0.1018
     118    H56     24.382882   15.412500   21.030579 H          1 MOL1         0.0783
     119    C35     22.525425   15.882315   20.012196 C.3        1 MOL1         0.1043
     120    H57     21.635069   16.487845   20.207285 H          1 MOL1         0.0783
     121    O29     22.105283   14.521270   19.747268 O.3        1 MOL1        -0.3740
     122    C36     23.188855   16.478048   18.742849 C.3        1 MOL1         0.0138
     123    H58     22.976925   17.554999   18.717335 H          1 MOL1         0.0794
     124    H59     22.709105   16.039330   17.857873 H          1 MOL1         0.0794
     125    O30     24.606240   16.270719   18.690509 O.3        1 MOL1        -0.5486
     126    H60     25.013513   16.870532   19.357386 H          1 MOL1         0.3769
     127    C1      20.015477   19.755854   23.373549 C.3        1 MOL1        -0.1693
     128    H1      19.497443   20.074436   24.285346 H          1 MOL1         0.0829
     129    H2      20.822463   20.465850   23.160876 H          1 MOL1         0.0829
     130    C2      19.106147   19.421076   22.145842 C.3        1 MOL1        -0.1768
     131    H3      18.126517   19.010685   22.410125 H          1 MOL1         0.0829
     132    H4      18.970177   20.223300   21.413545 H          1 MOL1         0.0829
     133    C3      20.168516   18.346742   21.774062 C.3        1 MOL1         0.1211
     134    H5      19.760357   17.436141   21.319831 H          1 MOL1         0.0786
     135    C4      20.441543   18.252734   23.309043 C.3        1 MOL1        -0.1768
     136    H6      21.470518   18.028235   23.607298 H          1 MOL1         0.0829
     137    H7      19.771587   17.573761   23.848961 H          1 MOL1         0.0829
     138    O1      21.240984   18.835959   20.997610 O.3        1 MOL1        -0.5515
     139    H8      22.043130   18.350269   21.284809 H          1 MOL1         0.3773
@<TRIPOS>BOND
    1     1     2    1
    2     1     3    1
    3     1     4    1
    4     4     5    1
    5     4     6    1
    6     6     7    1
    7     4     8    1
    8     8     9    1
    9     8    10    1
   10    10    11    1
   11     8    12    1
   12    12    13    1
   13    12    14    1
   14    14    15    1
   15     1    16    1
   16    14    16    1
   17    14    17    1
   18    17    18    1
   19    17    19    1
   20    17    20    1
   21    20    21    1
   22    22    23    1
   23    22    24    1
   24    22    25    1
   25    25    26    1
   26    25    27    1
   27    27    28    1
   28    25    29    1
   29    29    30    1
   30    29    31    1
   31    31    32    1
   32     3    33    1
   33    29    33    1
   34    33    34    1
   35    33    35    1
   36    35    36    1
   37    22    37    1
   38    35    37    1
   39    35    38    1
   40    38    39    1
   41    38    40    1
   42    38    41    1
   43    41    42    1
   44    43    44    1
   45    43    45    1
   46    43    46    1
   47    46    47    1
   48    46    48    1
   49    48    49    1
   50    46    50    1
   51    50    51    1
   52    50    52    1
   53    52    53    1
   54    24    54    1
   55    50    54    1
   56    54    55    1
   57    54    56    1
   58    56    57    1
   59    43    58    1
   60    56    58    1
   61    56    59    1
   62    59    60    1
   63    59    61    1
   64    59    62    1
   65    62    63    1
   66    64    65    1
   67    64    66    1
   68    64    67    1
   69    67    68    1
   70    67    69    1
   71    69    70    1
   72    67    71    1
   73    71    72    1
   74    71    73    1
   75    73    74    1
   76    45    75    1
   77    71    75    1
   78    75    76    1
   79    75    77    1
   80    77    78    1
   81    64    79    1
   82    77    79    1
   83    77    80    1
   84    80    81    1
   85    80    82    1
   86    80    83    1
   87    83    84    1
   88    85    86    1
   89    85    87    1
   90    85    88    1
   91    88    89    1
   92    88    90    1
   93    90    91    1
   94    88    92    1
   95    92    93    1
   96    92    94    1
   97    94    95    1
   98    66    96    1
   99    92    96    1
  100    96    97    1
  101    96    98    1
  102    98    99    1
  103    85   100    1
  104    98   100    1
  105    98   101    1
  106   101   102    1
  107   101   103    1
  108   101   104    1
  109   104   105    1
  110   106   107    1
  111    12   108    1
  112   106   108    1
  113   106   109    1
  114   109   110    1
  115   109   111    1
  116   111   112    1
  117   109   113    1
  118   113   114    1
  119   113   115    1
  120   115   116    1
  121    87   117    1
  122   113   117    1
  123   117   118    1
  124   117   119    1
  125   119   120    1
  126   106   121    1
  127   119   121    1
  128   119   122    1
  129   122   123    1
  130   122   124    1
  131   122   125    1
  132   125   126    1
  133   127   128    1
  134   127   129    1
  135   127   130    1
  136   130   131    1
  137   130   132    1
  138   130   133    1
  139   133   134    1
  140   127   135    1
  141   133   135    1
  142   135   136    1
  143   135   137    1
  144   133   138    1
  145   138   139    1
@<TRIPOS>SUBSTRUCTURE
       1 MOL1            1 RESIDUE      1      MOL     
       2 MOL1          139 RESIDUE      1      MOL     
@<SCITEGIC>MOL_PROPERTY
feprocess Rank
SciTegic.value.IntegerValue
41

@<SCITEGIC>MOL_PROPERTY
Conf_Id
SciTegic.value.IntegerValue
843

@<SCITEGIC>MOL_PROPERTY
Probability
SciTegic.value.DoubleValue
0.37

@<SCITEGIC>MOL_PROPERTY
G
SciTegic.value.DoubleValue
547.391

@<SCITEGIC>MOL_PROPERTY
E
SciTegic.value.DoubleValue
369.383

@<SCITEGIC>MOL_PROPERTY
-TS
SciTegic.value.DoubleValue
178.008

@<SCITEGIC>MOL_PROPERTY
U+W
SciTegic.value.DoubleValue
246.872

@<SCITEGIC>MOL_PROPERTY
U
SciTegic.value.DoubleValue
281.199

@<SCITEGIC>MOL_PROPERTY
W
SciTegic.value.DoubleValue
-34.327

@<SCITEGIC>MOL_PROPERTY
W(PB)
SciTegic.value.DoubleValue
-40.256

@<SCITEGIC>MOL_PROPERTY
W(SA)
SciTegic.value.DoubleValue
5.929

@<SCITEGIC>MOL_PROPERTY
Valence
SciTegic.value.DoubleValue
153.894

@<SCITEGIC>MOL_PROPERTY
Coulomb
SciTegic.value.DoubleValue
149.053

@<SCITEGIC>MOL_PROPERTY
VdW
SciTegic.value.DoubleValue
-21.748

@<SCITEGIC>MOL_PROPERTY
VdW6
SciTegic.value.DoubleValue
-170.936

@<SCITEGIC>MOL_PROPERTY
VdW12
SciTegic.value.DoubleValue
149.188

@<SCITEGIC>MOL_PROPERTY
Bond
SciTegic.value.DoubleValue
4.587

@<SCITEGIC>MOL_PROPERTY
Angle
SciTegic.value.DoubleValue
11.760

@<SCITEGIC>MOL_PROPERTY
Pdih
SciTegic.value.DoubleValue
137.548

@<SCITEGIC>MOL_PROPERTY
Idih
SciTegic.value.DoubleValue
0.000

@<SCITEGIC>MOL_PROPERTY
Tether
SciTegic.value.DoubleValue
0.000

@<TRIPOS>MOLECULE
CD_guest-s16_fast_vm2_rndm.mol2 : feprocess host+ligand conformer 42
         139         145           2
SMALL
USER_CHARGES
 
@<TRIPOS>ATOM
       1    C1      16.406506   15.453749   21.756657 C.3        1 MOL1         0.2972
       2    H1      15.368314   15.306150   22.080513 H          1 MOL1         0.0751
       3    O1      16.560324   16.692968   21.034710 O.3        1 MOL1        -0.3740
       4    C2      17.357778   15.437279   22.984331 C.3        1 MOL1         0.1003
       5    H2      17.221528   14.465439   23.476610 H          1 MOL1         0.0783
       6    O2      17.051859   16.480430   23.923311 O.3        1 MOL1        -0.5519
       7    H3      16.118410   16.757585   23.759464 H          1 MOL1         0.3769
       8    C3      18.837093   15.547206   22.551580 C.3        1 MOL1         0.1053
       9    H4      18.995774   16.547272   22.125289 H          1 MOL1         0.0783
      10    O3      19.660778   15.373158   23.708517 O.3        1 MOL1        -0.5519
      11    H5      19.256881   15.962070   24.385793 H          1 MOL1         0.3769
      12    C4      19.188572   14.493946   21.471449 C.3        1 MOL1         0.1018
      13    H6      19.233020   13.503839   21.943873 H          1 MOL1         0.0783
      14    C5      18.141705   14.474943   20.323286 C.3        1 MOL1         0.1043
      15    H7      18.235347   15.411138   19.757238 H          1 MOL1         0.0783
      16    O4      16.803548   14.381503   20.875227 O.3        1 MOL1        -0.3740
      17    C6      18.341434   13.309138   19.325274 C.3        1 MOL1         0.0138
      18    H8      19.243816   13.509986   18.731981 H          1 MOL1         0.0794
      19    H9      17.490976   13.293395   18.630569 H          1 MOL1         0.0794
      20    O5      18.467909   12.044431   19.987840 O.3        1 MOL1        -0.5486
      21    H10     18.506525   11.348218   19.296172 H          1 MOL1         0.3769
      22    C7      14.697998   20.329743   20.567774 C.3        1 MOL1         0.2972
      23    H11     14.056961   21.192972   20.347177 H          1 MOL1         0.0751
      24    O6      16.062889   20.738132   20.820275 O.3        1 MOL1        -0.3740
      25    C8      14.144450   19.513091   21.764681 C.3        1 MOL1         0.1003
      26    H12     13.176283   19.103382   21.447823 H          1 MOL1         0.0783
      27    O7      13.935500   20.320598   22.932092 O.3        1 MOL1        -0.5519
      28    H13     14.829101   20.620261   23.235984 H          1 MOL1         0.3769
      29    C9      15.078135   18.321510   22.083071 C.3        1 MOL1         0.1053
      30    H14     16.036085   18.723137   22.442135 H          1 MOL1         0.0783
      31    O8      14.466537   17.526505   23.105636 O.3        1 MOL1        -0.5519
      32    H15     14.058330   18.176757   23.722184 H          1 MOL1         0.3769
      33    C10     15.355521   17.460048   20.818126 C.3        1 MOL1         0.1018
      34    H16     14.493428   16.805028   20.640450 H          1 MOL1         0.0783
      35    C11     15.618194   18.305428   19.538758 C.3        1 MOL1         0.1043
      36    H17     16.638849   18.695188   19.598781 H          1 MOL1         0.0783
      37    O9      14.704242   19.425619   19.444672 O.3        1 MOL1        -0.3740
      38    C12     15.526068   17.480547   18.231325 C.3        1 MOL1         0.0138
      39    H18     16.359219   16.765188   18.208105 H          1 MOL1         0.0794
      40    H19     15.659173   18.162978   17.381397 H          1 MOL1         0.0794
      41    O10     14.282880   16.778849   18.104698 O.3        1 MOL1        -0.5486
      42    H20     14.315466   16.001933   18.702675 H          1 MOL1         0.3769
      43    C13     18.458387   23.882056   22.012833 C.3        1 MOL1         0.2972
      44    H21     18.915043   24.812607   22.373331 H          1 MOL1         0.0751
      45    O11     19.412136   23.039795   21.339634 O.3        1 MOL1        -0.3740
      46    C14     17.845117   23.079956   23.187285 C.3        1 MOL1         0.1003
      47    H22     17.037175   23.690429   23.611324 H          1 MOL1         0.0783
      48    O12     18.816232   22.809248   24.211373 O.3        1 MOL1        -0.5519
      49    H23     19.646971   23.278124   23.953573 H          1 MOL1         0.3769
      50    C15     17.230375   21.757548   22.672670 C.3        1 MOL1         0.1053
      51    H24     18.049875   21.120717   22.313557 H          1 MOL1         0.0783
      52    O13     16.562977   21.110673   23.759977 O.3        1 MOL1        -0.5519
      53    H25     17.210890   21.145479   24.499823 H          1 MOL1         0.3769
      54    C16     16.244668   22.003075   21.497610 C.3        1 MOL1         0.1018
      55    H26     15.302763   22.384481   21.913093 H          1 MOL1         0.0783
      56    C17     16.789492   23.012478   20.442724 C.3        1 MOL1         0.1043
      57    H27     17.558855   22.504579   19.848640 H          1 MOL1         0.0783
      58    O14     17.386366   24.166718   21.089436 O.3        1 MOL1        -0.3740
      59    C18     15.711148   23.508359   19.449914 C.3        1 MOL1         0.0138
      60    H28     15.444182   22.677290   18.783159 H          1 MOL1         0.0794
      61    H29     16.147840   24.299371   18.825608 H          1 MOL1         0.0794
      62    O15     14.538687   23.990831   20.118246 O.3        1 MOL1        -0.5486
      63    H30     13.937464   24.360932   19.435393 H          1 MOL1         0.3769
      64    C19     23.520473   22.677233   20.783715 C.3        1 MOL1         0.2972
      65    H31     24.575150   22.836074   20.525168 H          1 MOL1         0.0751
      66    O16     23.249991   21.282697   21.041859 O.3        1 MOL1        -0.3740
      67    C20     23.105969   23.545478   22.005472 C.3        1 MOL1         0.1003
      68    H32     23.243925   24.593417   21.708672 H          1 MOL1         0.0783
      69    O17     23.917104   23.289128   23.161421 O.3        1 MOL1        -0.5519
      70    H33     23.728684   22.357418   23.439747 H          1 MOL1         0.3769
      71    C21     21.607868   23.346889   22.343249 C.3        1 MOL1         0.1053
      72    H34     21.464878   22.309863   22.678498 H          1 MOL1         0.0783
      73    O18     21.246822   24.254812   23.390135 O.3        1 MOL1        -0.5519
      74    H35     22.014810   24.251038   24.005984 H          1 MOL1         0.3769
      75    C22     20.722266   23.576152   21.089174 C.3        1 MOL1         0.1018
      76    H36     20.681339   24.648737   20.860891 H          1 MOL1         0.0783
      77    C23     21.262877   22.805409   19.854423 C.3        1 MOL1         0.1043
      78    H37     21.119915   21.733622   20.040084 H          1 MOL1         0.0783
      79    O19     22.676749   23.078793   19.682087 O.3        1 MOL1        -0.3740
      80    C24     20.519300   23.128141   18.534876 C.3        1 MOL1         0.0138
      81    H38     19.553057   22.606205   18.546676 H          1 MOL1         0.0794
      82    H39     21.097387   22.713365   17.698718 H          1 MOL1         0.0794
      83    O20     20.308549   24.532738   18.343527 O.3        1 MOL1        -0.5486
      84    H40     19.610492   24.809425   18.975691 H          1 MOL1         0.3769
      85    C25     24.931704   17.664247   22.131996 C.3        1 MOL1         0.2972
      86    H41     25.564453   16.841439   22.488941 H          1 MOL1         0.0751
      87    O21     23.782130   17.178942   21.411544 O.3        1 MOL1        -0.3740
      88    C26     24.461779   18.544616   23.319902 C.3        1 MOL1         0.1003
      89    H42     25.363651   18.968099   23.781057 H          1 MOL1         0.0783
      90    O22     23.745610   17.787135   24.308244 O.3        1 MOL1        -0.5519
      91    H43     23.822833   16.833420   24.062277 H          1 MOL1         0.3769
      92    C27     23.585846   19.716532   22.823038 C.3        1 MOL1         0.1053
      93    H44     22.650473   19.298026   22.426256 H          1 MOL1         0.0783
      94    O23     23.300112   20.576802   23.930566 O.3        1 MOL1        -0.5519
      95    H45     23.021658   19.965181   24.649502 H          1 MOL1         0.3769
      96    C28     24.282175   20.511480   21.689155 C.3        1 MOL1         0.1018
      97    H46     25.059391   21.148473   22.130957 H          1 MOL1         0.0783
      98    C29     24.914172   19.586575   20.609213 C.3        1 MOL1         0.1043
      99    H47     24.098852   19.149823   20.017501 H          1 MOL1         0.0783
     100    O24     25.673043   18.518614   21.235448 O.3        1 MOL1        -0.3740
     101    C30     25.842290   20.333552   19.621606 C.3        1 MOL1         0.0138
     102    H48     25.221555   20.961606   18.968358 H          1 MOL1         0.0794
     103    H49     26.341728   19.592922   18.982690 H          1 MOL1         0.0794
     104    O25     26.812180   21.144630   20.296480 O.3        1 MOL1        -0.5486
     105    H50     27.413887   21.518265   19.615963 H          1 MOL1         0.3769
     106    C31     21.468010   13.848396   20.785533 C.3        1 MOL1         0.2972
     107    H51     21.022401   12.875238   20.543026 H          1 MOL1         0.0751
     108    O26     20.456522   14.876523   20.898547 O.3        1 MOL1        -0.3740
     109    C32     22.315793   13.768263   22.084073 C.3        1 MOL1         0.1003
     110    H52     23.139882   13.071727   21.881179 H          1 MOL1         0.0783
     111    O27     21.562745   13.272285   23.200179 O.3        1 MOL1        -0.5519
     112    H53     20.879775   13.959050   23.406811 H          1 MOL1         0.3769
     113    C33     22.935405   15.145901   22.420821 C.3        1 MOL1         0.1053
     114    H54     22.118396   15.828931   22.692014 H          1 MOL1         0.0783
     115    O28     23.830097   14.990416   23.527602 O.3        1 MOL1        -0.5519
     116    H55     23.373715   14.368225   24.138962 H          1 MOL1         0.3769
     117    C34     23.687093   15.755586   21.206244 C.3        1 MOL1         0.1018
     118    H56     24.676813   15.289732   21.120079 H          1 MOL1         0.0783
     119    C35     22.920832   15.583115   19.865943 C.3        1 MOL1         0.1043
     120    H57     22.091215   16.295382   19.872894 H          1 MOL1         0.0783
     121    O29     22.380001   14.245127   19.740535 O.3        1 MOL1        -0.3740
     122    C36     23.771569   15.904449   18.612974 C.3        1 MOL1         0.0138
     123    H58     23.951337   16.987576   18.580830 H          1 MOL1         0.0794
     124    H59     23.184787   15.647586   17.721118 H          1 MOL1         0.0794
     125    O30     25.021418   15.203786   18.596426 O.3        1 MOL1        -0.5486
     126    H60     25.620537   15.649720   19.232641 H          1 MOL1         0.3769
     127    C1      20.467624   17.747401   18.281397 C.3        1 MOL1        -0.1693
     128    H1      20.233661   16.740911   18.651940 H          1 MOL1         0.0829
     129    H2      21.162688   17.660018   17.438351 H          1 MOL1         0.0829
     130    C2      20.850917   18.790270   19.384661 C.3        1 MOL1        -0.1768
     131    H3      21.390118   18.412604   20.259469 H          1 MOL1         0.0829
     132    H4      21.370879   19.680141   19.010861 H          1 MOL1         0.0829
     133    C3      19.314609   18.964454   19.571902 C.3        1 MOL1         0.1211
     134    H5      18.863759   18.202193   20.221995 H          1 MOL1         0.0786
     135    C4      19.216110   18.652832   18.047931 C.3        1 MOL1        -0.1768
     136    H6      18.309310   18.139948   17.716177 H          1 MOL1         0.0829
     137    H7      19.389987   19.517976   17.396142 H          1 MOL1         0.0829
     138    O1      18.894374   20.254113   19.943866 O.3        1 MOL1        -0.5515
     139    H8      17.930030   20.227968   20.123826 H          1 MOL1         0.3773
@<TRIPOS>BOND
    1     1     2    1
    2     1     3    1
    3     1     4    1
    4     4     5    1
    5     4     6    1
    6     6     7    1
    7     4     8    1
    8     8     9    1
    9     8    10    1
   10    10    11    1
   11     8    12    1
   12    12    13    1
   13    12    14    1
   14    14    15    1
   15     1    16    1
   16    14    16    1
   17    14    17    1
   18    17    18    1
   19    17    19    1
   20    17    20    1
   21    20    21    1
   22    22    23    1
   23    22    24    1
   24    22    25    1
   25    25    26    1
   26    25    27    1
   27    27    28    1
   28    25    29    1
   29    29    30    1
   30    29    31    1
   31    31    32    1
   32     3    33    1
   33    29    33    1
   34    33    34    1
   35    33    35    1
   36    35    36    1
   37    22    37    1
   38    35    37    1
   39    35    38    1
   40    38    39    1
   41    38    40    1
   42    38    41    1
   43    41    42    1
   44    43    44    1
   45    43    45    1
   46    43    46    1
   47    46    47    1
   48    46    48    1
   49    48    49    1
   50    46    50    1
   51    50    51    1
   52    50    52    1
   53    52    53    1
   54    24    54    1
   55    50    54    1
   56    54    55    1
   57    54    56    1
   58    56    57    1
   59    43    58    1
   60    56    58    1
   61    56    59    1
   62    59    60    1
   63    59    61    1
   64    59    62    1
   65    62    63    1
   66    64    65    1
   67    64    66    1
   68    64    67    1
   69    67    68    1
   70    67    69    1
   71    69    70    1
   72    67    71    1
   73    71    72    1
   74    71    73    1
   75    73    74    1
   76    45    75    1
   77    71    75    1
   78    75    76    1
   79    75    77    1
   80    77    78    1
   81    64    79    1
   82    77    79    1
   83    77    80    1
   84    80    81    1
   85    80    82    1
   86    80    83    1
   87    83    84    1
   88    85    86    1
   89    85    87    1
   90    85    88    1
   91    88    89    1
   92    88    90    1
   93    90    91    1
   94    88    92    1
   95    92    93    1
   96    92    94    1
   97    94    95    1
   98    66    96    1
   99    92    96    1
  100    96    97    1
  101    96    98    1
  102    98    99    1
  103    85   100    1
  104    98   100    1
  105    98   101    1
  106   101   102    1
  107   101   103    1
  108   101   104    1
  109   104   105    1
  110   106   107    1
  111    12   108    1
  112   106   108    1
  113   106   109    1
  114   109   110    1
  115   109   111    1
  116   111   112    1
  117   109   113    1
  118   113   114    1
  119   113   115    1
  120   115   116    1
  121    87   117    1
  122   113   117    1
  123   117   118    1
  124   117   119    1
  125   119   120    1
  126   106   121    1
  127   119   121    1
  128   119   122    1
  129   122   123    1
  130   122   124    1
  131   122   125    1
  132   125   126    1
  133   127   128    1
  134   127   129    1
  135   127   130    1
  136   130   131    1
  137   130   132    1
  138   130   133    1
  139   133   134    1
  140   127   135    1
  141   133   135    1
  142   135   136    1
  143   135   137    1
  144   133   138    1
  145   138   139    1
@<TRIPOS>SUBSTRUCTURE
       1 MOL1            1 RESIDUE      1      MOL     
       2 MOL1          139 RESIDUE      1      MOL     
@<SCITEGIC>MOL_PROPERTY
feprocess Rank
SciTegic.value.IntegerValue
42

@<SCITEGIC>MOL_PROPERTY
Conf_Id
SciTegic.value.IntegerValue
676

@<SCITEGIC>MOL_PROPERTY
Probability
SciTegic.value.DoubleValue
0.32

@<SCITEGIC>MOL_PROPERTY
G
SciTegic.value.DoubleValue
547.471

@<SCITEGIC>MOL_PROPERTY
E
SciTegic.value.DoubleValue
369.278

@<SCITEGIC>MOL_PROPERTY
-TS
SciTegic.value.DoubleValue
178.193

@<SCITEGIC>MOL_PROPERTY
U+W
SciTegic.value.DoubleValue
246.766

@<SCITEGIC>MOL_PROPERTY
U
SciTegic.value.DoubleValue
284.259

@<SCITEGIC>MOL_PROPERTY
W
SciTegic.value.DoubleValue
-37.493

@<SCITEGIC>MOL_PROPERTY
W(PB)
SciTegic.value.DoubleValue
-43.577

@<SCITEGIC>MOL_PROPERTY
W(SA)
SciTegic.value.DoubleValue
6.084

@<SCITEGIC>MOL_PROPERTY
Valence
SciTegic.value.DoubleValue
149.556

@<SCITEGIC>MOL_PROPERTY
Coulomb
SciTegic.value.DoubleValue
150.382

@<SCITEGIC>MOL_PROPERTY
VdW
SciTegic.value.DoubleValue
-15.678

@<SCITEGIC>MOL_PROPERTY
VdW6
SciTegic.value.DoubleValue
-164.339

@<SCITEGIC>MOL_PROPERTY
VdW12
SciTegic.value.DoubleValue
148.660

@<SCITEGIC>MOL_PROPERTY
Bond
SciTegic.value.DoubleValue
4.851

@<SCITEGIC>MOL_PROPERTY
Angle
SciTegic.value.DoubleValue
13.649

@<SCITEGIC>MOL_PROPERTY
Pdih
SciTegic.value.DoubleValue
131.057

@<SCITEGIC>MOL_PROPERTY
Idih
SciTegic.value.DoubleValue
0.000

@<SCITEGIC>MOL_PROPERTY
Tether
SciTegic.value.DoubleValue
0.000

@<TRIPOS>MOLECULE
CD_guest-s16_fast_vm2_rndm.mol2 : feprocess host+ligand conformer 43
         139         145           2
SMALL
USER_CHARGES
 
@<TRIPOS>ATOM
       1    C1      16.162337   15.191602   21.722237 C.3        1 MOL1         0.2972
       2    H1      15.082567   15.043825   21.853657 H          1 MOL1         0.0751
       3    O1      16.489450   16.579477   21.521144 O.3        1 MOL1        -0.3740
       4    C2      16.916259   14.701827   22.980687 C.3        1 MOL1         0.1003
       5    H2      16.719592   13.627589   23.092249 H          1 MOL1         0.0783
       6    O2      16.447479   15.398243   24.146842 O.3        1 MOL1        -0.5519
       7    H3      16.004848   16.223272   23.829468 H          1 MOL1         0.3769
       8    C3      18.439259   14.899130   22.809548 C.3        1 MOL1         0.1053
       9    H4      18.633454   15.976530   22.782369 H          1 MOL1         0.0783
      10    O3      19.129064   14.314528   23.918638 O.3        1 MOL1        -0.5519
      11    H5      18.639423   14.626074   24.712513 H          1 MOL1         0.3769
      12    C4      18.955287   14.289456   21.483855 C.3        1 MOL1         0.1018
      13    H6      19.030220   13.200695   21.606460 H          1 MOL1         0.0783
      14    C5      18.052386   14.636630   20.264145 C.3        1 MOL1         0.1043
      15    H7      18.223827   15.691632   20.017061 H          1 MOL1         0.0783
      16    O4      16.648747   14.449448   20.584797 O.3        1 MOL1        -0.3740
      17    C6      18.377017   13.812437   18.995423 C.3        1 MOL1         0.0138
      18    H8      19.343390   14.149928   18.597037 H          1 MOL1         0.0794
      19    H9      17.617169   14.028859   18.232416 H          1 MOL1         0.0794
      20    O5      18.426622   12.405930   19.264616 O.3        1 MOL1        -0.5486
      21    H10     18.556068   11.942928   18.408178 H          1 MOL1         0.3769
      22    C7      14.789518   20.246848   20.571429 C.3        1 MOL1         0.2972
      23    H11     14.152288   21.065399   20.214973 H          1 MOL1         0.0751
      24    O6      16.104544   20.717671   20.940302 O.3        1 MOL1        -0.3740
      25    C8      14.141502   19.512043   21.776059 C.3        1 MOL1         0.1003
      26    H12     13.208212   19.061593   21.413607 H          1 MOL1         0.0783
      27    O7      13.827678   20.410777   22.848856 O.3        1 MOL1        -0.5519
      28    H13     14.680739   20.809731   23.155249 H          1 MOL1         0.3769
      29    C9      15.062983   18.364757   22.258797 C.3        1 MOL1         0.1053
      30    H14     15.995324   18.805638   22.637812 H          1 MOL1         0.0783
      31    O8      14.418359   17.625005   23.301112 O.3        1 MOL1        -0.5519
      32    H15     14.019135   18.303816   23.889758 H          1 MOL1         0.3769
      33    C10     15.410113   17.420621   21.080736 C.3        1 MOL1         0.1018
      34    H16     14.513031   16.841553   20.825105 H          1 MOL1         0.0783
      35    C11     15.892515   18.192365   19.819944 C.3        1 MOL1         0.1043
      36    H17     16.874479   18.626843   20.036508 H          1 MOL1         0.0783
      37    O9      14.958661   19.262519   19.525400 O.3        1 MOL1        -0.3740
      38    C12     16.071493   17.314561   18.552944 C.3        1 MOL1         0.0138
      39    H18     17.105860   16.949612   18.527585 H          1 MOL1         0.0794
      40    H19     15.939167   17.949075   17.666447 H          1 MOL1         0.0794
      41    O10     15.172475   16.200121   18.498260 O.3        1 MOL1        -0.5486
      42    H20     15.498132   15.533282   19.146809 H          1 MOL1         0.3769
      43    C13     18.513855   23.935033   21.821465 C.3        1 MOL1         0.2972
      44    H21     18.964596   24.906706   22.062346 H          1 MOL1         0.0751
      45    O11     19.513797   22.947459   21.504190 O.3        1 MOL1        -0.3740
      46    C14     17.690965   23.422778   23.024796 C.3        1 MOL1         0.1003
      47    H22     16.881262   24.142080   23.204158 H          1 MOL1         0.0783
      48    O12     18.511670   23.327834   24.200647 O.3        1 MOL1        -0.5519
      49    H23     19.447098   23.465277   23.911570 H          1 MOL1         0.3769
      50    C15     17.057043   22.052931   22.697070 C.3        1 MOL1         0.1053
      51    H24     17.873413   21.331163   22.581791 H          1 MOL1         0.0783
      52    O13     16.219568   21.660562   23.786822 O.3        1 MOL1        -0.5519
      53    H25     16.758035   21.843999   24.589753 H          1 MOL1         0.3769
      54    C16     16.254080   22.087420   21.368572 C.3        1 MOL1         0.1018
      55    H26     15.287316   22.574030   21.550004 H          1 MOL1         0.0783
      56    C17     17.024797   22.813146   20.225763 C.3        1 MOL1         0.1043
      57    H27     17.823314   22.139187   19.890283 H          1 MOL1         0.0783
      58    O14     17.624466   24.050052   20.691619 O.3        1 MOL1        -0.3740
      59    C18     16.149961   23.130680   18.988842 C.3        1 MOL1         0.0138
      60    H28     15.828573   22.185767   18.529994 H          1 MOL1         0.0794
      61    H29     16.772639   23.651870   18.249480 H          1 MOL1         0.0794
      62    O15     15.007797   23.933615   19.315066 O.3        1 MOL1        -0.5486
      63    H30     14.392155   23.393127   19.851301 H          1 MOL1         0.3769
      64    C19     23.632696   22.700340   20.871383 C.3        1 MOL1         0.2972
      65    H31     24.673555   22.890308   20.579311 H          1 MOL1         0.0751
      66    O16     23.429924   21.323849   21.243796 O.3        1 MOL1        -0.3740
      67    C20     23.197607   23.613943   22.051403 C.3        1 MOL1         0.1003
      68    H32     23.275918   24.650947   21.699737 H          1 MOL1         0.0783
      69    O17     24.046151   23.452023   23.197890 O.3        1 MOL1        -0.5519
      70    H33     23.993522   22.501877   23.473312 H          1 MOL1         0.3769
      71    C21     21.716683   23.352448   22.426697 C.3        1 MOL1         0.1053
      72    H34     21.635756   22.330910   22.822448 H          1 MOL1         0.0783
      73    O18     21.299598   24.291353   23.423303 O.3        1 MOL1        -0.5519
      74    H35     22.046489   24.336183   24.061883 H          1 MOL1         0.3769
      75    C22     20.812366   23.467842   21.173138 C.3        1 MOL1         0.1018
      76    H36     20.763469   24.522373   20.870959 H          1 MOL1         0.0783
      77    C23     21.351874   22.631824   19.982973 C.3        1 MOL1         0.1043
      78    H37     21.273930   21.568166   20.243135 H          1 MOL1         0.0783
      79    O19     22.744021   22.975250   19.762658 O.3        1 MOL1        -0.3740
      80    C24     20.561065   22.824098   18.662135 C.3        1 MOL1         0.0138
      81    H38     19.737718   22.098485   18.645723 H          1 MOL1         0.0794
      82    H39     21.219868   22.576103   17.819293 H          1 MOL1         0.0794
      83    O20     20.032041   24.147148   18.503686 O.3        1 MOL1        -0.5486
      84    H40     19.307846   24.253278   19.162432 H          1 MOL1         0.3769
      85    C25     24.974055   17.674256   22.057486 C.3        1 MOL1         0.2972
      86    H41     25.536659   16.762940   22.297125 H          1 MOL1         0.0751
      87    O21     23.671957   17.370967   21.518708 O.3        1 MOL1        -0.3740
      88    C26     24.786325   18.535653   23.328423 C.3        1 MOL1         0.1003
      89    H42     25.785302   18.798473   23.699978 H          1 MOL1         0.0783
      90    O22     24.068784   17.801774   24.337224 O.3        1 MOL1        -0.5519
      91    H43     24.195104   16.841361   24.140860 H          1 MOL1         0.3769
      92    C27     24.024074   19.838503   22.998164 C.3        1 MOL1         0.1053
      93    H44     22.992247   19.551490   22.784297 H          1 MOL1         0.0783
      94    O23     24.041720   20.706820   24.134940 O.3        1 MOL1        -0.5519
      95    H45     23.739416   20.148719   24.885967 H          1 MOL1         0.3769
      96    C28     24.558001   20.579841   21.744874 C.3        1 MOL1         0.1018
      97    H46     25.390128   21.231261   22.042746 H          1 MOL1         0.0783
      98    C29     24.990672   19.631841   20.587803 C.3        1 MOL1         0.1043
      99    H47     24.080686   19.296747   20.074251 H          1 MOL1         0.0783
     100    O24     25.691815   18.468053   21.091618 O.3        1 MOL1        -0.3740
     101    C30     25.876869   20.321279   19.523242 C.3        1 MOL1         0.0138
     102    H48     25.256630   21.032926   18.961734 H          1 MOL1         0.0794
     103    H49     26.225038   19.560682   18.811543 H          1 MOL1         0.0794
     104    O25     26.992641   21.004579   20.107508 O.3        1 MOL1        -0.5486
     105    H50     27.548411   21.349369   19.374561 H          1 MOL1         0.3769
     106    C31     21.289671   14.035085   20.772911 C.3        1 MOL1         0.2972
     107    H51     20.897454   13.067400   20.434217 H          1 MOL1         0.0751
     108    O26     20.238791   14.899487   21.247683 O.3        1 MOL1        -0.3740
     109    C32     22.318319   13.848823   21.920328 C.3        1 MOL1         0.1003
     110    H52     23.134459   13.228999   21.526812 H          1 MOL1         0.0783
     111    O27     21.726807   13.183540   23.047803 O.3        1 MOL1        -0.5519
     112    H53     20.896119   13.671851   23.279339 H          1 MOL1         0.3769
     113    C33     22.921312   15.209398   22.354285 C.3        1 MOL1         0.1053
     114    H54     22.125409   15.797130   22.826255 H          1 MOL1         0.0783
     115    O28     23.970894   14.978611   23.301350 O.3        1 MOL1        -0.5519
     116    H55     23.624274   14.275755   23.896588 H          1 MOL1         0.3769
     117    C34     23.449263   16.004331   21.128808 C.3        1 MOL1         0.1018
     118    H56     24.372427   15.533394   20.767085 H          1 MOL1         0.0783
     119    C35     22.415208   16.049993   19.972512 C.3        1 MOL1         0.1043
     120    H57     21.562223   16.660563   20.295569 H          1 MOL1         0.0783
     121    O29     21.958627   14.707404   19.683678 O.3        1 MOL1        -0.3740
     122    C36     22.955168   16.691877   18.669247 C.3        1 MOL1         0.0138
     123    H58     22.911322   17.783441   18.777046 H          1 MOL1         0.0794
     124    H59     22.283142   16.424336   17.843052 H          1 MOL1         0.0794
     125    O30     24.297255   16.294262   18.362720 O.3        1 MOL1        -0.5486
     126    H60     24.885747   16.718441   19.024887 H          1 MOL1         0.3769
     127    C1      19.083237   18.802885   21.779530 C.3        1 MOL1        -0.1693
     128    H1      18.925214   17.851739   21.256095 H          1 MOL1         0.0829
     129    H2      18.510648   19.585050   21.272426 H          1 MOL1         0.0829
     130    C2      20.576824   19.145386   22.066716 C.3        1 MOL1        -0.1768
     131    H3      20.763442   20.201595   22.293695 H          1 MOL1         0.0829
     132    H4      21.300662   18.811841   21.316726 H          1 MOL1         0.0829
     133    C3      20.415364   18.234368   23.322470 C.3        1 MOL1         0.1211
     134    H5      20.512346   17.162692   23.113528 H          1 MOL1         0.0786
     135    C4      18.938962   18.731998   23.336975 C.3        1 MOL1        -0.1768
     136    H6      18.798640   19.696230   23.839376 H          1 MOL1         0.0829
     137    H7      18.197567   18.026688   23.726185 H          1 MOL1         0.0829
     138    O1      21.183980   18.594456   24.448169 O.3        1 MOL1        -0.5515
     139    H8      22.102405   18.263312   24.314053 H          1 MOL1         0.3773
@<TRIPOS>BOND
    1     1     2    1
    2     1     3    1
    3     1     4    1
    4     4     5    1
    5     4     6    1
    6     6     7    1
    7     4     8    1
    8     8     9    1
    9     8    10    1
   10    10    11    1
   11     8    12    1
   12    12    13    1
   13    12    14    1
   14    14    15    1
   15     1    16    1
   16    14    16    1
   17    14    17    1
   18    17    18    1
   19    17    19    1
   20    17    20    1
   21    20    21    1
   22    22    23    1
   23    22    24    1
   24    22    25    1
   25    25    26    1
   26    25    27    1
   27    27    28    1
   28    25    29    1
   29    29    30    1
   30    29    31    1
   31    31    32    1
   32     3    33    1
   33    29    33    1
   34    33    34    1
   35    33    35    1
   36    35    36    1
   37    22    37    1
   38    35    37    1
   39    35    38    1
   40    38    39    1
   41    38    40    1
   42    38    41    1
   43    41    42    1
   44    43    44    1
   45    43    45    1
   46    43    46    1
   47    46    47    1
   48    46    48    1
   49    48    49    1
   50    46    50    1
   51    50    51    1
   52    50    52    1
   53    52    53    1
   54    24    54    1
   55    50    54    1
   56    54    55    1
   57    54    56    1
   58    56    57    1
   59    43    58    1
   60    56    58    1
   61    56    59    1
   62    59    60    1
   63    59    61    1
   64    59    62    1
   65    62    63    1
   66    64    65    1
   67    64    66    1
   68    64    67    1
   69    67    68    1
   70    67    69    1
   71    69    70    1
   72    67    71    1
   73    71    72    1
   74    71    73    1
   75    73    74    1
   76    45    75    1
   77    71    75    1
   78    75    76    1
   79    75    77    1
   80    77    78    1
   81    64    79    1
   82    77    79    1
   83    77    80    1
   84    80    81    1
   85    80    82    1
   86    80    83    1
   87    83    84    1
   88    85    86    1
   89    85    87    1
   90    85    88    1
   91    88    89    1
   92    88    90    1
   93    90    91    1
   94    88    92    1
   95    92    93    1
   96    92    94    1
   97    94    95    1
   98    66    96    1
   99    92    96    1
  100    96    97    1
  101    96    98    1
  102    98    99    1
  103    85   100    1
  104    98   100    1
  105    98   101    1
  106   101   102    1
  107   101   103    1
  108   101   104    1
  109   104   105    1
  110   106   107    1
  111    12   108    1
  112   106   108    1
  113   106   109    1
  114   109   110    1
  115   109   111    1
  116   111   112    1
  117   109   113    1
  118   113   114    1
  119   113   115    1
  120   115   116    1
  121    87   117    1
  122   113   117    1
  123   117   118    1
  124   117   119    1
  125   119   120    1
  126   106   121    1
  127   119   121    1
  128   119   122    1
  129   122   123    1
  130   122   124    1
  131   122   125    1
  132   125   126    1
  133   127   128    1
  134   127   129    1
  135   127   130    1
  136   130   131    1
  137   130   132    1
  138   130   133    1
  139   133   134    1
  140   127   135    1
  141   133   135    1
  142   135   136    1
  143   135   137    1
  144   133   138    1
  145   138   139    1
@<TRIPOS>SUBSTRUCTURE
       1 MOL1            1 RESIDUE      1      MOL     
       2 MOL1          139 RESIDUE      1      MOL     
@<SCITEGIC>MOL_PROPERTY
feprocess Rank
SciTegic.value.IntegerValue
43

@<SCITEGIC>MOL_PROPERTY
Conf_Id
SciTegic.value.IntegerValue
352

@<SCITEGIC>MOL_PROPERTY
Probability
SciTegic.value.DoubleValue
0.32

@<SCITEGIC>MOL_PROPERTY
G
SciTegic.value.DoubleValue
547.473

@<SCITEGIC>MOL_PROPERTY
E
SciTegic.value.DoubleValue
369.236

@<SCITEGIC>MOL_PROPERTY
-TS
SciTegic.value.DoubleValue
178.237

@<SCITEGIC>MOL_PROPERTY
U+W
SciTegic.value.DoubleValue
246.725

@<SCITEGIC>MOL_PROPERTY
U
SciTegic.value.DoubleValue
284.766

@<SCITEGIC>MOL_PROPERTY
W
SciTegic.value.DoubleValue
-38.041

@<SCITEGIC>MOL_PROPERTY
W(PB)
SciTegic.value.DoubleValue
-44.057

@<SCITEGIC>MOL_PROPERTY
W(SA)
SciTegic.value.DoubleValue
6.016

@<SCITEGIC>MOL_PROPERTY
Valence
SciTegic.value.DoubleValue
152.858

@<SCITEGIC>MOL_PROPERTY
Coulomb
SciTegic.value.DoubleValue
152.226

@<SCITEGIC>MOL_PROPERTY
VdW
SciTegic.value.DoubleValue
-20.317

@<SCITEGIC>MOL_PROPERTY
VdW6
SciTegic.value.DoubleValue
-168.287

@<SCITEGIC>MOL_PROPERTY
VdW12
SciTegic.value.DoubleValue
147.969

@<SCITEGIC>MOL_PROPERTY
Bond
SciTegic.value.DoubleValue
4.694

@<SCITEGIC>MOL_PROPERTY
Angle
SciTegic.value.DoubleValue
12.999

@<SCITEGIC>MOL_PROPERTY
Pdih
SciTegic.value.DoubleValue
135.165

@<SCITEGIC>MOL_PROPERTY
Idih
SciTegic.value.DoubleValue
0.000

@<SCITEGIC>MOL_PROPERTY
Tether
SciTegic.value.DoubleValue
0.000

@<TRIPOS>MOLECULE
CD_guest-s16_fast_vm2_rndm.mol2 : feprocess host+ligand conformer 44
         139         145           2
SMALL
USER_CHARGES
 
@<TRIPOS>ATOM
       1    C1      16.152700   15.115242   21.617920 C.3        1 MOL1         0.2972
       2    H1      15.062265   15.016334   21.697581 H          1 MOL1         0.0751
       3    O1      16.554063   16.493923   21.505003 O.3        1 MOL1        -0.3740
       4    C2      16.827892   14.516386   22.873534 C.3        1 MOL1         0.1003
       5    H2      16.582415   13.446972   22.906617 H          1 MOL1         0.0783
       6    O2      16.328812   15.155798   24.058644 O.3        1 MOL1        -0.5519
       7    H3      16.029229   16.056663   23.788171 H          1 MOL1         0.3769
       8    C3      18.365292   14.653645   22.783180 C.3        1 MOL1         0.1053
       9    H4      18.611537   15.720538   22.852264 H          1 MOL1         0.0783
      10    O3      18.972783   13.952540   23.872321 O.3        1 MOL1        -0.5519
      11    H5      18.536051   14.312267   24.676290 H          1 MOL1         0.3769
      12    C4      18.918477   14.113244   21.439362 C.3        1 MOL1         0.1018
      13    H6      18.978356   13.019105   21.499561 H          1 MOL1         0.0783
      14    C5      18.073257   14.547365   20.206863 C.3        1 MOL1         0.1043
      15    H7      18.298843   15.603783   20.019040 H          1 MOL1         0.0783
      16    O4      16.651656   14.409573   20.463717 O.3        1 MOL1        -0.3740
      17    C6      18.411653   13.774024   18.909181 C.3        1 MOL1         0.0138
      18    H8      19.440681   14.014534   18.609536 H          1 MOL1         0.0794
      19    H9      17.751626   14.135694   18.109429 H          1 MOL1         0.0794
      20    O5      18.260308   12.356446   19.059321 O.3        1 MOL1        -0.5486
      21    H10     18.981093   12.027717   19.634611 H          1 MOL1         0.3769
      22    C7      14.980167   20.261580   20.634797 C.3        1 MOL1         0.2972
      23    H11     14.360683   21.088592   20.264365 H          1 MOL1         0.0751
      24    O6      16.241445   20.731129   21.149656 O.3        1 MOL1        -0.3740
      25    C8      14.252911   19.477559   21.760542 C.3        1 MOL1         0.1003
      26    H12     13.324376   19.079223   21.331321 H          1 MOL1         0.0783
      27    O7      13.925986   20.329665   22.869422 O.3        1 MOL1        -0.5519
      28    H13     14.762676   20.775801   23.157469 H          1 MOL1         0.3769
      29    C9      15.111523   18.277669   22.233306 C.3        1 MOL1         0.1053
      30    H14     16.014101   18.672308   22.719910 H          1 MOL1         0.0783
      31    O8      14.365467   17.488629   23.165486 O.3        1 MOL1        -0.5519
      32    H15     13.946472   18.137334   23.773980 H          1 MOL1         0.3769
      33    C10     15.547751   17.405008   21.029691 C.3        1 MOL1         0.1018
      34    H16     14.666907   16.877658   20.640144 H          1 MOL1         0.0783
      35    C11     16.172968   18.256903   19.890794 C.3        1 MOL1         0.1043
      36    H17     17.120399   18.678434   20.250832 H          1 MOL1         0.0783
      37    O9      15.262021   19.334533   19.562403 O.3        1 MOL1        -0.3740
      38    C12     16.494944   17.470219   18.592875 C.3        1 MOL1         0.0138
      39    H18     17.526363   17.102804   18.655472 H          1 MOL1         0.0794
      40    H19     16.462129   18.167521   17.745117 H          1 MOL1         0.0794
      41    O10     15.606019   16.370800   18.357398 O.3        1 MOL1        -0.5486
      42    H20     15.822576   15.671786   19.017960 H          1 MOL1         0.3769
      43    C13     18.514564   24.081998   21.839310 C.3        1 MOL1         0.2972
      44    H21     18.930988   25.080659   22.024807 H          1 MOL1         0.0751
      45    O11     19.550088   23.105039   21.624626 O.3        1 MOL1        -0.3740
      46    C14     17.675786   23.627916   23.056239 C.3        1 MOL1         0.1003
      47    H22     16.844496   24.335568   23.171727 H          1 MOL1         0.0783
      48    O12     18.478826   23.635027   24.247584 O.3        1 MOL1        -0.5519
      49    H23     19.422084   23.601274   23.955072 H          1 MOL1         0.3769
      50    C15     17.082178   22.221870   22.812944 C.3        1 MOL1         0.1053
      51    H24     17.912227   21.506498   22.790737 H          1 MOL1         0.0783
      52    O13     16.193397   21.889852   23.884015 O.3        1 MOL1        -0.5519
      53    H25     16.685457   22.127974   24.701527 H          1 MOL1         0.3769
      54    C16     16.337983   22.135233   21.456920 C.3        1 MOL1         0.1018
      55    H26     15.351138   22.603952   21.568649 H          1 MOL1         0.0783
      56    C17     17.122243   22.797182   20.286293 C.3        1 MOL1         0.1043
      57    H27     17.953667   22.129223   20.030211 H          1 MOL1         0.0783
      58    O14     17.659076   24.087821   20.677981 O.3        1 MOL1        -0.3740
      59    C18     16.279855   22.987282   19.002335 C.3        1 MOL1         0.0138
      60    H28     16.096040   22.000668   18.555858 H          1 MOL1         0.0794
      61    H29     16.868672   23.567159   18.278833 H          1 MOL1         0.0794
      62    O15     15.032626   23.640714   19.267856 O.3        1 MOL1        -0.5486
      63    H30     14.590673   23.801382   18.405573 H          1 MOL1         0.3769
      64    C19     23.601022   22.751556   20.791682 C.3        1 MOL1         0.2972
      65    H31     24.640296   22.890411   20.466943 H          1 MOL1         0.0751
      66    O16     23.333710   21.376662   21.139890 O.3        1 MOL1        -0.3740
      67    C20     23.255009   23.669390   21.996764 C.3        1 MOL1         0.1003
      68    H32     23.351739   24.706287   21.649351 H          1 MOL1         0.0783
      69    O17     24.148126   23.471295   23.102104 O.3        1 MOL1        -0.5519
      70    H33     24.040062   22.532762   23.399208 H          1 MOL1         0.3769
      71    C21     21.784510   23.450403   22.430543 C.3        1 MOL1         0.1053
      72    H34     21.684928   22.422042   22.803159 H          1 MOL1         0.0783
      73    O18     21.437652   24.375346   23.466432 O.3        1 MOL1        -0.5519
      74    H35     22.205880   24.375087   24.080039 H          1 MOL1         0.3769
      75    C22     20.828525   23.625695   21.224628 C.3        1 MOL1         0.1018
      76    H36     20.779568   24.692799   20.970909 H          1 MOL1         0.0783
      77    C23     21.293089   22.826271   19.975185 C.3        1 MOL1         0.1043
      78    H37     21.173479   21.757156   20.187461 H          1 MOL1         0.0783
      79    O19     22.693713   23.107070   19.722614 O.3        1 MOL1        -0.3740
      80    C24     20.480638   23.112844   18.684412 C.3        1 MOL1         0.0138
      81    H38     19.656158   22.391431   18.626507 H          1 MOL1         0.0794
      82    H39     21.125726   22.923557   17.816055 H          1 MOL1         0.0794
      83    O20     19.954112   24.444388   18.624078 O.3        1 MOL1        -0.5486
      84    H40     19.210141   24.492679   19.268743 H          1 MOL1         0.3769
      85    C25     24.866458   17.690406   22.055143 C.3        1 MOL1         0.2972
      86    H41     25.456880   16.804795   22.323783 H          1 MOL1         0.0751
      87    O21     23.550827   17.333157   21.589243 O.3        1 MOL1        -0.3740
      88    C26     24.711358   18.617753   23.282528 C.3        1 MOL1         0.1003
      89    H42     25.717191   18.939295   23.582707 H          1 MOL1         0.0783
      90    O22     24.083011   17.926152   24.375683 O.3        1 MOL1        -0.5519
      91    H43     23.980405   16.981699   24.102054 H          1 MOL1         0.3769
      92    C27     23.889521   19.871053   22.910285 C.3        1 MOL1         0.1053
      93    H44     22.868510   19.541069   22.693688 H          1 MOL1         0.0783
      94    O23     23.876186   20.765589   24.025761 O.3        1 MOL1        -0.5519
      95    H45     23.700841   20.187334   24.802307 H          1 MOL1         0.3769
      96    C28     24.426302   20.580158   21.640186 C.3        1 MOL1         0.1018
      97    H46     25.297901   21.190352   21.911547 H          1 MOL1         0.0783
      98    C29     24.792285   19.584866   20.499919 C.3        1 MOL1         0.1043
      99    H47     23.853932   19.231838   20.053812 H          1 MOL1         0.0783
     100    O24     25.522851   18.440769   21.012374 O.3        1 MOL1        -0.3740
     101    C30     25.619615   20.229119   19.362269 C.3        1 MOL1         0.0138
     102    H48     24.970100   20.919880   18.807711 H          1 MOL1         0.0794
     103    H49     25.928921   19.440396   18.663302 H          1 MOL1         0.0794
     104    O25     26.764833   20.932665   19.859070 O.3        1 MOL1        -0.5486
     105    H50     27.281053   21.246570   19.084594 H          1 MOL1         0.3769
     106    C31     21.310557   13.887461   20.872298 C.3        1 MOL1         0.2972
     107    H51     20.972125   12.892796   20.557185 H          1 MOL1         0.0751
     108    O26     20.212105   14.724676   21.280052 O.3        1 MOL1        -0.3740
     109    C32     22.302228   13.786862   22.061625 C.3        1 MOL1         0.1003
     110    H52     23.167455   13.205598   21.717148 H          1 MOL1         0.0783
     111    O27     21.705797   13.116507   23.182704 O.3        1 MOL1        -0.5519
     112    H53     20.830735   13.548051   23.357763 H          1 MOL1         0.3769
     113    C33     22.806318   15.193048   22.473014 C.3        1 MOL1         0.1053
     114    H54     21.952640   15.756859   22.871562 H          1 MOL1         0.0783
     115    O28     23.813345   15.062495   23.482284 O.3        1 MOL1        -0.5519
     116    H55     23.469649   14.373259   24.094845 H          1 MOL1         0.3769
     117    C34     23.366728   15.950862   21.240407 C.3        1 MOL1         0.1018
     118    H56     24.311268   15.481946   20.934765 H          1 MOL1         0.0783
     119    C35     22.381364   15.923701   20.042835 C.3        1 MOL1         0.1043
     120    H57     21.495034   16.511373   20.312639 H          1 MOL1         0.0783
     121    O29     21.989097   14.553148   19.783136 O.3        1 MOL1        -0.3740
     122    C36     22.950137   16.548403   18.742420 C.3        1 MOL1         0.0138
     123    H58     22.779570   17.632218   18.778059 H          1 MOL1         0.0794
     124    H59     22.377951   16.163067   17.888034 H          1 MOL1         0.0794
     125    O30     24.348258   16.292414   18.557913 O.3        1 MOL1        -0.5486
     126    H60     24.831352   16.806707   19.242920 H          1 MOL1         0.3769
     127    C1      20.001294   19.651104   21.809420 C.3        1 MOL1        -0.1693
     128    H1      20.951051   19.662467   21.259713 H          1 MOL1         0.0829
     129    H2      19.316946   20.368605   21.344395 H          1 MOL1         0.0829
     130    C2      20.140492   19.728936   23.367432 C.3        1 MOL1        -0.1768
     131    H3      19.225147   20.007792   23.903073 H          1 MOL1         0.0829
     132    H4      20.966805   20.333282   23.754174 H          1 MOL1         0.0829
     133    C3      20.390794   18.192632   23.288803 C.3        1 MOL1         0.1211
     134    H5      21.419537   17.920035   23.025675 H          1 MOL1         0.0786
     135    C4      19.418862   18.226120   22.072608 C.3        1 MOL1        -0.1768
     136    H6      18.359242   18.210301   22.349559 H          1 MOL1         0.0829
     137    H7      19.593515   17.476013   21.295884 H          1 MOL1         0.0829
     138    O1      19.950469   17.446697   24.398241 O.3        1 MOL1        -0.5515
     139    H8      20.580073   17.615362   25.128095 H          1 MOL1         0.3773
@<TRIPOS>BOND
    1     1     2    1
    2     1     3    1
    3     1     4    1
    4     4     5    1
    5     4     6    1
    6     6     7    1
    7     4     8    1
    8     8     9    1
    9     8    10    1
   10    10    11    1
   11     8    12    1
   12    12    13    1
   13    12    14    1
   14    14    15    1
   15     1    16    1
   16    14    16    1
   17    14    17    1
   18    17    18    1
   19    17    19    1
   20    17    20    1
   21    20    21    1
   22    22    23    1
   23    22    24    1
   24    22    25    1
   25    25    26    1
   26    25    27    1
   27    27    28    1
   28    25    29    1
   29    29    30    1
   30    29    31    1
   31    31    32    1
   32     3    33    1
   33    29    33    1
   34    33    34    1
   35    33    35    1
   36    35    36    1
   37    22    37    1
   38    35    37    1
   39    35    38    1
   40    38    39    1
   41    38    40    1
   42    38    41    1
   43    41    42    1
   44    43    44    1
   45    43    45    1
   46    43    46    1
   47    46    47    1
   48    46    48    1
   49    48    49    1
   50    46    50    1
   51    50    51    1
   52    50    52    1
   53    52    53    1
   54    24    54    1
   55    50    54    1
   56    54    55    1
   57    54    56    1
   58    56    57    1
   59    43    58    1
   60    56    58    1
   61    56    59    1
   62    59    60    1
   63    59    61    1
   64    59    62    1
   65    62    63    1
   66    64    65    1
   67    64    66    1
   68    64    67    1
   69    67    68    1
   70    67    69    1
   71    69    70    1
   72    67    71    1
   73    71    72    1
   74    71    73    1
   75    73    74    1
   76    45    75    1
   77    71    75    1
   78    75    76    1
   79    75    77    1
   80    77    78    1
   81    64    79    1
   82    77    79    1
   83    77    80    1
   84    80    81    1
   85    80    82    1
   86    80    83    1
   87    83    84    1
   88    85    86    1
   89    85    87    1
   90    85    88    1
   91    88    89    1
   92    88    90    1
   93    90    91    1
   94    88    92    1
   95    92    93    1
   96    92    94    1
   97    94    95    1
   98    66    96    1
   99    92    96    1
  100    96    97    1
  101    96    98    1
  102    98    99    1
  103    85   100    1
  104    98   100    1
  105    98   101    1
  106   101   102    1
  107   101   103    1
  108   101   104    1
  109   104   105    1
  110   106   107    1
  111    12   108    1
  112   106   108    1
  113   106   109    1
  114   109   110    1
  115   109   111    1
  116   111   112    1
  117   109   113    1
  118   113   114    1
  119   113   115    1
  120   115   116    1
  121    87   117    1
  122   113   117    1
  123   117   118    1
  124   117   119    1
  125   119   120    1
  126   106   121    1
  127   119   121    1
  128   119   122    1
  129   122   123    1
  130   122   124    1
  131   122   125    1
  132   125   126    1
  133   127   128    1
  134   127   129    1
  135   127   130    1
  136   130   131    1
  137   130   132    1
  138   130   133    1
  139   133   134    1
  140   127   135    1
  141   133   135    1
  142   135   136    1
  143   135   137    1
  144   133   138    1
  145   138   139    1
@<TRIPOS>SUBSTRUCTURE
       1 MOL1            1 RESIDUE      1      MOL     
       2 MOL1          139 RESIDUE      1      MOL     
@<SCITEGIC>MOL_PROPERTY
feprocess Rank
SciTegic.value.IntegerValue
44

@<SCITEGIC>MOL_PROPERTY
Conf_Id
SciTegic.value.IntegerValue
242

@<SCITEGIC>MOL_PROPERTY
Probability
SciTegic.value.DoubleValue
0.32

@<SCITEGIC>MOL_PROPERTY
G
SciTegic.value.DoubleValue
547.478

@<SCITEGIC>MOL_PROPERTY
E
SciTegic.value.DoubleValue
369.961

@<SCITEGIC>MOL_PROPERTY
-TS
SciTegic.value.DoubleValue
177.517

@<SCITEGIC>MOL_PROPERTY
U+W
SciTegic.value.DoubleValue
247.449

@<SCITEGIC>MOL_PROPERTY
U
SciTegic.value.DoubleValue
285.929

@<SCITEGIC>MOL_PROPERTY
W
SciTegic.value.DoubleValue
-38.480

@<SCITEGIC>MOL_PROPERTY
W(PB)
SciTegic.value.DoubleValue
-44.468

@<SCITEGIC>MOL_PROPERTY
W(SA)
SciTegic.value.DoubleValue
5.988

@<SCITEGIC>MOL_PROPERTY
Valence
SciTegic.value.DoubleValue
153.136

@<SCITEGIC>MOL_PROPERTY
Coulomb
SciTegic.value.DoubleValue
154.076

@<SCITEGIC>MOL_PROPERTY
VdW
SciTegic.value.DoubleValue
-21.283

@<SCITEGIC>MOL_PROPERTY
VdW6
SciTegic.value.DoubleValue
-167.383

@<SCITEGIC>MOL_PROPERTY
VdW12
SciTegic.value.DoubleValue
146.099

@<SCITEGIC>MOL_PROPERTY
Bond
SciTegic.value.DoubleValue
4.555

@<SCITEGIC>MOL_PROPERTY
Angle
SciTegic.value.DoubleValue
12.595

@<SCITEGIC>MOL_PROPERTY
Pdih
SciTegic.value.DoubleValue
135.987

@<SCITEGIC>MOL_PROPERTY
Idih
SciTegic.value.DoubleValue
0.000

@<SCITEGIC>MOL_PROPERTY
Tether
SciTegic.value.DoubleValue
0.000

@<TRIPOS>MOLECULE
CD_guest-s16_fast_vm2_rndm.mol2 : feprocess host+ligand conformer 45
         139         145           2
SMALL
USER_CHARGES
 
@<TRIPOS>ATOM
       1    C1      16.103763   15.170886   21.675969 C.3        1 MOL1         0.2972
       2    H1      15.014534   15.061052   21.757566 H          1 MOL1         0.0751
       3    O1      16.483870   16.542826   21.456473 O.3        1 MOL1        -0.3740
       4    C2      16.778481   14.687390   22.980971 C.3        1 MOL1         0.1003
       5    H2      16.544046   13.621962   23.103261 H          1 MOL1         0.0783
       6    O2      16.266612   15.421618   24.104717 O.3        1 MOL1        -0.5519
       7    H3      15.906780   16.269448   23.748473 H          1 MOL1         0.3769
       8    C3      18.314692   14.834495   22.888950 C.3        1 MOL1         0.1053
       9    H4      18.547941   15.906070   22.882036 H          1 MOL1         0.0783
      10    O3      18.927828   14.218988   24.026835 O.3        1 MOL1        -0.5519
      11    H5      18.476317   14.617139   24.803589 H          1 MOL1         0.3769
      12    C4      18.883169   14.207051   21.591926 C.3        1 MOL1         0.1018
      13    H6      18.957192   13.120868   21.735831 H          1 MOL1         0.0783
      14    C5      18.040258   14.528531   20.322731 C.3        1 MOL1         0.1043
      15    H7      18.246267   15.569650   20.049272 H          1 MOL1         0.0783
      16    O4      16.620111   14.383786   20.583782 O.3        1 MOL1        -0.3740
      17    C6      18.400581   13.658497   19.094727 C.3        1 MOL1         0.0138
      18    H8      19.387239   13.967267   18.723992 H          1 MOL1         0.0794
      19    H9      17.675416   13.862503   18.295375 H          1 MOL1         0.0794
      20    O5      18.414472   12.260833   19.409521 O.3        1 MOL1        -0.5486
      21    H10     18.566179   11.768245   18.573459 H          1 MOL1         0.3769
      22    C7      14.945577   20.219305   20.269669 C.3        1 MOL1         0.2972
      23    H11     14.353161   21.037084   19.839607 H          1 MOL1         0.0751
      24    O6      16.237734   20.684178   20.715925 O.3        1 MOL1        -0.3740
      25    C8      14.190322   19.531360   21.442249 C.3        1 MOL1         0.1003
      26    H12     13.271642   19.101605   21.022094 H          1 MOL1         0.0783
      27    O7      13.830589   20.458243   22.476883 O.3        1 MOL1        -0.5519
      28    H13     14.676156   20.795505   22.866783 H          1 MOL1         0.3769
      29    C9      15.034034   18.369323   22.020655 C.3        1 MOL1         0.1053
      30    H14     15.936871   18.796763   22.476806 H          1 MOL1         0.0783
      31    O8      14.279490   17.665559   23.012869 O.3        1 MOL1        -0.5519
      32    H15     13.854787   18.364382   23.558517 H          1 MOL1         0.3769
      33    C10     15.467248   17.393400   20.898592 C.3        1 MOL1         0.1018
      34    H16     14.586289   16.824607   20.573117 H          1 MOL1         0.0783
      35    C11     16.076975   18.131245   19.673026 C.3        1 MOL1         0.1043
      36    H17     17.041548   18.560364   19.972027 H          1 MOL1         0.0783
      37    O9      15.182784   19.200471   19.271343 O.3        1 MOL1        -0.3740
      38    C12     16.356056   17.227548   18.442764 C.3        1 MOL1         0.0138
      39    H18     17.387966   16.861495   18.507134 H          1 MOL1         0.0794
      40    H19     16.298955   17.844834   17.536267 H          1 MOL1         0.0794
      41    O10     15.458919   16.115126   18.335217 O.3        1 MOL1        -0.5486
      42    H20     15.702788   15.473889   19.043073 H          1 MOL1         0.3769
      43    C13     18.486090   23.951901   21.849625 C.3        1 MOL1         0.2972
      44    H21     18.868722   24.930081   22.168009 H          1 MOL1         0.0751
      45    O11     19.551695   23.079892   21.420227 O.3        1 MOL1        -0.3740
      46    C14     17.707376   23.276500   23.007851 C.3        1 MOL1         0.1003
      47    H22     16.869688   23.938851   23.262437 H          1 MOL1         0.0783
      48    O12     18.532159   23.092348   24.169954 O.3        1 MOL1        -0.5519
      49    H23     19.346660   23.635423   24.037587 H          1 MOL1         0.3769
      50    C15     17.126443   21.916525   22.561969 C.3        1 MOL1         0.1053
      51    H24     17.966410   21.236439   22.386148 H          1 MOL1         0.0783
      52    O13     16.303337   21.398483   23.611023 O.3        1 MOL1        -0.5519
      53    H25     16.833956   21.537579   24.428035 H          1 MOL1         0.3769
      54    C16     16.326220   22.024800   21.239948 C.3        1 MOL1         0.1018
      55    H26     15.338743   22.453824   21.454896 H          1 MOL1         0.0783
      56    C17     17.059163   22.880403   20.166247 C.3        1 MOL1         0.1043
      57    H27     17.902474   22.291445   19.782939 H          1 MOL1         0.0783
      58    O14     17.569011   24.108776   20.746368 O.3        1 MOL1        -0.3740
      59    C18     16.168681   23.242138   18.953508 C.3        1 MOL1         0.0138
      60    H28     15.995860   22.331056   18.364829 H          1 MOL1         0.0794
      61    H29     16.718174   23.944842   18.312829 H          1 MOL1         0.0794
      62    O15     14.913678   23.807666   19.352260 O.3        1 MOL1        -0.5486
      63    H30     14.439743   24.085516   18.538023 H          1 MOL1         0.3769
      64    C19     23.706217   22.888038   21.507948 C.3        1 MOL1         0.2972
      65    H31     24.782523   23.086343   21.427553 H          1 MOL1         0.0751
      66    O16     23.442068   21.519945   21.870259 O.3        1 MOL1        -0.3740
      67    C20     23.087193   23.779342   22.611003 C.3        1 MOL1         0.1003
      68    H32     23.263669   24.825471   22.328678 H          1 MOL1         0.0783
      69    O17     23.717407   23.513227   23.874484 O.3        1 MOL1        -0.5519
      70    H33     23.918118   22.545028   23.894276 H          1 MOL1         0.3769
      71    C21     21.557310   23.562298   22.718372 C.3        1 MOL1         0.1053
      72    H34     21.383189   22.553133   23.113347 H          1 MOL1         0.0783
      73    O18     21.021151   24.533623   23.623126 O.3        1 MOL1        -0.5519
      74    H35     21.665930   24.568286   24.366257 H          1 MOL1         0.3769
      75    C22     20.867415   23.663915   21.330344 C.3        1 MOL1         0.1018
      76    H36     20.819466   24.718073   21.028855 H          1 MOL1         0.0783
      77    C23     21.621451   22.857059   20.237786 C.3        1 MOL1         0.1043
      78    H37     21.493027   21.790266   20.456311 H          1 MOL1         0.0783
      79    O19     23.035376   23.175855   20.263106 O.3        1 MOL1        -0.3740
      80    C24     21.078515   23.090160   18.805723 C.3        1 MOL1         0.0138
      81    H38     20.121874   22.560305   18.705401 H          1 MOL1         0.0794
      82    H39     21.775631   22.637140   18.088694 H          1 MOL1         0.0794
      83    O20     20.894245   24.477433   18.500241 O.3        1 MOL1        -0.5486
      84    H40     20.103346   24.784318   18.993908 H          1 MOL1         0.3769
      85    C25     25.067349   17.684924   21.596204 C.3        1 MOL1         0.2972
      86    H41     25.756886   16.840787   21.467641 H          1 MOL1         0.0751
      87    O21     23.713969   17.233511   21.806578 O.3        1 MOL1        -0.3740
      88    C26     25.490997   18.514992   22.833351 C.3        1 MOL1         0.1003
      89    H42     26.521688   18.854987   22.668485 H          1 MOL1         0.0783
      90    O22     25.440840   17.701311   24.016131 O.3        1 MOL1        -0.5519
      91    H43     24.731558   17.029141   23.867622 H          1 MOL1         0.3769
      92    C27     24.594895   19.765052   22.998048 C.3        1 MOL1         0.1053
      93    H44     23.585250   19.422744   23.260889 H          1 MOL1         0.0783
      94    O23     25.111380   20.595154   24.044274 O.3        1 MOL1        -0.5519
      95    H45     25.296551   19.981214   24.789323 H          1 MOL1         0.3769
      96    C28     24.509434   20.573198   21.679969 C.3        1 MOL1         0.1018
      97    H46     25.475575   21.066548   21.510829 H          1 MOL1         0.0783
      98    C29     24.161680   19.659297   20.471422 C.3        1 MOL1         0.1043
      99    H47     23.144231   19.279273   20.622176 H          1 MOL1         0.0783
     100    O24     25.085734   18.542224   20.434197 O.3        1 MOL1        -0.3740
     101    C30     24.183342   20.354387   19.086369 C.3        1 MOL1         0.0138
     102    H48     23.202697   20.813824   18.911410 H          1 MOL1         0.0794
     103    H49     24.317006   19.587351   18.311924 H          1 MOL1         0.0794
     104    O25     25.205913   21.348787   18.970038 O.3        1 MOL1        -0.5486
     105    H50     24.803747   22.199012   19.257779 H          1 MOL1         0.3769
     106    C31     21.235128   13.963210   20.945811 C.3        1 MOL1         0.2972
     107    H51     20.852723   12.997355   20.591128 H          1 MOL1         0.0751
     108    O26     20.173645   14.818312   21.406082 O.3        1 MOL1        -0.3740
     109    C32     22.236285   13.768616   22.115699 C.3        1 MOL1         0.1003
     110    H52     23.050567   13.132105   21.745862 H          1 MOL1         0.0783
     111    O27     21.604959   13.123939   23.234049 O.3        1 MOL1        -0.5519
     112    H53     20.772944   13.624378   23.433186 H          1 MOL1         0.3769
     113    C33     22.850197   15.122564   22.553242 C.3        1 MOL1         0.1053
     114    H54     22.054912   15.722410   23.016036 H          1 MOL1         0.0783
     115    O28     23.895175   14.891045   23.504248 O.3        1 MOL1        -0.5519
     116    H55     23.518266   14.253479   24.150472 H          1 MOL1         0.3769
     117    C34     23.412214   15.903498   21.338265 C.3        1 MOL1         0.1018
     118    H56     24.308867   15.380395   20.980588 H          1 MOL1         0.0783
     119    C35     22.376879   15.990188   20.181513 C.3        1 MOL1         0.1043
     120    H57     21.528644   16.599722   20.516922 H          1 MOL1         0.0783
     121    O29     21.916841   14.651647   19.874981 O.3        1 MOL1        -0.3740
     122    C36     22.897925   16.630638   18.869994 C.3        1 MOL1         0.0138
     123    H58     22.758613   17.716382   18.932706 H          1 MOL1         0.0794
     124    H59     22.271342   16.279849   18.039132 H          1 MOL1         0.0794
     125    O30     24.273451   16.336519   18.603371 O.3        1 MOL1        -0.5486
     126    H60     24.806428   16.981673   19.123297 H          1 MOL1         0.3769
     127    C1      20.025977   19.578875   21.218943 C.3        1 MOL1        -0.1693
     128    H1      20.836368   19.320232   20.527392 H          1 MOL1         0.0829
     129    H2      19.418106   20.369721   20.765272 H          1 MOL1         0.0829
     130    C2      20.471558   19.809849   22.701971 C.3        1 MOL1        -0.1768
     131    H3      21.467602   20.230607   22.850268 H          1 MOL1         0.0829
     132    H4      19.764530   20.371512   23.322723 H          1 MOL1         0.0829
     133    C3      20.374705   18.264433   22.844794 C.3        1 MOL1         0.1211
     134    H5      21.269460   17.736425   22.498746 H          1 MOL1         0.0786
     135    C4      19.239770   18.353685   21.782519 C.3        1 MOL1        -0.1768
     136    H6      18.251591   18.594161   22.190535 H          1 MOL1         0.0829
     137    H7      19.146998   17.493600   21.112803 H          1 MOL1         0.0829
     138    O1      19.985416   17.796933   24.112634 O.3        1 MOL1        -0.5515
     139    H8      19.191842   18.304737   24.371928 H          1 MOL1         0.3773
@<TRIPOS>BOND
    1     1     2    1
    2     1     3    1
    3     1     4    1
    4     4     5    1
    5     4     6    1
    6     6     7    1
    7     4     8    1
    8     8     9    1
    9     8    10    1
   10    10    11    1
   11     8    12    1
   12    12    13    1
   13    12    14    1
   14    14    15    1
   15     1    16    1
   16    14    16    1
   17    14    17    1
   18    17    18    1
   19    17    19    1
   20    17    20    1
   21    20    21    1
   22    22    23    1
   23    22    24    1
   24    22    25    1
   25    25    26    1
   26    25    27    1
   27    27    28    1
   28    25    29    1
   29    29    30    1
   30    29    31    1
   31    31    32    1
   32     3    33    1
   33    29    33    1
   34    33    34    1
   35    33    35    1
   36    35    36    1
   37    22    37    1
   38    35    37    1
   39    35    38    1
   40    38    39    1
   41    38    40    1
   42    38    41    1
   43    41    42    1
   44    43    44    1
   45    43    45    1
   46    43    46    1
   47    46    47    1
   48    46    48    1
   49    48    49    1
   50    46    50    1
   51    50    51    1
   52    50    52    1
   53    52    53    1
   54    24    54    1
   55    50    54    1
   56    54    55    1
   57    54    56    1
   58    56    57    1
   59    43    58    1
   60    56    58    1
   61    56    59    1
   62    59    60    1
   63    59    61    1
   64    59    62    1
   65    62    63    1
   66    64    65    1
   67    64    66    1
   68    64    67    1
   69    67    68    1
   70    67    69    1
   71    69    70    1
   72    67    71    1
   73    71    72    1
   74    71    73    1
   75    73    74    1
   76    45    75    1
   77    71    75    1
   78    75    76    1
   79    75    77    1
   80    77    78    1
   81    64    79    1
   82    77    79    1
   83    77    80    1
   84    80    81    1
   85    80    82    1
   86    80    83    1
   87    83    84    1
   88    85    86    1
   89    85    87    1
   90    85    88    1
   91    88    89    1
   92    88    90    1
   93    90    91    1
   94    88    92    1
   95    92    93    1
   96    92    94    1
   97    94    95    1
   98    66    96    1
   99    92    96    1
  100    96    97    1
  101    96    98    1
  102    98    99    1
  103    85   100    1
  104    98   100    1
  105    98   101    1
  106   101   102    1
  107   101   103    1
  108   101   104    1
  109   104   105    1
  110   106   107    1
  111    12   108    1
  112   106   108    1
  113   106   109    1
  114   109   110    1
  115   109   111    1
  116   111   112    1
  117   109   113    1
  118   113   114    1
  119   113   115    1
  120   115   116    1
  121    87   117    1
  122   113   117    1
  123   117   118    1
  124   117   119    1
  125   119   120    1
  126   106   121    1
  127   119   121    1
  128   119   122    1
  129   122   123    1
  130   122   124    1
  131   122   125    1
  132   125   126    1
  133   127   128    1
  134   127   129    1
  135   127   130    1
  136   130   131    1
  137   130   132    1
  138   130   133    1
  139   133   134    1
  140   127   135    1
  141   133   135    1
  142   135   136    1
  143   135   137    1
  144   133   138    1
  145   138   139    1
@<TRIPOS>SUBSTRUCTURE
       1 MOL1            1 RESIDUE      1      MOL     
       2 MOL1          139 RESIDUE      1      MOL     
@<SCITEGIC>MOL_PROPERTY
feprocess Rank
SciTegic.value.IntegerValue
45

@<SCITEGIC>MOL_PROPERTY
Conf_Id
SciTegic.value.IntegerValue
714

@<SCITEGIC>MOL_PROPERTY
Probability
SciTegic.value.DoubleValue
0.31

@<SCITEGIC>MOL_PROPERTY
G
SciTegic.value.DoubleValue
547.501

@<SCITEGIC>MOL_PROPERTY
E
SciTegic.value.DoubleValue
369.990

@<SCITEGIC>MOL_PROPERTY
-TS
SciTegic.value.DoubleValue
177.510

@<SCITEGIC>MOL_PROPERTY
U+W
SciTegic.value.DoubleValue
247.479

@<SCITEGIC>MOL_PROPERTY
U
SciTegic.value.DoubleValue
286.578

@<SCITEGIC>MOL_PROPERTY
W
SciTegic.value.DoubleValue
-39.099

@<SCITEGIC>MOL_PROPERTY
W(PB)
SciTegic.value.DoubleValue
-45.118

@<SCITEGIC>MOL_PROPERTY
W(SA)
SciTegic.value.DoubleValue
6.019

@<SCITEGIC>MOL_PROPERTY
Valence
SciTegic.value.DoubleValue
153.717

@<SCITEGIC>MOL_PROPERTY
Coulomb
SciTegic.value.DoubleValue
155.504

@<SCITEGIC>MOL_PROPERTY
VdW
SciTegic.value.DoubleValue
-22.643

@<SCITEGIC>MOL_PROPERTY
VdW6
SciTegic.value.DoubleValue
-169.471

@<SCITEGIC>MOL_PROPERTY
VdW12
SciTegic.value.DoubleValue
146.828

@<SCITEGIC>MOL_PROPERTY
Bond
SciTegic.value.DoubleValue
4.571

@<SCITEGIC>MOL_PROPERTY
Angle
SciTegic.value.DoubleValue
12.051

@<SCITEGIC>MOL_PROPERTY
Pdih
SciTegic.value.DoubleValue
137.095

@<SCITEGIC>MOL_PROPERTY
Idih
SciTegic.value.DoubleValue
0.000

@<SCITEGIC>MOL_PROPERTY
Tether
SciTegic.value.DoubleValue
0.000

@<TRIPOS>MOLECULE
CD_guest-s16_fast_vm2_rndm.mol2 : feprocess host+ligand conformer 46
         139         145           2
SMALL
USER_CHARGES
 
@<TRIPOS>ATOM
       1    C1      16.236717   15.325353   21.602848 C.3        1 MOL1         0.2972
       2    H1      15.147760   15.232939   21.707731 H          1 MOL1         0.0751
       3    O1      16.631018   16.685565   21.337298 O.3        1 MOL1        -0.3740
       4    C2      16.930241   14.866021   22.906001 C.3        1 MOL1         0.1003
       5    H2      16.682442   13.807562   23.059166 H          1 MOL1         0.0783
       6    O2      16.459810   15.632646   24.026843 O.3        1 MOL1        -0.5519
       7    H3      15.933572   16.384286   23.659438 H          1 MOL1         0.3769
       8    C3      18.464487   14.988428   22.772498 C.3        1 MOL1         0.1053
       9    H4      18.707064   16.054602   22.691322 H          1 MOL1         0.0783
      10    O3      19.082510   14.443495   23.941587 O.3        1 MOL1        -0.5519
      11    H5      18.568205   14.818094   24.691819 H          1 MOL1         0.3769
      12    C4      18.988693   14.273946   21.499868 C.3        1 MOL1         0.1018
      13    H6      19.007133   13.191534   21.683937 H          1 MOL1         0.0783
      14    C5      18.137836   14.595448   20.236551 C.3        1 MOL1         0.1043
      15    H7      18.370324   15.624396   19.935612 H          1 MOL1         0.0783
      16    O4      16.717508   14.500985   20.520553 O.3        1 MOL1        -0.3740
      17    C6      18.459465   13.683722   19.028563 C.3        1 MOL1         0.0138
      18    H8      19.459077   13.942057   18.653412 H          1 MOL1         0.0794
      19    H9      17.743425   13.900136   18.224310 H          1 MOL1         0.0794
      20    O5      18.415356   12.294127   19.375678 O.3        1 MOL1        -0.5486
      21    H10     18.554753   11.776801   18.552516 H          1 MOL1         0.3769
      22    C7      14.905223   20.361675   20.387428 C.3        1 MOL1         0.2972
      23    H11     14.273698   21.165710   19.989765 H          1 MOL1         0.0751
      24    O6      16.138970   20.874157   20.929410 O.3        1 MOL1        -0.3740
      25    C8      14.160590   19.542732   21.478111 C.3        1 MOL1         0.1003
      26    H12     13.290766   19.080816   20.993000 H          1 MOL1         0.0783
      27    O7      13.696805   20.373943   22.551908 O.3        1 MOL1        -0.5519
      28    H13     14.493899   20.781957   22.974911 H          1 MOL1         0.3769
      29    C9      15.064581   18.402017   22.010431 C.3        1 MOL1         0.1053
      30    H14     15.924597   18.852478   22.524449 H          1 MOL1         0.0783
      31    O8      14.326774   17.586370   22.926561 O.3        1 MOL1        -0.5519
      32    H15     13.824365   18.218876   23.487671 H          1 MOL1         0.3769
      33    C10     15.590075   17.540060   20.834226 C.3        1 MOL1         0.1018
      34    H16     14.752111   16.962194   20.422328 H          1 MOL1         0.0783
      35    C11     16.206009   18.403428   19.700936 C.3        1 MOL1         0.1043
      36    H17     17.124437   18.868280   20.080300 H          1 MOL1         0.0783
      37    O9      15.259553   19.439141   19.330513 O.3        1 MOL1        -0.3740
      38    C12     16.608090   17.600826   18.435573 C.3        1 MOL1         0.0138
      39    H18     17.643968   17.260079   18.559252 H          1 MOL1         0.0794
      40    H19     16.598654   18.279152   17.572028 H          1 MOL1         0.0794
      41    O10     15.761772   16.470974   18.185414 O.3        1 MOL1        -0.5486
      42    H20     15.942463   15.807741   18.890866 H          1 MOL1         0.3769
      43    C13     18.468936   23.931997   22.189783 C.3        1 MOL1         0.2972
      44    H21     18.960110   24.848651   22.540592 H          1 MOL1         0.0751
      45    O11     19.438858   22.939778   21.791966 O.3        1 MOL1        -0.3740
      46    C14     17.570434   23.359805   23.312594 C.3        1 MOL1         0.1003
      47    H22     16.802886   24.112886   23.533083 H          1 MOL1         0.0783
      48    O12     18.331794   23.096204   24.499834 O.3        1 MOL1        -0.5519
      49    H23     18.948876   22.355758   24.275844 H          1 MOL1         0.3769
      50    C15     16.863845   22.068288   22.852116 C.3        1 MOL1         0.1053
      51    H24     17.635591   21.299597   22.757745 H          1 MOL1         0.0783
      52    O13     15.918682   21.664778   23.846804 O.3        1 MOL1        -0.5519
      53    H25     16.411651   21.706826   24.696829 H          1 MOL1         0.3769
      54    C16     16.166907   22.209093   21.474239 C.3        1 MOL1         0.1018
      55    H26     15.161586   22.623600   21.620803 H          1 MOL1         0.0783
      56    C17     16.971429   23.060035   20.448320 C.3        1 MOL1         0.1043
      57    H27     17.749050   22.405459   20.043727 H          1 MOL1         0.0783
      58    O14     17.614639   24.208769   21.059546 O.3        1 MOL1        -0.3740
      59    C18     16.125216   23.549008   19.247885 C.3        1 MOL1         0.0138
      60    H28     15.789015   22.676239   18.671966 H          1 MOL1         0.0794
      61    H29     16.771033   24.140789   18.585599 H          1 MOL1         0.0794
      62    O15     14.997818   24.335215   19.655305 O.3        1 MOL1        -0.5486
      63    H30     14.352692   23.746749   20.099381 H          1 MOL1         0.3769
      64    C19     23.451783   22.587102   20.759948 C.3        1 MOL1         0.2972
      65    H31     24.464045   22.707975   20.352965 H          1 MOL1         0.0751
      66    O16     23.251826   21.270252   21.308924 O.3        1 MOL1        -0.3740
      67    C20     23.169170   23.629963   21.870920 C.3        1 MOL1         0.1003
      68    H32     23.279124   24.622571   21.415073 H          1 MOL1         0.0783
      69    O17     24.107791   23.505375   22.951550 O.3        1 MOL1        -0.5519
      70    H33     24.090035   22.561290   23.251912 H          1 MOL1         0.3769
      71    C21     21.716995   23.511628   22.401877 C.3        1 MOL1         0.1053
      72    H34     21.639249   22.581643   22.979676 H          1 MOL1         0.0783
      73    O18     21.452621   24.631985   23.251585 O.3        1 MOL1        -0.5519
      74    H35     22.210599   24.669572   23.875267 H          1 MOL1         0.3769
      75    C22     20.673699   23.456626   21.250366 C.3        1 MOL1         0.1018
      76    H36     20.546077   24.471244   20.851415 H          1 MOL1         0.0783
      77    C23     21.103108   22.507637   20.093910 C.3        1 MOL1         0.1043
      78    H37     21.033125   21.472934   20.451147 H          1 MOL1         0.0783
      79    O19     22.472356   22.789264   19.720787 O.3        1 MOL1        -0.3740
      80    C24     20.228041   22.599068   18.816831 C.3        1 MOL1         0.0138
      81    H38     19.414693   21.868265   18.899393 H          1 MOL1         0.0794
      82    H39     20.834453   22.289688   17.955043 H          1 MOL1         0.0794
      83    O20     19.689893   23.908688   18.589579 O.3        1 MOL1        -0.5486
      84    H40     19.098316   24.123407   19.346209 H          1 MOL1         0.3769
      85    C25     25.059322   17.630010   21.933394 C.3        1 MOL1         0.2972
      86    H41     25.734116   16.779613   22.095801 H          1 MOL1         0.0751
      87    O21     23.692271   17.203027   21.779127 O.3        1 MOL1        -0.3740
      88    C26     25.125551   18.589195   23.144830 C.3        1 MOL1         0.1003
      89    H42     26.155775   18.960477   23.221845 H          1 MOL1         0.0783
      90    O22     24.775687   17.892893   24.352086 O.3        1 MOL1        -0.5519
      91    H43     24.248267   17.101094   24.083495 H          1 MOL1         0.3769
      92    C27     24.190619   19.800899   22.930736 C.3        1 MOL1         0.1053
      93    H44     23.159545   19.432334   22.945220 H          1 MOL1         0.0783
      94    O23     24.376424   20.745134   23.989928 O.3        1 MOL1        -0.5519
      95    H45     24.379506   20.204867   24.811603 H          1 MOL1         0.3769
      96    C28     24.431281   20.483843   21.562650 C.3        1 MOL1         0.1018
      97    H46     25.335361   21.103222   21.633977 H          1 MOL1         0.0783
      98    C29     24.560578   19.466865   20.391265 C.3        1 MOL1         0.1043
      99    H47     23.557783   19.072020   20.185757 H          1 MOL1         0.0783
     100    O24     25.435720   18.366147   20.751463 O.3        1 MOL1        -0.3740
     101    C30     25.081905   20.094643   19.076565 C.3        1 MOL1         0.0138
     102    H48     24.294587   20.737254   18.659814 H          1 MOL1         0.0794
     103    H49     25.263098   19.290007   18.351228 H          1 MOL1         0.0794
     104    O25     26.276181   20.859457   19.280987 O.3        1 MOL1        -0.5486
     105    H50     26.594296   21.156735   18.400630 H          1 MOL1         0.3769
     106    C31     21.359447   13.869363   20.948649 C.3        1 MOL1         0.2972
     107    H51     20.962735   12.894120   20.638099 H          1 MOL1         0.0751
     108    O26     20.303914   14.805522   21.249069 O.3        1 MOL1        -0.3740
     109    C32     22.270820   13.738443   22.198335 C.3        1 MOL1         0.1003
     110    H52     23.123878   13.108100   21.915367 H          1 MOL1         0.0783
     111    O27     21.581324   13.121931   23.295961 O.3        1 MOL1        -0.5519
     112    H53     20.760071   13.650587   23.463268 H          1 MOL1         0.3769
     113    C33     22.819372   15.128062   22.607779 C.3        1 MOL1         0.1053
     114    H54     21.971995   15.747485   22.930872 H          1 MOL1         0.0783
     115    O28     23.752025   14.987729   23.684641 O.3        1 MOL1        -0.5519
     116    H55     23.331615   14.352933   24.306790 H          1 MOL1         0.3769
     117    C34     23.503814   15.826401   21.406263 C.3        1 MOL1         0.1018
     118    H56     24.455570   15.316857   21.206542 H          1 MOL1         0.0783
     119    C35     22.629177   15.793585   20.121408 C.3        1 MOL1         0.1043
     120    H57     21.761662   16.442970   20.279484 H          1 MOL1         0.0783
     121    O29     22.166366   14.439064   19.892067 O.3        1 MOL1        -0.3740
     122    C36     23.335930   16.307925   18.839526 C.3        1 MOL1         0.0138
     123    H58     23.148606   17.385045   18.748406 H          1 MOL1         0.0794
     124    H59     22.867951   15.831581   17.967701 H          1 MOL1         0.0794
     125    O30     24.748346   16.068250   18.830803 O.3        1 MOL1        -0.5486
     126    H60     25.157085   16.732682   19.433186 H          1 MOL1         0.3769
     127    C1      20.254174   18.330599   21.582537 C.3        1 MOL1        -0.1693
     128    H1      21.122306   18.607339   20.970480 H          1 MOL1         0.0829
     129    H2      19.802916   17.423293   21.169010 H          1 MOL1         0.0829
     130    C2      19.265461   19.499911   21.879623 C.3        1 MOL1        -0.1768
     131    H3      19.130828   20.239318   21.084538 H          1 MOL1         0.0829
     132    H4      18.278979   19.178258   22.234066 H          1 MOL1         0.0829
     133    C3      20.267430   19.879469   23.012011 C.3        1 MOL1         0.1211
     134    H5      21.140544   20.440272   22.658173 H          1 MOL1         0.0786
     135    C4      20.509681   18.344321   23.127212 C.3        1 MOL1        -0.1768
     136    H6      21.505158   18.033955   23.458324 H          1 MOL1         0.0829
     137    H7      19.762049   17.812068   23.727746 H          1 MOL1         0.0829
     138    O1      19.712588   20.497870   24.149845 O.3        1 MOL1        -0.5515
     139    H8      20.344639   20.358107   24.884302 H          1 MOL1         0.3773
@<TRIPOS>BOND
    1     1     2    1
    2     1     3    1
    3     1     4    1
    4     4     5    1
    5     4     6    1
    6     6     7    1
    7     4     8    1
    8     8     9    1
    9     8    10    1
   10    10    11    1
   11     8    12    1
   12    12    13    1
   13    12    14    1
   14    14    15    1
   15     1    16    1
   16    14    16    1
   17    14    17    1
   18    17    18    1
   19    17    19    1
   20    17    20    1
   21    20    21    1
   22    22    23    1
   23    22    24    1
   24    22    25    1
   25    25    26    1
   26    25    27    1
   27    27    28    1
   28    25    29    1
   29    29    30    1
   30    29    31    1
   31    31    32    1
   32     3    33    1
   33    29    33    1
   34    33    34    1
   35    33    35    1
   36    35    36    1
   37    22    37    1
   38    35    37    1
   39    35    38    1
   40    38    39    1
   41    38    40    1
   42    38    41    1
   43    41    42    1
   44    43    44    1
   45    43    45    1
   46    43    46    1
   47    46    47    1
   48    46    48    1
   49    48    49    1
   50    46    50    1
   51    50    51    1
   52    50    52    1
   53    52    53    1
   54    24    54    1
   55    50    54    1
   56    54    55    1
   57    54    56    1
   58    56    57    1
   59    43    58    1
   60    56    58    1
   61    56    59    1
   62    59    60    1
   63    59    61    1
   64    59    62    1
   65    62    63    1
   66    64    65    1
   67    64    66    1
   68    64    67    1
   69    67    68    1
   70    67    69    1
   71    69    70    1
   72    67    71    1
   73    71    72    1
   74    71    73    1
   75    73    74    1
   76    45    75    1
   77    71    75    1
   78    75    76    1
   79    75    77    1
   80    77    78    1
   81    64    79    1
   82    77    79    1
   83    77    80    1
   84    80    81    1
   85    80    82    1
   86    80    83    1
   87    83    84    1
   88    85    86    1
   89    85    87    1
   90    85    88    1
   91    88    89    1
   92    88    90    1
   93    90    91    1
   94    88    92    1
   95    92    93    1
   96    92    94    1
   97    94    95    1
   98    66    96    1
   99    92    96    1
  100    96    97    1
  101    96    98    1
  102    98    99    1
  103    85   100    1
  104    98   100    1
  105    98   101    1
  106   101   102    1
  107   101   103    1
  108   101   104    1
  109   104   105    1
  110   106   107    1
  111    12   108    1
  112   106   108    1
  113   106   109    1
  114   109   110    1
  115   109   111    1
  116   111   112    1
  117   109   113    1
  118   113   114    1
  119   113   115    1
  120   115   116    1
  121    87   117    1
  122   113   117    1
  123   117   118    1
  124   117   119    1
  125   119   120    1
  126   106   121    1
  127   119   121    1
  128   119   122    1
  129   122   123    1
  130   122   124    1
  131   122   125    1
  132   125   126    1
  133   127   128    1
  134   127   129    1
  135   127   130    1
  136   130   131    1
  137   130   132    1
  138   130   133    1
  139   133   134    1
  140   127   135    1
  141   133   135    1
  142   135   136    1
  143   135   137    1
  144   133   138    1
  145   138   139    1
@<TRIPOS>SUBSTRUCTURE
       1 MOL1            1 RESIDUE      1      MOL     
       2 MOL1          139 RESIDUE      1      MOL     
@<SCITEGIC>MOL_PROPERTY
feprocess Rank
SciTegic.value.IntegerValue
46

@<SCITEGIC>MOL_PROPERTY
Conf_Id
SciTegic.value.IntegerValue
336

@<SCITEGIC>MOL_PROPERTY
Probability
SciTegic.value.DoubleValue
0.29

@<SCITEGIC>MOL_PROPERTY
G
SciTegic.value.DoubleValue
547.525

@<SCITEGIC>MOL_PROPERTY
E
SciTegic.value.DoubleValue
368.459

@<SCITEGIC>MOL_PROPERTY
-TS
SciTegic.value.DoubleValue
179.067

@<SCITEGIC>MOL_PROPERTY
U+W
SciTegic.value.DoubleValue
245.947

@<SCITEGIC>MOL_PROPERTY
U
SciTegic.value.DoubleValue
285.343

@<SCITEGIC>MOL_PROPERTY
W
SciTegic.value.DoubleValue
-39.396

@<SCITEGIC>MOL_PROPERTY
W(PB)
SciTegic.value.DoubleValue
-45.318

@<SCITEGIC>MOL_PROPERTY
W(SA)
SciTegic.value.DoubleValue
5.922

@<SCITEGIC>MOL_PROPERTY
Valence
SciTegic.value.DoubleValue
152.746

@<SCITEGIC>MOL_PROPERTY
Coulomb
SciTegic.value.DoubleValue
154.246

@<SCITEGIC>MOL_PROPERTY
VdW
SciTegic.value.DoubleValue
-21.649

@<SCITEGIC>MOL_PROPERTY
VdW6
SciTegic.value.DoubleValue
-170.363

@<SCITEGIC>MOL_PROPERTY
VdW12
SciTegic.value.DoubleValue
148.715

@<SCITEGIC>MOL_PROPERTY
Bond
SciTegic.value.DoubleValue
4.692

@<SCITEGIC>MOL_PROPERTY
Angle
SciTegic.value.DoubleValue
13.510

@<SCITEGIC>MOL_PROPERTY
Pdih
SciTegic.value.DoubleValue
134.544

@<SCITEGIC>MOL_PROPERTY
Idih
SciTegic.value.DoubleValue
0.000

@<SCITEGIC>MOL_PROPERTY
Tether
SciTegic.value.DoubleValue
0.000

@<TRIPOS>MOLECULE
CD_guest-s16_fast_vm2_rndm.mol2 : feprocess host+ligand conformer 47
         139         145           2
SMALL
USER_CHARGES
 
@<TRIPOS>ATOM
       1    C1      16.117056   15.085680   21.527954 C.3        1 MOL1         0.2972
       2    H1      15.023500   14.998430   21.487784 H          1 MOL1         0.0751
       3    O1      16.539121   16.463619   21.508661 O.3        1 MOL1        -0.3740
       4    C2      16.642677   14.426778   22.823788 C.3        1 MOL1         0.1003
       5    H2      16.367953   13.364374   22.792222 H          1 MOL1         0.0783
       6    O2      16.040509   15.042546   23.973546 O.3        1 MOL1        -0.5519
       7    H3      15.740179   15.940197   23.689802 H          1 MOL1         0.3769
       8    C3      18.182727   14.522725   22.901827 C.3        1 MOL1         0.1053
       9    H4      18.440286   15.578005   23.055698 H          1 MOL1         0.0783
      10    O3      18.657255   13.753499   24.012458 O.3        1 MOL1        -0.5519
      11    H5      18.084994   14.016214   24.767098 H          1 MOL1         0.3769
      12    C4      18.870932   14.035311   21.600287 C.3        1 MOL1         0.1018
      13    H6      18.903879   12.938054   21.619552 H          1 MOL1         0.0783
      14    C5      18.167465   14.534390   20.300329 C.3        1 MOL1         0.1043
      15    H7      18.429758   15.590625   20.170779 H          1 MOL1         0.0783
      16    O4      16.725056   14.414680   20.407755 O.3        1 MOL1        -0.3740
      17    C6      18.597377   13.790963   19.011695 C.3        1 MOL1         0.0138
      18    H8      19.602385   14.123859   18.725251 H          1 MOL1         0.0794
      19    H9      17.921123   14.084638   18.197478 H          1 MOL1         0.0794
      20    O5      18.582418   12.367978   19.178123 O.3        1 MOL1        -0.5486
      21    H10     18.786723   11.963833   18.306638 H          1 MOL1         0.3769
      22    C7      15.080573   20.251110   20.480432 C.3        1 MOL1         0.2972
      23    H11     14.482780   21.066206   20.052421 H          1 MOL1         0.0751
      24    O6      16.302667   20.744921   21.068273 O.3        1 MOL1        -0.3740
      25    C8      14.276043   19.486512   21.567270 C.3        1 MOL1         0.1003
      26    H12     13.374443   19.089771   21.082688 H          1 MOL1         0.0783
      27    O7      13.882049   20.354219   22.641792 O.3        1 MOL1        -0.5519
      28    H13     14.697791   20.808090   22.973808 H          1 MOL1         0.3769
      29    C9      15.088840   18.284945   22.110154 C.3        1 MOL1         0.1053
      30    H14     15.961530   18.677667   22.648900 H          1 MOL1         0.0783
      31    O8      14.276814   17.513976   23.002084 O.3        1 MOL1        -0.5519
      32    H15     13.823846   18.174428   23.572560 H          1 MOL1         0.3769
      33    C10     15.591278   17.392102   20.948751 C.3        1 MOL1         0.1018
      34    H16     14.727865   16.880393   20.503219 H          1 MOL1         0.0783
      35    C11     16.305247   18.224000   19.848406 C.3        1 MOL1         0.1043
      36    H17     17.226182   18.637050   20.272253 H          1 MOL1         0.0783
      37    O9      15.434032   19.308095   19.444705 O.3        1 MOL1        -0.3740
      38    C12     16.712247   17.426180   18.582410 C.3        1 MOL1         0.0138
      39    H18     17.727560   17.037860   18.726627 H          1 MOL1         0.0794
      40    H19     16.761957   18.121734   17.734039 H          1 MOL1         0.0794
      41    O10     15.819823   16.346661   18.279332 O.3        1 MOL1        -0.5486
      42    H20     15.983520   15.637775   18.944487 H          1 MOL1         0.3769
      43    C13     18.471381   24.139713   21.821731 C.3        1 MOL1         0.2972
      44    H21     18.883844   25.139186   22.011926 H          1 MOL1         0.0751
      45    O11     19.509872   23.152356   21.680922 O.3        1 MOL1        -0.3740
      46    C14     17.566106   23.707163   22.997413 C.3        1 MOL1         0.1003
      47    H22     16.722757   24.408215   23.047262 H          1 MOL1         0.0783
      48    O12     18.297802   23.747892   24.233211 O.3        1 MOL1        -0.5519
      49    H23     19.256124   23.769116   23.994561 H          1 MOL1         0.3769
      50    C15     17.004418   22.288878   22.748793 C.3        1 MOL1         0.1053
      51    H24     17.842631   21.585991   22.788930 H          1 MOL1         0.0783
      52    O13     16.061527   21.961310   23.773338 O.3        1 MOL1        -0.5519
      53    H25     16.498737   22.229618   24.612569 H          1 MOL1         0.3769
      54    C16     16.342333   22.159247   21.354483 C.3        1 MOL1         0.1018
      55    H26     15.337026   22.598078   21.409033 H          1 MOL1         0.0783
      56    C17     17.160948   22.834258   20.212470 C.3        1 MOL1         0.1043
      57    H27     18.008800   22.181014   19.982259 H          1 MOL1         0.0783
      58    O14     17.673026   24.130012   20.620135 O.3        1 MOL1        -0.3740
      59    C18     16.365257   23.012794   18.897745 C.3        1 MOL1         0.0138
      60    H28     16.212965   22.023627   18.445032 H          1 MOL1         0.0794
      61    H29     16.973341   23.600466   18.196807 H          1 MOL1         0.0794
      62    O15     15.099964   23.649073   19.115125 O.3        1 MOL1        -0.5486
      63    H30     14.689634   23.804622   18.236427 H          1 MOL1         0.3769
      64    C19     23.623424   22.808240   21.155321 C.3        1 MOL1         0.2972
      65    H31     24.677184   22.967061   20.892321 H          1 MOL1         0.0751
      66    O16     23.383398   21.467905   21.626649 O.3        1 MOL1        -0.3740
      67    C20     23.186419   23.771636   22.289774 C.3        1 MOL1         0.1003
      68    H32     23.338533   24.797587   21.930270 H          1 MOL1         0.0783
      69    O17     23.979260   23.556910   23.469245 O.3        1 MOL1        -0.5519
      70    H33     24.056359   22.577582   23.595922 H          1 MOL1         0.3769
      71    C21     21.681156   23.593973   22.616470 C.3        1 MOL1         0.1053
      72    H34     21.549039   22.605745   23.073165 H          1 MOL1         0.0783
      73    O18     21.261615   24.603290   23.540508 O.3        1 MOL1        -0.5519
      74    H35     21.969802   24.637285   24.221873 H          1 MOL1         0.3769
      75    C22     20.813048   23.650672   21.334217 C.3        1 MOL1         0.1018
      76    H36     20.776082   24.687861   20.975933 H          1 MOL1         0.0783
      77    C23     21.373426   22.742659   20.206045 C.3        1 MOL1         0.1043
      78    H37     21.276432   21.697736   20.522535 H          1 MOL1         0.0783
      79    O19     22.774182   23.050369   20.011351 O.3        1 MOL1        -0.3740
      80    C24     20.637148   22.867354   18.846267 C.3        1 MOL1         0.0138
      81    H38     19.845911   22.107985   18.812044 H          1 MOL1         0.0794
      82    H39     21.342760   22.620529   18.042030 H          1 MOL1         0.0794
      83    O20     20.069438   24.164752   18.622250 O.3        1 MOL1        -0.5486
      84    H40     19.320131   24.266670   19.253925 H          1 MOL1         0.3769
      85    C25     24.983548   17.664708   21.729997 C.3        1 MOL1         0.2972
      86    H41     25.630330   16.777662   21.740229 H          1 MOL1         0.0751
      87    O21     23.588779   17.302094   21.709408 O.3        1 MOL1        -0.3740
      88    C26     25.253159   18.518968   22.991874 C.3        1 MOL1         0.1003
      89    H42     26.304779   18.832646   22.962884 H          1 MOL1         0.0783
      90    O22     25.017613   17.749065   24.182063 O.3        1 MOL1        -0.5519
      91    H43     24.536118   16.931110   23.904395 H          1 MOL1         0.3769
      92    C27     24.371715   19.786921   22.985605 C.3        1 MOL1         0.1053
      93    H44     23.329548   19.463106   23.092789 H          1 MOL1         0.0783
      94    O23     24.729504   20.632999   24.083782 O.3        1 MOL1        -0.5519
      95    H45     24.789305   20.028892   24.857337 H          1 MOL1         0.3769
      96    C28     24.506123   20.568448   21.656198 C.3        1 MOL1         0.1018
      97    H46     25.464796   21.103705   21.662639 H          1 MOL1         0.0783
      98    C29     24.408122   19.648336   20.405461 C.3        1 MOL1         0.1043
      99    H47     23.362119   19.333404   20.307834 H          1 MOL1         0.0783
     100    O24     25.246040   18.473344   20.564423 O.3        1 MOL1        -0.3740
     101    C30     24.804566   20.347860   19.083324 C.3        1 MOL1         0.0138
     102    H48     24.018461   21.066449   18.817098 H          1 MOL1         0.0794
     103    H49     24.838613   19.595027   18.284298 H          1 MOL1         0.0794
     104    O25     26.065276   21.021283   19.187244 O.3        1 MOL1        -0.5486
     105    H50     26.278760   21.391429   18.303069 H          1 MOL1         0.3769
     106    C31     21.258010   13.880250   21.020604 C.3        1 MOL1         0.2972
     107    H51     20.922810   12.894629   20.672392 H          1 MOL1         0.0751
     108    O26     20.191833   14.609630   21.654700 O.3        1 MOL1        -0.3740
     109    C32     22.382786   13.730695   22.079029 C.3        1 MOL1         0.1003
     110    H52     23.198768   13.157558   21.619983 H          1 MOL1         0.0783
     111    O27     21.889966   13.027288   23.231101 O.3        1 MOL1        -0.5519
     112    H53     21.003622   13.411844   23.437609 H          1 MOL1         0.3769
     113    C33     22.939894   15.114346   22.501826 C.3        1 MOL1         0.1053
     114    H54     22.152163   15.643723   23.054123 H          1 MOL1         0.0783
     115    O28     24.084232   14.938072   23.343550 O.3        1 MOL1        -0.5519
     116    H55     23.826884   14.237358   23.983737 H          1 MOL1         0.3769
     117    C34     23.314971   15.961978   21.262056 C.3        1 MOL1         0.1018
     118    H56     24.186694   15.506986   20.772931 H          1 MOL1         0.0783
     119    C35     22.149778   16.024444   20.242440 C.3        1 MOL1         0.1043
     120    H57     21.305985   16.545568   20.708823 H          1 MOL1         0.0783
     121    O29     21.759404   14.669507   19.916812 O.3        1 MOL1        -0.3740
     122    C36     22.481755   16.781727   18.930201 C.3        1 MOL1         0.0138
     123    H58     22.249977   17.844413   19.074468 H          1 MOL1         0.0794
     124    H59     21.814582   16.417631   18.137627 H          1 MOL1         0.0794
     125    O30     23.849571   16.640691   18.525806 O.3        1 MOL1        -0.5486
     126    H60     24.398414   17.157136   19.161018 H          1 MOL1         0.3769
     127    C1      20.390818   18.352130   23.362000 C.3        1 MOL1        -0.1693
     128    H1      21.346568   17.834175   23.217819 H          1 MOL1         0.0829
     129    H2      20.038556   18.160720   24.382279 H          1 MOL1         0.0829
     130    C2      19.343392   18.135674   22.222455 C.3        1 MOL1        -0.1768
     131    H3      19.352786   17.162234   21.727773 H          1 MOL1         0.0829
     132    H4      18.312499   18.377063   22.505165 H          1 MOL1         0.0829
     133    C3      20.103173   19.270137   21.478561 C.3        1 MOL1         0.1211
     134    H5      21.009129   18.934769   20.957772 H          1 MOL1         0.0786
     135    C4      20.382058   19.845636   22.899483 C.3        1 MOL1        -0.1768
     136    H6      19.577629   20.447918   23.331765 H          1 MOL1         0.0829
     137    H7      21.321647   20.389482   23.016429 H          1 MOL1         0.0829
     138    O1      19.310524   20.057567   20.624456 O.3        1 MOL1        -0.5515
     139    H8      18.485393   20.273744   21.105331 H          1 MOL1         0.3773
@<TRIPOS>BOND
    1     1     2    1
    2     1     3    1
    3     1     4    1
    4     4     5    1
    5     4     6    1
    6     6     7    1
    7     4     8    1
    8     8     9    1
    9     8    10    1
   10    10    11    1
   11     8    12    1
   12    12    13    1
   13    12    14    1
   14    14    15    1
   15     1    16    1
   16    14    16    1
   17    14    17    1
   18    17    18    1
   19    17    19    1
   20    17    20    1
   21    20    21    1
   22    22    23    1
   23    22    24    1
   24    22    25    1
   25    25    26    1
   26    25    27    1
   27    27    28    1
   28    25    29    1
   29    29    30    1
   30    29    31    1
   31    31    32    1
   32     3    33    1
   33    29    33    1
   34    33    34    1
   35    33    35    1
   36    35    36    1
   37    22    37    1
   38    35    37    1
   39    35    38    1
   40    38    39    1
   41    38    40    1
   42    38    41    1
   43    41    42    1
   44    43    44    1
   45    43    45    1
   46    43    46    1
   47    46    47    1
   48    46    48    1
   49    48    49    1
   50    46    50    1
   51    50    51    1
   52    50    52    1
   53    52    53    1
   54    24    54    1
   55    50    54    1
   56    54    55    1
   57    54    56    1
   58    56    57    1
   59    43    58    1
   60    56    58    1
   61    56    59    1
   62    59    60    1
   63    59    61    1
   64    59    62    1
   65    62    63    1
   66    64    65    1
   67    64    66    1
   68    64    67    1
   69    67    68    1
   70    67    69    1
   71    69    70    1
   72    67    71    1
   73    71    72    1
   74    71    73    1
   75    73    74    1
   76    45    75    1
   77    71    75    1
   78    75    76    1
   79    75    77    1
   80    77    78    1
   81    64    79    1
   82    77    79    1
   83    77    80    1
   84    80    81    1
   85    80    82    1
   86    80    83    1
   87    83    84    1
   88    85    86    1
   89    85    87    1
   90    85    88    1
   91    88    89    1
   92    88    90    1
   93    90    91    1
   94    88    92    1
   95    92    93    1
   96    92    94    1
   97    94    95    1
   98    66    96    1
   99    92    96    1
  100    96    97    1
  101    96    98    1
  102    98    99    1
  103    85   100    1
  104    98   100    1
  105    98   101    1
  106   101   102    1
  107   101   103    1
  108   101   104    1
  109   104   105    1
  110   106   107    1
  111    12   108    1
  112   106   108    1
  113   106   109    1
  114   109   110    1
  115   109   111    1
  116   111   112    1
  117   109   113    1
  118   113   114    1
  119   113   115    1
  120   115   116    1
  121    87   117    1
  122   113   117    1
  123   117   118    1
  124   117   119    1
  125   119   120    1
  126   106   121    1
  127   119   121    1
  128   119   122    1
  129   122   123    1
  130   122   124    1
  131   122   125    1
  132   125   126    1
  133   127   128    1
  134   127   129    1
  135   127   130    1
  136   130   131    1
  137   130   132    1
  138   130   133    1
  139   133   134    1
  140   127   135    1
  141   133   135    1
  142   135   136    1
  143   135   137    1
  144   133   138    1
  145   138   139    1
@<TRIPOS>SUBSTRUCTURE
       1 MOL1            1 RESIDUE      1      MOL     
       2 MOL1          139 RESIDUE      1      MOL     
@<SCITEGIC>MOL_PROPERTY
feprocess Rank
SciTegic.value.IntegerValue
47

@<SCITEGIC>MOL_PROPERTY
Conf_Id
SciTegic.value.IntegerValue
669

@<SCITEGIC>MOL_PROPERTY
Probability
SciTegic.value.DoubleValue
0.27

@<SCITEGIC>MOL_PROPERTY
G
SciTegic.value.DoubleValue
547.581

@<SCITEGIC>MOL_PROPERTY
E
SciTegic.value.DoubleValue
369.377

@<SCITEGIC>MOL_PROPERTY
-TS
SciTegic.value.DoubleValue
178.204

@<SCITEGIC>MOL_PROPERTY
U+W
SciTegic.value.DoubleValue
246.866

@<SCITEGIC>MOL_PROPERTY
U
SciTegic.value.DoubleValue
281.189

@<SCITEGIC>MOL_PROPERTY
W
SciTegic.value.DoubleValue
-34.323

@<SCITEGIC>MOL_PROPERTY
W(PB)
SciTegic.value.DoubleValue
-40.308

@<SCITEGIC>MOL_PROPERTY
W(SA)
SciTegic.value.DoubleValue
5.985

@<SCITEGIC>MOL_PROPERTY
Valence
SciTegic.value.DoubleValue
153.370

@<SCITEGIC>MOL_PROPERTY
Coulomb
SciTegic.value.DoubleValue
151.227

@<SCITEGIC>MOL_PROPERTY
VdW
SciTegic.value.DoubleValue
-23.408

@<SCITEGIC>MOL_PROPERTY
VdW6
SciTegic.value.DoubleValue
-170.053

@<SCITEGIC>MOL_PROPERTY
VdW12
SciTegic.value.DoubleValue
146.645

@<SCITEGIC>MOL_PROPERTY
Bond
SciTegic.value.DoubleValue
4.536

@<SCITEGIC>MOL_PROPERTY
Angle
SciTegic.value.DoubleValue
11.548

@<SCITEGIC>MOL_PROPERTY
Pdih
SciTegic.value.DoubleValue
137.286

@<SCITEGIC>MOL_PROPERTY
Idih
SciTegic.value.DoubleValue
0.000

@<SCITEGIC>MOL_PROPERTY
Tether
SciTegic.value.DoubleValue
0.000

@<TRIPOS>MOLECULE
CD_guest-s16_fast_vm2_rndm.mol2 : feprocess host+ligand conformer 48
         139         145           2
SMALL
USER_CHARGES
 
@<TRIPOS>ATOM
       1    C1      16.277506   15.219948   20.490085 C.3        1 MOL1         0.2972
       2    H1      15.229963   15.108746   20.182143 H          1 MOL1         0.0751
       3    O1      16.586146   16.597973   20.800660 O.3        1 MOL1        -0.3740
       4    C2      16.606988   14.296463   21.698680 C.3        1 MOL1         0.1003
       5    H2      16.452213   13.263835   21.359607 H          1 MOL1         0.0783
       6    O2      15.751531   14.538395   22.824897 O.3        1 MOL1        -0.5519
       7    H3      15.967412   15.446786   23.154544 H          1 MOL1         0.3769
       8    C3      18.093650   14.439471   22.105292 C.3        1 MOL1         0.1053
       9    H4      18.252171   15.459643   22.480278 H          1 MOL1         0.0783
      10    O3      18.409492   13.491051   23.130462 O.3        1 MOL1        -0.5519
      11    H5      17.662596   13.541386   23.767687 H          1 MOL1         0.3769
      12    C4      19.022908   14.217772   20.888007 C.3        1 MOL1         0.1018
      13    H6      19.021739   13.147141   20.645621 H          1 MOL1         0.0783
      14    C5      18.568865   15.033660   19.645890 C.3        1 MOL1         0.1043
      15    H7      18.732628   16.095067   19.858694 H          1 MOL1         0.0783
      16    O4      17.153663   14.818527   19.411949 O.3        1 MOL1        -0.3740
      17    C6      19.349375   14.713215   18.346584 C.3        1 MOL1         0.0138
      18    H8      20.308934   15.245960   18.374860 H          1 MOL1         0.0794
      19    H9      18.784841   15.114195   17.494312 H          1 MOL1         0.0794
      20    O5      19.585028   13.312350   18.165654 O.3        1 MOL1        -0.5486
      21    H10     20.446020   13.108818   18.592104 H          1 MOL1         0.3769
      22    C7      14.986233   20.225926   22.044882 C.3        1 MOL1         0.2972
      23    H11     14.349859   21.029493   22.437265 H          1 MOL1         0.0751
      24    O6      16.160046   20.753656   21.393272 O.3        1 MOL1        -0.3740
      25    C8      15.407157   19.264765   23.189009 C.3        1 MOL1         0.1003
      26    H12     14.483277   18.849779   23.612746 H          1 MOL1         0.0783
      27    O7      16.134487   19.940119   24.227314 O.3        1 MOL1        -0.5519
      28    H13     15.986724   20.909019   24.105800 H          1 MOL1         0.3769
      29    C9      16.252685   18.091161   22.648137 C.3        1 MOL1         0.1053
      30    H14     17.205185   18.499902   22.292705 H          1 MOL1         0.0783
      31    O8      16.490960   17.169139   23.715749 O.3        1 MOL1        -0.5519
      32    H15     16.763550   17.738092   24.471168 H          1 MOL1         0.3769
      33    C10     15.564909   17.381390   21.455813 C.3        1 MOL1         0.1018
      34    H16     14.746180   16.758217   21.838316 H          1 MOL1         0.0783
      35    C11     15.009774   18.392151   20.411650 C.3        1 MOL1         0.1043
      36    H17     15.861206   18.838704   19.882590 H          1 MOL1         0.0783
      37    O9      14.259033   19.444353   21.072539 O.3        1 MOL1        -0.3740
      38    C12     14.100923   17.737545   19.343855 C.3        1 MOL1         0.0138
      39    H18     14.728417   17.128028   18.679604 H          1 MOL1         0.0794
      40    H19     13.652752   18.531381   18.731356 H          1 MOL1         0.0794
      41    O10     13.078182   16.921460   19.928715 O.3        1 MOL1        -0.5486
      42    H20     12.495230   16.608335   19.202876 H          1 MOL1         0.3769
      43    C13     18.407732   24.213831   21.153502 C.3        1 MOL1         0.2972
      44    H21     18.802194   25.230440   21.030966 H          1 MOL1         0.0751
      45    O11     19.461228   23.241533   21.307741 O.3        1 MOL1        -0.3740
      46    C14     17.511776   24.145279   22.411713 C.3        1 MOL1         0.1003
      47    H22     16.674615   24.838391   22.256508 H          1 MOL1         0.0783
      48    O12     18.246882   24.546320   23.579046 O.3        1 MOL1        -0.5519
      49    H23     19.189744   24.280356   23.435138 H          1 MOL1         0.3769
      50    C15     16.925907   22.725516   22.603000 C.3        1 MOL1         0.1053
      51    H24     17.751731   22.051292   22.868608 H          1 MOL1         0.0783
      52    O13     15.971828   22.772693   23.669313 O.3        1 MOL1        -0.5519
      53    H25     16.389574   23.345315   24.352958 H          1 MOL1         0.3769
      54    C16     16.263353   22.191772   21.301865 C.3        1 MOL1         0.1018
      55    H26     15.278136   22.659507   21.180654 H          1 MOL1         0.0783
      56    C17     17.118066   22.473003   20.034534 C.3        1 MOL1         0.1043
      57    H27     17.980527   21.803125   20.069337 H          1 MOL1         0.0783
      58    O14     17.600011   23.839566   20.019495 O.3        1 MOL1        -0.3740
      59    C18     16.378921   22.184095   18.705174 C.3        1 MOL1         0.0138
      60    H28     16.263189   21.097043   18.598627 H          1 MOL1         0.0794
      61    H29     17.010484   22.525699   17.874467 H          1 MOL1         0.0794
      62    O15     15.095254   22.816442   18.637262 O.3        1 MOL1        -0.5486
      63    H30     14.485685   22.311526   19.217109 H          1 MOL1         0.3769
      64    C19     23.544903   22.653734   20.737046 C.3        1 MOL1         0.2972
      65    H31     24.606216   22.765609   20.480956 H          1 MOL1         0.0751
      66    O16     23.230588   21.277114   21.055232 O.3        1 MOL1        -0.3740
      67    C20     23.155327   23.596316   21.913518 C.3        1 MOL1         0.1003
      68    H32     23.330481   24.623066   21.566561 H          1 MOL1         0.0783
      69    O17     23.948332   23.373547   23.088523 O.3        1 MOL1        -0.5519
      70    H33     23.716497   22.470298   23.421420 H          1 MOL1         0.3769
      71    C21     21.649773   23.464064   22.243640 C.3        1 MOL1         0.1053
      72    H34     21.465773   22.448509   22.619660 H          1 MOL1         0.0783
      73    O18     21.286536   24.424946   23.241161 O.3        1 MOL1        -0.5519
      74    H35     22.003895   24.383626   23.912197 H          1 MOL1         0.3769
      75    C22     20.790832   23.680040   20.975489 C.3        1 MOL1         0.1018
      76    H36     20.823797   24.746332   20.716742 H          1 MOL1         0.0783
      77    C23     21.298589   22.839719   19.770002 C.3        1 MOL1         0.1043
      78    H37     21.112134   21.782622   19.983047 H          1 MOL1         0.0783
      79    O19     22.726064   23.037397   19.608170 O.3        1 MOL1        -0.3740
      80    C24     20.590938   23.151395   18.426859 C.3        1 MOL1         0.0138
      81    H38     19.647881   22.591305   18.391391 H          1 MOL1         0.0794
      82    H39     21.217824   22.774639   17.607678 H          1 MOL1         0.0794
      83    O20     20.321657   24.545658   18.241598 O.3        1 MOL1        -0.5486
      84    H40     19.455807   24.728265   18.669314 H          1 MOL1         0.3769
      85    C25     24.788585   17.695444   22.409281 C.3        1 MOL1         0.2972
      86    H41     25.376063   16.869477   22.830280 H          1 MOL1         0.0751
      87    O21     23.640118   17.216532   21.681300 O.3        1 MOL1        -0.3740
      88    C26     24.311150   18.650685   23.532734 C.3        1 MOL1         0.1003
      89    H42     25.209571   19.069596   24.004602 H          1 MOL1         0.0783
      90    O22     23.534332   17.964126   24.527325 O.3        1 MOL1        -0.5519
      91    H43     23.620086   16.996452   24.347363 H          1 MOL1         0.3769
      92    C27     23.488977   19.817830   22.942739 C.3        1 MOL1         0.1053
      93    H44     22.557333   19.401951   22.543598 H          1 MOL1         0.0783
      94    O23     23.188454   20.745763   23.989154 O.3        1 MOL1        -0.5519
      95    H45     22.878372   20.181963   24.733758 H          1 MOL1         0.3769
      96    C28     24.232433   20.528546   21.782904 C.3        1 MOL1         0.1018
      97    H46     25.002875   21.180630   22.213782 H          1 MOL1         0.0783
      98    C29     24.901084   19.532792   20.787918 C.3        1 MOL1         0.1043
      99    H47     24.116660   19.079794   20.172058 H          1 MOL1         0.0783
     100    O24     25.595639   18.477921   21.503495 O.3        1 MOL1        -0.3740
     101    C30     25.898145   20.206947   19.815691 C.3        1 MOL1         0.0138
     102    H48     25.327948   20.813395   19.099060 H          1 MOL1         0.0794
     103    H49     26.411496   19.423199   19.242653 H          1 MOL1         0.0794
     104    O25     26.851500   21.030183   20.499344 O.3        1 MOL1        -0.5486
     105    H50     27.496052   21.355625   19.833521 H          1 MOL1         0.3769
     106    C31     21.416913   13.757486   21.131758 C.3        1 MOL1         0.2972
     107    H51     21.062986   12.738736   20.929782 H          1 MOL1         0.0751
     108    O26     20.325024   14.686003   21.284536 O.3        1 MOL1        -0.3740
     109    C32     22.237713   13.779717   22.443095 C.3        1 MOL1         0.1003
     110    H52     23.096744   13.110244   22.304757 H          1 MOL1         0.0783
     111    O27     21.444105   13.309152   23.544565 O.3        1 MOL1        -0.5519
     112    H53     20.510892   13.593258   23.374464 H          1 MOL1         0.3769
     113    C33     22.781570   15.199078   22.736109 C.3        1 MOL1         0.1053
     114    H54     21.927321   15.849202   22.969793 H          1 MOL1         0.0783
     115    O28     23.660037   15.126067   23.864020 O.3        1 MOL1        -0.5519
     116    H55     23.208767   14.518223   24.493681 H          1 MOL1         0.3769
     117    C34     23.519291   15.791300   21.503778 C.3        1 MOL1         0.1018
     118    H56     24.501897   15.312984   21.404299 H          1 MOL1         0.0783
     119    C35     22.718684   15.593532   20.186401 C.3        1 MOL1         0.1043
     120    H57     21.842543   16.248090   20.227395 H          1 MOL1         0.0783
     121    O29     22.269336   14.220911   20.064297 O.3        1 MOL1        -0.3740
     122    C36     23.505600   15.982977   18.910947 C.3        1 MOL1         0.0138
     123    H58     23.571764   17.078403   18.863956 H          1 MOL1         0.0794
     124    H59     22.931162   15.657479   18.033835 H          1 MOL1         0.0794
     125    O30     24.821268   15.416536   18.876629 O.3        1 MOL1        -0.5486
     126    H60     25.372169   15.919740   19.514074 H          1 MOL1         0.3769
     127    C1      19.686932   19.713226   21.478361 C.3        1 MOL1        -0.1693
     128    H1      18.881215   19.965670   22.176183 H          1 MOL1         0.0829
     129    H2      20.507399   20.420299   21.641727 H          1 MOL1         0.0829
     130    C2      19.265266   19.497439   19.984303 C.3        1 MOL1        -0.1768
     131    H3      18.259483   19.081115   19.853460 H          1 MOL1         0.0829
     132    H4      19.385094   20.344931   19.304461 H          1 MOL1         0.0829
     133    C3      20.403712   18.442533   19.916702 C.3        1 MOL1         0.1211
     134    H5      20.193213   17.589167   19.263252 H          1 MOL1         0.0786
     135    C4      20.120060   18.210101   21.434294 C.3        1 MOL1        -0.1768
     136    H6      19.309911   17.501490   21.639596 H          1 MOL1         0.0829
     137    H7      20.980068   17.929469   22.049121 H          1 MOL1         0.0829
     138    O1      21.674848   18.968959   19.606771 O.3        1 MOL1        -0.5515
     139    H8      21.858360   19.685463   20.248360 H          1 MOL1         0.3773
@<TRIPOS>BOND
    1     1     2    1
    2     1     3    1
    3     1     4    1
    4     4     5    1
    5     4     6    1
    6     6     7    1
    7     4     8    1
    8     8     9    1
    9     8    10    1
   10    10    11    1
   11     8    12    1
   12    12    13    1
   13    12    14    1
   14    14    15    1
   15     1    16    1
   16    14    16    1
   17    14    17    1
   18    17    18    1
   19    17    19    1
   20    17    20    1
   21    20    21    1
   22    22    23    1
   23    22    24    1
   24    22    25    1
   25    25    26    1
   26    25    27    1
   27    27    28    1
   28    25    29    1
   29    29    30    1
   30    29    31    1
   31    31    32    1
   32     3    33    1
   33    29    33    1
   34    33    34    1
   35    33    35    1
   36    35    36    1
   37    22    37    1
   38    35    37    1
   39    35    38    1
   40    38    39    1
   41    38    40    1
   42    38    41    1
   43    41    42    1
   44    43    44    1
   45    43    45    1
   46    43    46    1
   47    46    47    1
   48    46    48    1
   49    48    49    1
   50    46    50    1
   51    50    51    1
   52    50    52    1
   53    52    53    1
   54    24    54    1
   55    50    54    1
   56    54    55    1
   57    54    56    1
   58    56    57    1
   59    43    58    1
   60    56    58    1
   61    56    59    1
   62    59    60    1
   63    59    61    1
   64    59    62    1
   65    62    63    1
   66    64    65    1
   67    64    66    1
   68    64    67    1
   69    67    68    1
   70    67    69    1
   71    69    70    1
   72    67    71    1
   73    71    72    1
   74    71    73    1
   75    73    74    1
   76    45    75    1
   77    71    75    1
   78    75    76    1
   79    75    77    1
   80    77    78    1
   81    64    79    1
   82    77    79    1
   83    77    80    1
   84    80    81    1
   85    80    82    1
   86    80    83    1
   87    83    84    1
   88    85    86    1
   89    85    87    1
   90    85    88    1
   91    88    89    1
   92    88    90    1
   93    90    91    1
   94    88    92    1
   95    92    93    1
   96    92    94    1
   97    94    95    1
   98    66    96    1
   99    92    96    1
  100    96    97    1
  101    96    98    1
  102    98    99    1
  103    85   100    1
  104    98   100    1
  105    98   101    1
  106   101   102    1
  107   101   103    1
  108   101   104    1
  109   104   105    1
  110   106   107    1
  111    12   108    1
  112   106   108    1
  113   106   109    1
  114   109   110    1
  115   109   111    1
  116   111   112    1
  117   109   113    1
  118   113   114    1
  119   113   115    1
  120   115   116    1
  121    87   117    1
  122   113   117    1
  123   117   118    1
  124   117   119    1
  125   119   120    1
  126   106   121    1
  127   119   121    1
  128   119   122    1
  129   122   123    1
  130   122   124    1
  131   122   125    1
  132   125   126    1
  133   127   128    1
  134   127   129    1
  135   127   130    1
  136   130   131    1
  137   130   132    1
  138   130   133    1
  139   133   134    1
  140   127   135    1
  141   133   135    1
  142   135   136    1
  143   135   137    1
  144   133   138    1
  145   138   139    1
@<TRIPOS>SUBSTRUCTURE
       1 MOL1            1 RESIDUE      1      MOL     
       2 MOL1          139 RESIDUE      1      MOL     
@<SCITEGIC>MOL_PROPERTY
feprocess Rank
SciTegic.value.IntegerValue
48

@<SCITEGIC>MOL_PROPERTY
Conf_Id
SciTegic.value.IntegerValue
235

@<SCITEGIC>MOL_PROPERTY
Probability
SciTegic.value.DoubleValue
0.24

@<SCITEGIC>MOL_PROPERTY
G
SciTegic.value.DoubleValue
547.638

@<SCITEGIC>MOL_PROPERTY
E
SciTegic.value.DoubleValue
368.903

@<SCITEGIC>MOL_PROPERTY
-TS
SciTegic.value.DoubleValue
178.735

@<SCITEGIC>MOL_PROPERTY
U+W
SciTegic.value.DoubleValue
246.392

@<SCITEGIC>MOL_PROPERTY
U
SciTegic.value.DoubleValue
284.319

@<SCITEGIC>MOL_PROPERTY
W
SciTegic.value.DoubleValue
-37.927

@<SCITEGIC>MOL_PROPERTY
W(PB)
SciTegic.value.DoubleValue
-43.925

@<SCITEGIC>MOL_PROPERTY
W(SA)
SciTegic.value.DoubleValue
5.998

@<SCITEGIC>MOL_PROPERTY
Valence
SciTegic.value.DoubleValue
153.345

@<SCITEGIC>MOL_PROPERTY
Coulomb
SciTegic.value.DoubleValue
151.769

@<SCITEGIC>MOL_PROPERTY
VdW
SciTegic.value.DoubleValue
-20.794

@<SCITEGIC>MOL_PROPERTY
VdW6
SciTegic.value.DoubleValue
-171.648

@<SCITEGIC>MOL_PROPERTY
VdW12
SciTegic.value.DoubleValue
150.854

@<SCITEGIC>MOL_PROPERTY
Bond
SciTegic.value.DoubleValue
4.841

@<SCITEGIC>MOL_PROPERTY
Angle
SciTegic.value.DoubleValue
12.808

@<SCITEGIC>MOL_PROPERTY
Pdih
SciTegic.value.DoubleValue
135.695

@<SCITEGIC>MOL_PROPERTY
Idih
SciTegic.value.DoubleValue
0.000

@<SCITEGIC>MOL_PROPERTY
Tether
SciTegic.value.DoubleValue
0.000

@<TRIPOS>MOLECULE
CD_guest-s16_fast_vm2_rndm.mol2 : feprocess host+ligand conformer 49
         139         145           2
SMALL
USER_CHARGES
 
@<TRIPOS>ATOM
       1    C1      16.399996   15.585117   20.014186 C.3        1 MOL1         0.2972
       2    H1      15.441881   15.498560   19.485843 H          1 MOL1         0.0751
       3    O1      16.520138   16.857839   20.680787 O.3        1 MOL1        -0.3740
       4    C2      16.592569   14.427175   21.035436 C.3        1 MOL1         0.1003
       5    H2      16.607778   13.493512   20.458133 H          1 MOL1         0.0783
       6    O2      15.522182   14.355087   21.988078 O.3        1 MOL1        -0.5519
       7    H3      15.558535   15.185325   22.526339 H          1 MOL1         0.3769
       8    C3      17.959088   14.559266   21.753218 C.3        1 MOL1         0.1053
       9    H4      17.950129   15.480891   22.351572 H          1 MOL1         0.0783
      10    O3      18.172983   13.428867   22.605439 O.3        1 MOL1        -0.5519
      11    H5      17.313138   13.281957   23.059407 H          1 MOL1         0.3769
      12    C4      19.101762   14.662921   20.713644 C.3        1 MOL1         0.1018
      13    H6      19.212424   13.689687   20.217133 H          1 MOL1         0.0783
      14    C5      18.815643   15.743382   19.636403 C.3        1 MOL1         0.1043
      15    H7      18.835719   16.728034   20.121075 H          1 MOL1         0.0783
      16    O4      17.498068   15.506019   19.074678 O.3        1 MOL1        -0.3740
      17    C6      19.855101   15.792725   18.485803 C.3        1 MOL1         0.0138
      18    H8      20.652647   16.490310   18.770593 H          1 MOL1         0.0794
      19    H9      19.371015   16.213800   17.594563 H          1 MOL1         0.0794
      20    O5      20.425443   14.513880   18.178553 O.3        1 MOL1        -0.5486
      21    H10     21.006845   14.262019   18.933425 H          1 MOL1         0.3769
      22    C7      14.778254   20.189229   22.241985 C.3        1 MOL1         0.2972
      23    H11     14.155161   20.988792   22.663295 H          1 MOL1         0.0751
      24    O6      16.108556   20.660569   21.949049 O.3        1 MOL1        -0.3740
      25    C8      14.862730   19.011195   23.242284 C.3        1 MOL1         0.1003
      26    H12     13.844393   18.625928   23.381900 H          1 MOL1         0.0783
      27    O7      15.385625   19.440282   24.508613 O.3        1 MOL1        -0.5519
      28    H13     16.313487   19.742988   24.347433 H          1 MOL1         0.3769
      29    C9      15.736498   17.873383   22.677578 C.3        1 MOL1         0.1053
      30    H14     16.763090   18.247102   22.632696 H          1 MOL1         0.0783
      31    O8      15.676560   16.750209   23.561652 O.3        1 MOL1        -0.5519
      32    H15     15.804128   17.129082   24.460414 H          1 MOL1         0.3769
      33    C10     15.335740   17.461220   21.239326 C.3        1 MOL1         0.1018
      34    H16     14.487317   16.765745   21.281785 H          1 MOL1         0.0783
      35    C11     15.002143   18.675818   20.324876 C.3        1 MOL1         0.1043
      36    H17     15.958394   19.125617   20.035292 H          1 MOL1         0.0783
      37    O9      14.209235   19.677421   21.017595 O.3        1 MOL1        -0.3740
      38    C12     14.272428   18.282666   19.018708 C.3        1 MOL1         0.0138
      39    H18     14.976059   17.734558   18.377724 H          1 MOL1         0.0794
      40    H19     13.990076   19.199268   18.483423 H          1 MOL1         0.0794
      41    O10     13.115446   17.476471   19.270697 O.3        1 MOL1        -0.5486
      42    H20     12.660615   17.330070   18.412505 H          1 MOL1         0.3769
      43    C13     18.364881   24.050082   21.280002 C.3        1 MOL1         0.2972
      44    H21     18.758152   25.049350   21.053188 H          1 MOL1         0.0751
      45    O11     19.422980   23.098446   21.509121 O.3        1 MOL1        -0.3740
      46    C14     17.501013   24.107487   22.559637 C.3        1 MOL1         0.1003
      47    H22     16.668511   24.796930   22.367920 H          1 MOL1         0.0783
      48    O12     18.280522   24.595503   23.663866 O.3        1 MOL1        -0.5519
      49    H23     19.222057   24.354614   23.479010 H          1 MOL1         0.3769
      50    C15     16.907414   22.717738   22.888021 C.3        1 MOL1         0.1053
      51    H24     17.731216   22.064428   23.202288 H          1 MOL1         0.0783
      52    O13     15.965507   22.858529   23.955173 O.3        1 MOL1        -0.5519
      53    H25     16.435474   23.372328   24.647866 H          1 MOL1         0.3769
      54    C16     16.223231   22.068003   21.656432 C.3        1 MOL1         0.1018
      55    H26     15.243636   22.542610   21.514475 H          1 MOL1         0.0783
      56    C17     17.057405   22.205713   20.347965 C.3        1 MOL1         0.1043
      57    H27     17.918022   21.533027   20.428323 H          1 MOL1         0.0783
      58    O14     17.536412   23.566455   20.201919 O.3        1 MOL1        -0.3740
      59    C18     16.309525   21.812448   19.045584 C.3        1 MOL1         0.0138
      60    H28     16.536275   20.765180   18.813726 H          1 MOL1         0.0794
      61    H29     16.715716   22.406821   18.216072 H          1 MOL1         0.0794
      62    O15     14.890176   21.993304   19.123101 O.3        1 MOL1        -0.5486
      63    H30     14.540820   21.318461   19.751144 H          1 MOL1         0.3769
      64    C19     23.486614   22.516447   20.681040 C.3        1 MOL1         0.2972
      65    H31     24.507183   22.639881   20.296219 H          1 MOL1         0.0751
      66    O16     23.308772   21.236841   21.317722 O.3        1 MOL1        -0.3740
      67    C20     23.154036   23.614463   21.726183 C.3        1 MOL1         0.1003
      68    H32     23.275014   24.586324   21.230356 H          1 MOL1         0.0783
      69    O17     24.046117   23.544852   22.850599 O.3        1 MOL1        -0.5519
      70    H33     24.084894   22.598017   23.140402 H          1 MOL1         0.3769
      71    C21     21.682733   23.499027   22.197865 C.3        1 MOL1         0.1053
      72    H34     21.574517   22.561440   22.760572 H          1 MOL1         0.0783
      73    O18     21.356302   24.610427   23.039448 O.3        1 MOL1        -0.5519
      74    H35     22.116984   24.696382   23.656430 H          1 MOL1         0.3769
      75    C22     20.717171   23.451794   20.989061 C.3        1 MOL1         0.1018
      76    H36     20.714100   24.437852   20.506044 H          1 MOL1         0.0783
      77    C23     21.150656   22.375985   19.956051 C.3        1 MOL1         0.1043
      78    H37     21.060277   21.388898   20.425251 H          1 MOL1         0.0783
      79    O19     22.533602   22.613010   19.598999 O.3        1 MOL1        -0.3740
      80    C24     20.310248   22.335979   18.653542 C.3        1 MOL1         0.0138
      81    H38     19.460731   21.659438   18.806384 H          1 MOL1         0.0794
      82    H39     20.924270   21.895407   17.856775 H          1 MOL1         0.0794
      83    O20     19.831325   23.623173   18.247687 O.3        1 MOL1        -0.5486
      84    H40     19.041687   23.821869   18.802174 H          1 MOL1         0.3769
      85    C25     25.181006   17.616273   21.946136 C.3        1 MOL1         0.2972
      86    H41     25.869155   16.770864   22.072401 H          1 MOL1         0.0751
      87    O21     23.802524   17.195135   21.926996 O.3        1 MOL1        -0.3740
      88    C26     25.341399   18.627915   23.107448 C.3        1 MOL1         0.1003
      89    H42     26.367035   19.017508   23.069904 H          1 MOL1         0.0783
      90    O22     25.122217   17.991404   24.376771 O.3        1 MOL1        -0.5519
      91    H43     24.390673   17.334619   24.256017 H          1 MOL1         0.3769
      92    C27     24.369174   19.817835   22.922763 C.3        1 MOL1         0.1053
      93    H44     23.346767   19.438169   23.034371 H          1 MOL1         0.0783
      94    O23     24.625565   20.808678   23.923521 O.3        1 MOL1        -0.5519
      95    H45     24.706504   20.304667   24.763862 H          1 MOL1         0.3769
      96    C28     24.498566   20.448789   21.514195 C.3        1 MOL1         0.1018
      97    H46     25.406979   21.065597   21.498650 H          1 MOL1         0.0783
      98    C29     24.550924   19.389822   20.374291 C.3        1 MOL1         0.1043
      99    H47     23.544312   18.970980   20.249300 H          1 MOL1         0.0783
     100    O24     25.464734   18.319266   20.718645 O.3        1 MOL1        -0.3740
     101    C30     24.977412   19.970146   19.004252 C.3        1 MOL1         0.0138
     102    H48     24.154527   20.583141   18.612753 H          1 MOL1         0.0794
     103    H49     25.124805   19.138159   18.302726 H          1 MOL1         0.0794
     104    O25     26.170014   20.759602   19.097609 O.3        1 MOL1        -0.5486
     105    H50     26.420210   21.029887   18.187175 H          1 MOL1         0.3769
     106    C31     21.243415   13.981103   21.634422 C.3        1 MOL1         0.2972
     107    H51     20.763574   12.995425   21.574478 H          1 MOL1         0.0751
     108    O26     20.296478   15.044429   21.416681 O.3        1 MOL1        -0.3740
     109    C32     21.875543   14.169653   23.033810 C.3        1 MOL1         0.1003
     110    H52     22.638533   13.390786   23.161812 H          1 MOL1         0.0783
     111    O27     20.877499   14.033414   24.058527 O.3        1 MOL1        -0.5519
     112    H53     19.998793   14.059388   23.606753 H          1 MOL1         0.3769
     113    C33     22.569383   15.546248   23.134696 C.3        1 MOL1         0.1053
     114    H54     21.789667   16.315281   23.089883 H          1 MOL1         0.0783
     115    O28     23.263598   15.645210   24.381703 O.3        1 MOL1        -0.5519
     116    H55     22.629654   15.300488   25.049974 H          1 MOL1         0.3769
     117    C34     23.551489   15.777637   21.959351 C.3        1 MOL1         0.1018
     118    H56     24.463474   15.195005   22.143978 H          1 MOL1         0.0783
     119    C35     22.947668   15.393545   20.579119 C.3        1 MOL1         0.1043
     120    H57     22.213301   16.163502   20.313946 H          1 MOL1         0.0783
     121    O29     22.282570   14.104768   20.641723 O.3        1 MOL1        -0.3740
     122    C36     23.997213   15.345983   19.443401 C.3        1 MOL1         0.0138
     123    H58     24.344456   16.368747   19.245647 H          1 MOL1         0.0794
     124    H59     23.509583   14.984349   18.528138 H          1 MOL1         0.0794
     125    O30     25.112778   14.510700   19.777332 O.3        1 MOL1        -0.5486
     126    H60     25.720145   14.502579   19.005796 H          1 MOL1         0.3769
     127    C1      20.681346   18.752876   21.934349 C.3        1 MOL1        -0.1693
     128    H1      20.685704   17.685855   21.685600 H          1 MOL1         0.0829
     129    H2      21.439636   19.254467   21.325414 H          1 MOL1         0.0829
     130    C2      20.701188   19.079183   23.465282 C.3        1 MOL1        -0.1768
     131    H3      21.257354   18.383910   24.103089 H          1 MOL1         0.0829
     132    H4      21.010642   20.103057   23.708932 H          1 MOL1         0.0829
     133    C3      19.161294   18.856057   23.402237 C.3        1 MOL1         0.1211
     134    H5      18.863790   17.800099   23.459259 H          1 MOL1         0.0786
     135    C4      19.263553   19.406099   21.948415 C.3        1 MOL1        -0.1768
     136    H6      19.265985   20.497989   21.882258 H          1 MOL1         0.0829
     137    H7      18.537571   19.007722   21.231896 H          1 MOL1         0.0829
     138    O1      18.391075   19.638854   24.284693 O.3        1 MOL1        -0.5515
     139    H8      18.835909   20.506816   24.345557 H          1 MOL1         0.3773
@<TRIPOS>BOND
    1     1     2    1
    2     1     3    1
    3     1     4    1
    4     4     5    1
    5     4     6    1
    6     6     7    1
    7     4     8    1
    8     8     9    1
    9     8    10    1
   10    10    11    1
   11     8    12    1
   12    12    13    1
   13    12    14    1
   14    14    15    1
   15     1    16    1
   16    14    16    1
   17    14    17    1
   18    17    18    1
   19    17    19    1
   20    17    20    1
   21    20    21    1
   22    22    23    1
   23    22    24    1
   24    22    25    1
   25    25    26    1
   26    25    27    1
   27    27    28    1
   28    25    29    1
   29    29    30    1
   30    29    31    1
   31    31    32    1
   32     3    33    1
   33    29    33    1
   34    33    34    1
   35    33    35    1
   36    35    36    1
   37    22    37    1
   38    35    37    1
   39    35    38    1
   40    38    39    1
   41    38    40    1
   42    38    41    1
   43    41    42    1
   44    43    44    1
   45    43    45    1
   46    43    46    1
   47    46    47    1
   48    46    48    1
   49    48    49    1
   50    46    50    1
   51    50    51    1
   52    50    52    1
   53    52    53    1
   54    24    54    1
   55    50    54    1
   56    54    55    1
   57    54    56    1
   58    56    57    1
   59    43    58    1
   60    56    58    1
   61    56    59    1
   62    59    60    1
   63    59    61    1
   64    59    62    1
   65    62    63    1
   66    64    65    1
   67    64    66    1
   68    64    67    1
   69    67    68    1
   70    67    69    1
   71    69    70    1
   72    67    71    1
   73    71    72    1
   74    71    73    1
   75    73    74    1
   76    45    75    1
   77    71    75    1
   78    75    76    1
   79    75    77    1
   80    77    78    1
   81    64    79    1
   82    77    79    1
   83    77    80    1
   84    80    81    1
   85    80    82    1
   86    80    83    1
   87    83    84    1
   88    85    86    1
   89    85    87    1
   90    85    88    1
   91    88    89    1
   92    88    90    1
   93    90    91    1
   94    88    92    1
   95    92    93    1
   96    92    94    1
   97    94    95    1
   98    66    96    1
   99    92    96    1
  100    96    97    1
  101    96    98    1
  102    98    99    1
  103    85   100    1
  104    98   100    1
  105    98   101    1
  106   101   102    1
  107   101   103    1
  108   101   104    1
  109   104   105    1
  110   106   107    1
  111    12   108    1
  112   106   108    1
  113   106   109    1
  114   109   110    1
  115   109   111    1
  116   111   112    1
  117   109   113    1
  118   113   114    1
  119   113   115    1
  120   115   116    1
  121    87   117    1
  122   113   117    1
  123   117   118    1
  124   117   119    1
  125   119   120    1
  126   106   121    1
  127   119   121    1
  128   119   122    1
  129   122   123    1
  130   122   124    1
  131   122   125    1
  132   125   126    1
  133   127   128    1
  134   127   129    1
  135   127   130    1
  136   130   131    1
  137   130   132    1
  138   130   133    1
  139   133   134    1
  140   127   135    1
  141   133   135    1
  142   135   136    1
  143   135   137    1
  144   133   138    1
  145   138   139    1
@<TRIPOS>SUBSTRUCTURE
       1 MOL1            1 RESIDUE      1      MOL     
       2 MOL1          139 RESIDUE      1      MOL     
@<SCITEGIC>MOL_PROPERTY
feprocess Rank
SciTegic.value.IntegerValue
49

@<SCITEGIC>MOL_PROPERTY
Conf_Id
SciTegic.value.IntegerValue
194

@<SCITEGIC>MOL_PROPERTY
Probability
SciTegic.value.DoubleValue
0.24

@<SCITEGIC>MOL_PROPERTY
G
SciTegic.value.DoubleValue
547.658

@<SCITEGIC>MOL_PROPERTY
E
SciTegic.value.DoubleValue
369.086

@<SCITEGIC>MOL_PROPERTY
-TS
SciTegic.value.DoubleValue
178.571

@<SCITEGIC>MOL_PROPERTY
U+W
SciTegic.value.DoubleValue
246.575

@<SCITEGIC>MOL_PROPERTY
U
SciTegic.value.DoubleValue
285.265

@<SCITEGIC>MOL_PROPERTY
W
SciTegic.value.DoubleValue
-38.690

@<SCITEGIC>MOL_PROPERTY
W(PB)
SciTegic.value.DoubleValue
-44.619

@<SCITEGIC>MOL_PROPERTY
W(SA)
SciTegic.value.DoubleValue
5.929

@<SCITEGIC>MOL_PROPERTY
Valence
SciTegic.value.DoubleValue
154.071

@<SCITEGIC>MOL_PROPERTY
Coulomb
SciTegic.value.DoubleValue
153.153

@<SCITEGIC>MOL_PROPERTY
VdW
SciTegic.value.DoubleValue
-21.960

@<SCITEGIC>MOL_PROPERTY
VdW6
SciTegic.value.DoubleValue
-168.880

@<SCITEGIC>MOL_PROPERTY
VdW12
SciTegic.value.DoubleValue
146.920

@<SCITEGIC>MOL_PROPERTY
Bond
SciTegic.value.DoubleValue
4.597

@<SCITEGIC>MOL_PROPERTY
Angle
SciTegic.value.DoubleValue
12.526

@<SCITEGIC>MOL_PROPERTY
Pdih
SciTegic.value.DoubleValue
136.949

@<SCITEGIC>MOL_PROPERTY
Idih
SciTegic.value.DoubleValue
0.000

@<SCITEGIC>MOL_PROPERTY
Tether
SciTegic.value.DoubleValue
0.000

@<TRIPOS>MOLECULE
CD_guest-s16_fast_vm2_rndm.mol2 : feprocess host+ligand conformer 50
         139         145           2
SMALL
USER_CHARGES
 
@<TRIPOS>ATOM
       1    C1      15.999804   14.950301   20.943419 C.3        1 MOL1         0.2972
       2    H1      14.941706   14.739391   20.743915 H          1 MOL1         0.0751
       3    O1      16.229328   16.344883   21.220557 O.3        1 MOL1        -0.3740
       4    C2      16.474981   14.161906   22.185561 C.3        1 MOL1         0.1003
       5    H2      16.359518   13.092796   21.964284 H          1 MOL1         0.0783
       6    O2      15.673920   14.502445   23.328895 O.3        1 MOL1        -0.5519
       7    H3      15.476325   15.469662   23.263699 H          1 MOL1         0.3769
       8    C3      17.971560   14.435414   22.476508 C.3        1 MOL1         0.1053
       9    H4      18.068252   15.477951   22.810854 H          1 MOL1         0.0783
      10    O3      18.401805   13.549968   23.515978 O.3        1 MOL1        -0.5519
      11    H5      17.663318   13.548524   24.167121 H          1 MOL1         0.3769
      12    C4      18.850792   14.253963   21.207907 C.3        1 MOL1         0.1018
      13    H6      19.000260   13.182482   21.024028 H          1 MOL1         0.0783
      14    C5      18.223779   14.903468   19.942113 C.3        1 MOL1         0.1043
      15    H7      18.302983   15.990517   20.045098 H          1 MOL1         0.0783
      16    O4      16.823204   14.552783   19.828141 O.3        1 MOL1        -0.3740
      17    C6      18.947840   14.528927   18.625482 C.3        1 MOL1         0.0138
      18    H8      19.916717   15.045795   18.601001 H          1 MOL1         0.0794
      19    H9      18.356523   14.909683   17.782357 H          1 MOL1         0.0794
      20    O5      19.149731   13.117691   18.484977 O.3        1 MOL1        -0.5486
      21    H10     19.881605   12.862663   19.086888 H          1 MOL1         0.3769
      22    C7      14.806722   20.177053   20.627682 C.3        1 MOL1         0.2972
      23    H11     14.229709   21.077643   20.382152 H          1 MOL1         0.0751
      24    O6      16.188227   20.500365   20.912679 O.3        1 MOL1        -0.3740
      25    C8      14.171485   19.418099   21.825786 C.3        1 MOL1         0.1003
      26    H12     13.169441   19.100716   21.508897 H          1 MOL1         0.0783
      27    O7      14.042714   20.247586   22.989487 O.3        1 MOL1        -0.5519
      28    H13     14.961374   20.481839   23.275677 H          1 MOL1         0.3769
      29    C9      14.989786   18.145825   22.149714 C.3        1 MOL1         0.1053
      30    H14     15.983714   18.458367   22.499337 H          1 MOL1         0.0783
      31    O8      14.332403   17.390419   23.173711 O.3        1 MOL1        -0.5519
      32    H15     14.066061   18.051201   23.850989 H          1 MOL1         0.3769
      33    C10     15.172533   17.262806   20.890893 C.3        1 MOL1         0.1018
      34    H16     14.223429   16.749977   20.688313 H          1 MOL1         0.0783
      35    C11     15.612879   18.082351   19.644435 C.3        1 MOL1         0.1043
      36    H17     16.649689   18.394095   19.798892 H          1 MOL1         0.0783
      37    O9      14.788449   19.266207   19.507259 O.3        1 MOL1        -0.3740
      38    C12     15.575075   17.298928   18.309264 C.3        1 MOL1         0.0138
      39    H18     16.451724   16.640536   18.261655 H          1 MOL1         0.0794
      40    H19     15.670951   18.017662   17.484604 H          1 MOL1         0.0794
      41    O10     14.378998   16.527326   18.149636 O.3        1 MOL1        -0.5486
      42    H20     14.563417   15.628339   18.496996 H          1 MOL1         0.3769
      43    C13     18.603689   23.715768   22.091743 C.3        1 MOL1         0.2972
      44    H21     18.953393   24.685694   22.467681 H          1 MOL1         0.0751
      45    O11     19.677590   22.965495   21.492127 O.3        1 MOL1        -0.3740
      46    C14     17.975035   22.886464   23.244479 C.3        1 MOL1         0.1003
      47    H22     17.141553   23.478845   23.644075 H          1 MOL1         0.0783
      48    O12     18.915062   22.635407   24.301185 O.3        1 MOL1        -0.5519
      49    H23     19.670145   23.258614   24.171303 H          1 MOL1         0.3769
      50    C15     17.401215   21.548313   22.723928 C.3        1 MOL1         0.1053
      51    H24     18.238884   20.927247   22.381335 H          1 MOL1         0.0783
      52    O13     16.721662   20.893821   23.799317 O.3        1 MOL1        -0.5519
      53    H25     17.351274   20.949919   24.553766 H          1 MOL1         0.3769
      54    C16     16.438831   21.781308   21.531937 C.3        1 MOL1         0.1018
      55    H26     15.515517   22.238003   21.912467 H          1 MOL1         0.0783
      56    C17     17.071208   22.709655   20.457337 C.3        1 MOL1         0.1043
      57    H27     17.895254   22.165852   19.977112 H          1 MOL1         0.0783
      58    O14     17.590501   23.912122   21.082059 O.3        1 MOL1        -0.3740
      59    C18     16.081900   23.129295   19.343662 C.3        1 MOL1         0.0138
      60    H28     15.871391   22.252497   18.716317 H          1 MOL1         0.0794
      61    H29     16.570384   23.877513   18.705149 H          1 MOL1         0.0794
      62    O15     14.857428   23.650830   19.875914 O.3        1 MOL1        -0.5486
      63    H30     14.318168   23.973486   19.121157 H          1 MOL1         0.3769
      64    C19     23.843147   23.040655   21.352332 C.3        1 MOL1         0.2972
      65    H31     24.900812   23.303819   21.226215 H          1 MOL1         0.0751
      66    O16     23.676193   21.649128   21.676962 O.3        1 MOL1        -0.3740
      67    C20     23.232063   23.833447   22.532186 C.3        1 MOL1         0.1003
      68    H32     23.316485   24.902094   22.295372 H          1 MOL1         0.0783
      69    O17     23.953511   23.551840   23.741838 O.3        1 MOL1        -0.5519
      70    H33     24.144745   22.583119   23.728500 H          1 MOL1         0.3769
      71    C21     21.730454   23.493786   22.714491 C.3        1 MOL1         0.1053
      72    H34     21.650903   22.448536   23.046652 H          1 MOL1         0.0783
      73    O18     21.189895   24.366878   23.712668 O.3        1 MOL1        -0.5519
      74    H35     21.882049   24.408245   24.411656 H          1 MOL1         0.3769
      75    C22     20.952553   23.632603   21.376632 C.3        1 MOL1         0.1018
      76    H36     20.825819   24.697488   21.143555 H          1 MOL1         0.0783
      77    C23     21.693732   22.940114   20.200128 C.3        1 MOL1         0.1043
      78    H37     21.656566   21.857923   20.365466 H          1 MOL1         0.0783
      79    O19     23.081660   23.354842   20.166876 O.3        1 MOL1        -0.3740
      80    C24     21.049429   23.206308   18.816664 C.3        1 MOL1         0.0138
      81    H38     20.126034   22.616072   18.743950 H          1 MOL1         0.0794
      82    H39     21.728913   22.840260   18.036154 H          1 MOL1         0.0794
      83    O20     20.753726   24.590864   18.599164 O.3        1 MOL1        -0.5486
      84    H40     19.981546   24.818108   19.160861 H          1 MOL1         0.3769
      85    C25     24.971078   17.802291   20.934907 C.3        1 MOL1         0.2972
      86    H41     25.530796   16.897721   20.666306 H          1 MOL1         0.0751
      87    O21     23.573190   17.500338   21.168622 O.3        1 MOL1        -0.3740
      88    C26     25.599439   18.481958   22.181439 C.3        1 MOL1         0.1003
      89    H42     26.627836   18.755480   21.911663 H          1 MOL1         0.0783
      90    O22     25.639695   17.603607   23.316128 O.3        1 MOL1        -0.5519
      91    H43     24.700306   17.392515   23.548961 H          1 MOL1         0.3769
      92    C27     24.842937   19.783348   22.531758 C.3        1 MOL1         0.1053
      93    H44     23.830573   19.508604   22.859251 H          1 MOL1         0.0783
      94    O23     25.525188   20.460718   23.593652 O.3        1 MOL1        -0.5519
      95    H45     25.724232   19.764102   24.257568 H          1 MOL1         0.3769
      96    C28     24.717346   20.726870   21.307837 C.3        1 MOL1         0.1018
      97    H46     25.680951   21.230837   21.160033 H          1 MOL1         0.0783
      98    C29     24.290778   19.974443   20.010850 C.3        1 MOL1         0.1043
      99    H47     23.233854   19.712736   20.107864 H          1 MOL1         0.0783
     100    O24     25.057371   18.755558   19.856706 O.3        1 MOL1        -0.3740
     101    C30     24.436430   20.784981   18.698914 C.3        1 MOL1         0.0138
     102    H48     23.574252   21.453071   18.594467 H          1 MOL1         0.0794
     103    H49     24.392943   20.083478   17.855129 H          1 MOL1         0.0794
     104    O25     25.650919   21.541651   18.639808 O.3        1 MOL1        -0.5486
     105    H50     25.460740   22.426355   19.019020 H          1 MOL1         0.3769
     106    C31     21.155792   14.178226   22.049959 C.3        1 MOL1         0.2972
     107    H51     20.804648   13.185810   22.360688 H          1 MOL1         0.0751
     108    O26     20.104044   14.935773   21.421877 O.3        1 MOL1        -0.3740
     109    C32     21.704458   14.962582   23.273888 C.3        1 MOL1         0.1003
     110    H52     22.524221   14.365430   23.694224 H          1 MOL1         0.0783
     111    O27     20.701236   15.154354   24.283895 O.3        1 MOL1        -0.5519
     112    H53     19.955725   14.540413   24.076441 H          1 MOL1         0.3769
     113    C33     22.281247   16.332111   22.848637 C.3        1 MOL1         0.1053
     114    H54     21.446593   16.951484   22.500000 H          1 MOL1         0.0783
     115    O28     22.902891   16.947357   23.980315 O.3        1 MOL1        -0.5519
     116    H55     22.235344   16.870685   24.698993 H          1 MOL1         0.3769
     117    C34     23.302159   16.178963   21.694871 C.3        1 MOL1         0.1018
     118    H56     24.208708   15.709703   22.099975 H          1 MOL1         0.0783
     119    C35     22.742217   15.295163   20.544726 C.3        1 MOL1         0.1043
     120    H57     21.929047   15.844524   20.052790 H          1 MOL1         0.0783
     121    O29     22.224570   14.052080   21.087665 O.3        1 MOL1        -0.3740
     122    C36     23.789318   14.948488   19.459260 C.3        1 MOL1         0.0138
     123    H58     24.014879   15.859339   18.888213 H          1 MOL1         0.0794
     124    H59     23.343057   14.228035   18.760718 H          1 MOL1         0.0794
     125    O30     24.995197   14.415484   20.021575 O.3        1 MOL1        -0.5486
     126    H60     25.571876   14.134526   19.277946 H          1 MOL1         0.3769
     127    C1      19.244830   18.649822   19.233682 C.3        1 MOL1        -0.1693
     128    H1      18.568738   19.453512   18.912893 H          1 MOL1         0.0829
     129    H2      19.060319   17.766963   18.611683 H          1 MOL1         0.0829
     130    C2      19.294187   18.413661   20.781253 C.3        1 MOL1        -0.1768
     131    H3      18.366962   18.591078   21.336386 H          1 MOL1         0.0829
     132    H4      19.707849   17.450624   21.091829 H          1 MOL1         0.0829
     133    C3      20.316921   19.581584   20.797232 C.3        1 MOL1         0.1211
     134    H5      19.840987   20.568340   20.796027 H          1 MOL1         0.0786
     135    C4      20.738437   19.081134   19.382382 C.3        1 MOL1        -0.1768
     136    H6      21.454548   18.250480   19.379465 H          1 MOL1         0.0829
     137    H7      21.087785   19.851681   18.687173 H          1 MOL1         0.0829
     138    O1      21.308140   19.514358   21.792356 O.3        1 MOL1        -0.5515
     139    H8      21.862113   18.725684   21.616879 H          1 MOL1         0.3773
@<TRIPOS>BOND
    1     1     2    1
    2     1     3    1
    3     1     4    1
    4     4     5    1
    5     4     6    1
    6     6     7    1
    7     4     8    1
    8     8     9    1
    9     8    10    1
   10    10    11    1
   11     8    12    1
   12    12    13    1
   13    12    14    1
   14    14    15    1
   15     1    16    1
   16    14    16    1
   17    14    17    1
   18    17    18    1
   19    17    19    1
   20    17    20    1
   21    20    21    1
   22    22    23    1
   23    22    24    1
   24    22    25    1
   25    25    26    1
   26    25    27    1
   27    27    28    1
   28    25    29    1
   29    29    30    1
   30    29    31    1
   31    31    32    1
   32     3    33    1
   33    29    33    1
   34    33    34    1
   35    33    35    1
   36    35    36    1
   37    22    37    1
   38    35    37    1
   39    35    38    1
   40    38    39    1
   41    38    40    1
   42    38    41    1
   43    41    42    1
   44    43    44    1
   45    43    45    1
   46    43    46    1
   47    46    47    1
   48    46    48    1
   49    48    49    1
   50    46    50    1
   51    50    51    1
   52    50    52    1
   53    52    53    1
   54    24    54    1
   55    50    54    1
   56    54    55    1
   57    54    56    1
   58    56    57    1
   59    43    58    1
   60    56    58    1
   61    56    59    1
   62    59    60    1
   63    59    61    1
   64    59    62    1
   65    62    63    1
   66    64    65    1
   67    64    66    1
   68    64    67    1
   69    67    68    1
   70    67    69    1
   71    69    70    1
   72    67    71    1
   73    71    72    1
   74    71    73    1
   75    73    74    1
   76    45    75    1
   77    71    75    1
   78    75    76    1
   79    75    77    1
   80    77    78    1
   81    64    79    1
   82    77    79    1
   83    77    80    1
   84    80    81    1
   85    80    82    1
   86    80    83    1
   87    83    84    1
   88    85    86    1
   89    85    87    1
   90    85    88    1
   91    88    89    1
   92    88    90    1
   93    90    91    1
   94    88    92    1
   95    92    93    1
   96    92    94    1
   97    94    95    1
   98    66    96    1
   99    92    96    1
  100    96    97    1
  101    96    98    1
  102    98    99    1
  103    85   100    1
  104    98   100    1
  105    98   101    1
  106   101   102    1
  107   101   103    1
  108   101   104    1
  109   104   105    1
  110   106   107    1
  111    12   108    1
  112   106   108    1
  113   106   109    1
  114   109   110    1
  115   109   111    1
  116   111   112    1
  117   109   113    1
  118   113   114    1
  119   113   115    1
  120   115   116    1
  121    87   117    1
  122   113   117    1
  123   117   118    1
  124   117   119    1
  125   119   120    1
  126   106   121    1
  127   119   121    1
  128   119   122    1
  129   122   123    1
  130   122   124    1
  131   122   125    1
  132   125   126    1
  133   127   128    1
  134   127   129    1
  135   127   130    1
  136   130   131    1
  137   130   132    1
  138   130   133    1
  139   133   134    1
  140   127   135    1
  141   133   135    1
  142   135   136    1
  143   135   137    1
  144   133   138    1
  145   138   139    1
@<TRIPOS>SUBSTRUCTURE
       1 MOL1            1 RESIDUE      1      MOL     
       2 MOL1          139 RESIDUE      1      MOL     
@<SCITEGIC>MOL_PROPERTY
feprocess Rank
SciTegic.value.IntegerValue
50

@<SCITEGIC>MOL_PROPERTY
Conf_Id
SciTegic.value.IntegerValue
534

@<SCITEGIC>MOL_PROPERTY
Probability
SciTegic.value.DoubleValue
0.22

@<SCITEGIC>MOL_PROPERTY
G
SciTegic.value.DoubleValue
547.701

@<SCITEGIC>MOL_PROPERTY
E
SciTegic.value.DoubleValue
370.039

@<SCITEGIC>MOL_PROPERTY
-TS
SciTegic.value.DoubleValue
177.662

@<SCITEGIC>MOL_PROPERTY
U+W
SciTegic.value.DoubleValue
247.528

@<SCITEGIC>MOL_PROPERTY
U
SciTegic.value.DoubleValue
286.775

@<SCITEGIC>MOL_PROPERTY
W
SciTegic.value.DoubleValue
-39.248

@<SCITEGIC>MOL_PROPERTY
W(PB)
SciTegic.value.DoubleValue
-45.316

@<SCITEGIC>MOL_PROPERTY
W(SA)
SciTegic.value.DoubleValue
6.068

@<SCITEGIC>MOL_PROPERTY
Valence
SciTegic.value.DoubleValue
151.594

@<SCITEGIC>MOL_PROPERTY
Coulomb
SciTegic.value.DoubleValue
156.410

@<SCITEGIC>MOL_PROPERTY
VdW
SciTegic.value.DoubleValue
-21.229

@<SCITEGIC>MOL_PROPERTY
VdW6
SciTegic.value.DoubleValue
-168.645

@<SCITEGIC>MOL_PROPERTY
VdW12
SciTegic.value.DoubleValue
147.416

@<SCITEGIC>MOL_PROPERTY
Bond
SciTegic.value.DoubleValue
4.706

@<SCITEGIC>MOL_PROPERTY
Angle
SciTegic.value.DoubleValue
12.938

@<SCITEGIC>MOL_PROPERTY
Pdih
SciTegic.value.DoubleValue
133.950

@<SCITEGIC>MOL_PROPERTY
Idih
SciTegic.value.DoubleValue
0.000

@<SCITEGIC>MOL_PROPERTY
Tether
SciTegic.value.DoubleValue
0.000

@<TRIPOS>MOLECULE
CD_guest-s16_fast_vm2_rndm.mol2 : feprocess host+ligand conformer 51
         139         145           2
SMALL
USER_CHARGES
 
@<TRIPOS>ATOM
       1    C1      16.268794   15.422994   20.247894 C.3        1 MOL1         0.2972
       2    H1      15.278084   15.296645   19.792782 H          1 MOL1         0.0751
       3    O1      16.430264   16.746182   20.794602 O.3        1 MOL1        -0.3740
       4    C2      16.522595   14.359204   21.354631 C.3        1 MOL1         0.1003
       5    H2      16.470773   13.375935   20.869180 H          1 MOL1         0.0783
       6    O2      15.534101   14.409521   22.394232 O.3        1 MOL1        -0.5519
       7    H3      15.616196   15.294607   22.831015 H          1 MOL1         0.3769
       8    C3      17.943624   14.516675   21.950161 C.3        1 MOL1         0.1053
       9    H4      17.994134   15.480686   22.475391 H          1 MOL1         0.0783
      10    O3      18.206337   13.448416   22.866551 O.3        1 MOL1        -0.5519
      11    H5      17.390141   13.366572   23.408476 H          1 MOL1         0.3769
      12    C4      19.008215   14.516753   20.827045 C.3        1 MOL1         0.1018
      13    H6      19.062881   13.505719   20.402257 H          1 MOL1         0.0783
      14    C5      18.655656   15.523700   19.698276 C.3        1 MOL1         0.1043
      15    H7      18.713947   16.539442   20.111095 H          1 MOL1         0.0783
      16    O4      17.301297   15.258972   19.248145 O.3        1 MOL1        -0.3740
      17    C6      19.603023   15.486141   18.471209 C.3        1 MOL1         0.0138
      18    H8      20.443820   16.165039   18.660441 H          1 MOL1         0.0794
      19    H9      19.063348   15.884852   17.601883 H          1 MOL1         0.0794
      20    O5      20.103691   14.176142   18.180450 O.3        1 MOL1        -0.5486
      21    H10     20.845485   14.008777   18.806969 H          1 MOL1         0.3769
      22    C7      14.734726   20.226422   22.022323 C.3        1 MOL1         0.2972
      23    H11     14.132210   21.078248   22.363228 H          1 MOL1         0.0751
      24    O6      16.040421   20.640281   21.574424 O.3        1 MOL1        -0.3740
      25    C8      14.902770   19.196320   23.165365 C.3        1 MOL1         0.1003
      26    H12     13.900929   18.837169   23.434749 H          1 MOL1         0.0783
      27    O7      15.528082   19.788573   24.316318 O.3        1 MOL1        -0.5519
      28    H13     15.479209   20.770621   24.203783 H          1 MOL1         0.3769
      29    C9      15.743979   17.992783   22.690932 C.3        1 MOL1         0.1053
      30    H14     16.764043   18.357324   22.542308 H          1 MOL1         0.0783
      31    O8      15.744432   16.984373   23.705948 O.3        1 MOL1        -0.5519
      32    H15     15.881713   17.474858   24.547438 H          1 MOL1         0.3769
      33    C10     15.268750   17.404162   21.338717 C.3        1 MOL1         0.1018
      34    H16     14.439603   16.708593   21.522690 H          1 MOL1         0.0783
      35    C11     14.848573   18.487051   20.300743 C.3        1 MOL1         0.1043
      36    H17     15.765893   18.915468   19.877400 H          1 MOL1         0.0783
      37    O9      14.084631   19.550015   20.926983 O.3        1 MOL1        -0.3740
      38    C12     14.029346   17.923117   19.115540 C.3        1 MOL1         0.0138
      39    H18     14.696649   17.317689   18.487490 H          1 MOL1         0.0794
      40    H19     13.678164   18.763423   18.501660 H          1 MOL1         0.0794
      41    O10     12.920315   17.128454   19.553220 O.3        1 MOL1        -0.5486
      42    H20     12.403869   16.872839   18.757677 H          1 MOL1         0.3769
      43    C13     18.428262   24.031210   21.318505 C.3        1 MOL1         0.2972
      44    H21     18.811864   25.050062   21.178775 H          1 MOL1         0.0751
      45    O11     19.498238   23.092769   21.546179 O.3        1 MOL1        -0.3740
      46    C14     17.491078   23.993216   22.550861 C.3        1 MOL1         0.1003
      47    H22     16.669658   24.696718   22.362435 H          1 MOL1         0.0783
      48    O12     18.204608   24.401557   23.728137 O.3        1 MOL1        -0.5519
      49    H23     19.142016   24.118939   23.599128 H          1 MOL1         0.3769
      50    C15     16.877976   22.585925   22.750232 C.3        1 MOL1         0.1053
      51    H24     17.685168   21.902648   23.045468 H          1 MOL1         0.0783
      52    O13     15.890312   22.649121   23.785498 O.3        1 MOL1        -0.5519
      53    H25     16.314648   23.170753   24.503939 H          1 MOL1         0.3769
      54    C16     16.248550   22.057152   21.435136 C.3        1 MOL1         0.1018
      55    H26     15.308921   22.591489   21.244489 H          1 MOL1         0.0783
      56    C17     17.192536   22.236059   20.216899 C.3        1 MOL1         0.1043
      57    H27     18.040657   21.554202   20.351445 H          1 MOL1         0.0783
      58    O14     17.680621   23.599871   20.161013 O.3        1 MOL1        -0.3740
      59    C18     16.540539   21.879375   18.856791 C.3        1 MOL1         0.0138
      60    H28     16.533396   20.786944   18.749972 H          1 MOL1         0.0794
      61    H29     17.171361   22.276600   18.050432 H          1 MOL1         0.0794
      62    O15     15.205388   22.381760   18.728576 O.3        1 MOL1        -0.5486
      63    H30     14.628560   21.827018   19.297885 H          1 MOL1         0.3769
      64    C19     23.567951   22.533455   20.727897 C.3        1 MOL1         0.2972
      65    H31     24.593533   22.651755   20.354842 H          1 MOL1         0.0751
      66    O16     23.368916   21.244418   21.336850 O.3        1 MOL1        -0.3740
      67    C20     23.227548   23.623764   21.778403 C.3        1 MOL1         0.1003
      68    H32     23.347312   24.597973   21.286867 H          1 MOL1         0.0783
      69    O17     24.114457   23.556530   22.906604 O.3        1 MOL1        -0.5519
      70    H33     24.118211   22.618571   23.226399 H          1 MOL1         0.3769
      71    C21     21.753579   23.502565   22.240754 C.3        1 MOL1         0.1053
      72    H34     21.643145   22.560942   22.796800 H          1 MOL1         0.0783
      73    O18     21.425334   24.608564   23.088576 O.3        1 MOL1        -0.5519
      74    H35     22.179652   24.685418   23.714121 H          1 MOL1         0.3769
      75    C22     20.790500   23.464032   21.028061 C.3        1 MOL1         0.1018
      76    H36     20.777663   24.458899   20.563703 H          1 MOL1         0.0783
      77    C23     21.239240   22.411047   19.974670 C.3        1 MOL1         0.1043
      78    H37     21.139445   21.412049   20.418427 H          1 MOL1         0.0783
      79    O19     22.627566   22.653311   19.639049 O.3        1 MOL1        -0.3740
      80    C24     20.427248   22.404298   18.653979 C.3        1 MOL1         0.0138
      81    H38     19.574635   21.725338   18.769660 H          1 MOL1         0.0794
      82    H39     21.058158   21.981162   17.860927 H          1 MOL1         0.0794
      83    O20     19.962806   23.702454   18.266961 O.3        1 MOL1        -0.5486
      84    H40     19.164688   23.894681   18.812528 H          1 MOL1         0.3769
      85    C25     25.143387   17.642205   22.135910 C.3        1 MOL1         0.2972
      86    H41     25.789872   16.778760   22.338373 H          1 MOL1         0.0751
      87    O21     23.762275   17.260005   21.989985 O.3        1 MOL1        -0.3740
      88    C26     25.234117   18.654905   23.300758 C.3        1 MOL1         0.1003
      89    H42     26.268877   19.018252   23.349618 H          1 MOL1         0.0783
      90    O22     24.889321   18.024752   24.545044 O.3        1 MOL1        -0.5519
      91    H43     24.262778   17.288304   24.333480 H          1 MOL1         0.3769
      92    C27     24.310357   19.863892   23.033175 C.3        1 MOL1         0.1053
      93    H44     23.275493   19.506269   23.071285 H          1 MOL1         0.0783
      94    O23     24.512171   20.855202   24.045391 O.3        1 MOL1        -0.5519
      95    H45     24.508866   20.354923   24.891973 H          1 MOL1         0.3769
      96    C28     24.552429   20.479020   21.632633 C.3        1 MOL1         0.1018
      97    H46     25.451100   21.108295   21.681138 H          1 MOL1         0.0783
      98    C29     24.697991   19.413337   20.505411 C.3        1 MOL1         0.1043
      99    H47     23.696352   19.020742   20.288824 H          1 MOL1         0.0783
     100    O24     25.550125   18.316426   20.928002 O.3        1 MOL1        -0.3740
     101    C30     25.257176   19.983376   19.179981 C.3        1 MOL1         0.0138
     102    H48     24.487508   20.617929   18.720169 H          1 MOL1         0.0794
     103    H49     25.445064   19.148778   18.491197 H          1 MOL1         0.0794
     104    O25     26.455902   20.742004   19.381743 O.3        1 MOL1        -0.5486
     105    H50     26.796095   21.002708   18.498030 H          1 MOL1         0.3769
     106    C31     21.318297   13.951934   21.373160 C.3        1 MOL1         0.2972
     107    H51     20.938024   12.939166   21.187744 H          1 MOL1         0.0751
     108    O26     20.250480   14.918279   21.432227 O.3        1 MOL1        -0.3740
     109    C32     22.062253   13.987540   22.731234 C.3        1 MOL1         0.1003
     110    H52     22.889568   13.268103   22.675818 H          1 MOL1         0.0783
     111    O27     21.176638   13.612197   23.798443 O.3        1 MOL1        -0.5519
     112    H53     20.257350   13.815169   23.494187 H          1 MOL1         0.3769
     113    C33     22.661975   15.388527   22.992799 C.3        1 MOL1         0.1053
     114    H54     21.832480   16.093698   23.133082 H          1 MOL1         0.0783
     115    O28     23.469986   15.354613   24.173513 O.3        1 MOL1        -0.5519
     116    H55     22.933312   14.861043   24.833403 H          1 MOL1         0.3769
     117    C34     23.505732   15.861330   21.784822 C.3        1 MOL1         0.1018
     118    H56     24.428917   15.268242   21.747568 H          1 MOL1         0.0783
     119    C35     22.739951   15.710263   20.441350 C.3        1 MOL1         0.1043
     120    H57     21.896292   16.410053   20.451873 H          1 MOL1         0.0783
     121    O29     22.232868   14.355836   20.328729 O.3        1 MOL1        -0.3740
     122    C36     23.573953   16.043028   19.176726 C.3        1 MOL1         0.0138
     123    H58     23.478681   17.116712   18.970745 H          1 MOL1         0.0794
     124    H59     23.136284   15.514863   18.319039 H          1 MOL1         0.0794
     125    O30     24.959742   15.706626   19.306623 O.3        1 MOL1        -0.5486
     126    H60     25.383007   16.434401   19.817569 H          1 MOL1         0.3769
     127    C1      20.631429   18.661384   22.064862 C.3        1 MOL1        -0.1693
     128    H1      20.516773   17.599621   21.819810 H          1 MOL1         0.0829
     129    H2      21.431705   19.084016   21.447220 H          1 MOL1         0.0829
     130    C2      20.704241   18.973562   23.595921 C.3        1 MOL1        -0.1768
     131    H3      21.195462   18.221532   24.222340 H          1 MOL1         0.0829
     132    H4      21.108308   19.961960   23.847934 H          1 MOL1         0.0829
     133    C3      19.149342   18.913562   23.555110 C.3        1 MOL1         0.1211
     134    H5      18.748574   17.892622   23.616832 H          1 MOL1         0.0786
     135    C4      19.291118   19.460976   22.101067 C.3        1 MOL1        -0.1768
     136    H6      18.525262   19.147459   21.384362 H          1 MOL1         0.0829
     137    H7      19.408916   20.547306   22.042069 H          1 MOL1         0.0829
     138    O1      18.494017   19.766199   24.465964 O.3        1 MOL1        -0.5515
     139    H8      17.523120   19.688385   24.320315 H          1 MOL1         0.3773
@<TRIPOS>BOND
    1     1     2    1
    2     1     3    1
    3     1     4    1
    4     4     5    1
    5     4     6    1
    6     6     7    1
    7     4     8    1
    8     8     9    1
    9     8    10    1
   10    10    11    1
   11     8    12    1
   12    12    13    1
   13    12    14    1
   14    14    15    1
   15     1    16    1
   16    14    16    1
   17    14    17    1
   18    17    18    1
   19    17    19    1
   20    17    20    1
   21    20    21    1
   22    22    23    1
   23    22    24    1
   24    22    25    1
   25    25    26    1
   26    25    27    1
   27    27    28    1
   28    25    29    1
   29    29    30    1
   30    29    31    1
   31    31    32    1
   32     3    33    1
   33    29    33    1
   34    33    34    1
   35    33    35    1
   36    35    36    1
   37    22    37    1
   38    35    37    1
   39    35    38    1
   40    38    39    1
   41    38    40    1
   42    38    41    1
   43    41    42    1
   44    43    44    1
   45    43    45    1
   46    43    46    1
   47    46    47    1
   48    46    48    1
   49    48    49    1
   50    46    50    1
   51    50    51    1
   52    50    52    1
   53    52    53    1
   54    24    54    1
   55    50    54    1
   56    54    55    1
   57    54    56    1
   58    56    57    1
   59    43    58    1
   60    56    58    1
   61    56    59    1
   62    59    60    1
   63    59    61    1
   64    59    62    1
   65    62    63    1
   66    64    65    1
   67    64    66    1
   68    64    67    1
   69    67    68    1
   70    67    69    1
   71    69    70    1
   72    67    71    1
   73    71    72    1
   74    71    73    1
   75    73    74    1
   76    45    75    1
   77    71    75    1
   78    75    76    1
   79    75    77    1
   80    77    78    1
   81    64    79    1
   82    77    79    1
   83    77    80    1
   84    80    81    1
   85    80    82    1
   86    80    83    1
   87    83    84    1
   88    85    86    1
   89    85    87    1
   90    85    88    1
   91    88    89    1
   92    88    90    1
   93    90    91    1
   94    88    92    1
   95    92    93    1
   96    92    94    1
   97    94    95    1
   98    66    96    1
   99    92    96    1
  100    96    97    1
  101    96    98    1
  102    98    99    1
  103    85   100    1
  104    98   100    1
  105    98   101    1
  106   101   102    1
  107   101   103    1
  108   101   104    1
  109   104   105    1
  110   106   107    1
  111    12   108    1
  112   106   108    1
  113   106   109    1
  114   109   110    1
  115   109   111    1
  116   111   112    1
  117   109   113    1
  118   113   114    1
  119   113   115    1
  120   115   116    1
  121    87   117    1
  122   113   117    1
  123   117   118    1
  124   117   119    1
  125   119   120    1
  126   106   121    1
  127   119   121    1
  128   119   122    1
  129   122   123    1
  130   122   124    1
  131   122   125    1
  132   125   126    1
  133   127   128    1
  134   127   129    1
  135   127   130    1
  136   130   131    1
  137   130   132    1
  138   130   133    1
  139   133   134    1
  140   127   135    1
  141   133   135    1
  142   135   136    1
  143   135   137    1
  144   133   138    1
  145   138   139    1
@<TRIPOS>SUBSTRUCTURE
       1 MOL1            1 RESIDUE      1      MOL     
       2 MOL1          139 RESIDUE      1      MOL     
@<SCITEGIC>MOL_PROPERTY
feprocess Rank
SciTegic.value.IntegerValue
51

@<SCITEGIC>MOL_PROPERTY
Conf_Id
SciTegic.value.IntegerValue
596

@<SCITEGIC>MOL_PROPERTY
Probability
SciTegic.value.DoubleValue
0.21

@<SCITEGIC>MOL_PROPERTY
G
SciTegic.value.DoubleValue
547.735

@<SCITEGIC>MOL_PROPERTY
E
SciTegic.value.DoubleValue
369.468

@<SCITEGIC>MOL_PROPERTY
-TS
SciTegic.value.DoubleValue
178.267

@<SCITEGIC>MOL_PROPERTY
U+W
SciTegic.value.DoubleValue
246.957

@<SCITEGIC>MOL_PROPERTY
U
SciTegic.value.DoubleValue
285.006

@<SCITEGIC>MOL_PROPERTY
W
SciTegic.value.DoubleValue
-38.049

@<SCITEGIC>MOL_PROPERTY
W(PB)
SciTegic.value.DoubleValue
-44.028

@<SCITEGIC>MOL_PROPERTY
W(SA)
SciTegic.value.DoubleValue
5.979

@<SCITEGIC>MOL_PROPERTY
Valence
SciTegic.value.DoubleValue
154.310

@<SCITEGIC>MOL_PROPERTY
Coulomb
SciTegic.value.DoubleValue
151.545

@<SCITEGIC>MOL_PROPERTY
VdW
SciTegic.value.DoubleValue
-20.850

@<SCITEGIC>MOL_PROPERTY
VdW6
SciTegic.value.DoubleValue
-168.095

@<SCITEGIC>MOL_PROPERTY
VdW12
SciTegic.value.DoubleValue
147.246

@<SCITEGIC>MOL_PROPERTY
Bond
SciTegic.value.DoubleValue
4.589

@<SCITEGIC>MOL_PROPERTY
Angle
SciTegic.value.DoubleValue
12.370

@<SCITEGIC>MOL_PROPERTY
Pdih
SciTegic.value.DoubleValue
137.350

@<SCITEGIC>MOL_PROPERTY
Idih
SciTegic.value.DoubleValue
0.000

@<SCITEGIC>MOL_PROPERTY
Tether
SciTegic.value.DoubleValue
0.000

@<TRIPOS>MOLECULE
CD_guest-s16_fast_vm2_rndm.mol2 : feprocess host+ligand conformer 52
         139         145           2
SMALL
USER_CHARGES
 
@<TRIPOS>ATOM
       1    C1      16.228871   15.305969   20.422433 C.3        1 MOL1         0.2972
       2    H1      15.217335   15.159039   20.022487 H          1 MOL1         0.0751
       3    O1      16.405035   16.636381   20.946416 O.3        1 MOL1        -0.3740
       4    C2      16.557415   14.274011   21.537001 C.3        1 MOL1         0.1003
       5    H2      16.524637   13.279383   21.073477 H          1 MOL1         0.0783
       6    O2      15.601076   14.313389   22.606330 O.3        1 MOL1        -0.5519
       7    H3      15.618399   15.228675   22.984518 H          1 MOL1         0.3769
       8    C3      17.993542   14.498105   22.075261 C.3        1 MOL1         0.1053
       9    H4      18.028581   15.478098   22.570447 H          1 MOL1         0.0783
      10    O3      18.323293   13.470491   23.015674 O.3        1 MOL1        -0.5519
      11    H5      17.517375   13.361218   23.569034 H          1 MOL1         0.3769
      12    C4      19.012812   14.500953   20.907260 C.3        1 MOL1         0.1018
      13    H6      19.103671   13.477926   20.518898 H          1 MOL1         0.0783
      14    C5      18.579938   15.438964   19.748998 C.3        1 MOL1         0.1043
      15    H7      18.633852   16.475331   20.104941 H          1 MOL1         0.0783
      16    O4      17.212481   15.128975   19.375412 O.3        1 MOL1        -0.3740
      17    C6      19.486827   15.357397   18.492992 C.3        1 MOL1         0.0138
      18    H8      20.305759   16.078216   18.613072 H          1 MOL1         0.0794
      19    H9      18.905650   15.679916   17.618850 H          1 MOL1         0.0794
      20    O5      20.032282   14.050592   18.269235 O.3        1 MOL1        -0.5486
      21    H10     20.689008   13.881123   18.983013 H          1 MOL1         0.3769
      22    C7      14.859023   20.221007   22.037804 C.3        1 MOL1         0.2972
      23    H11     14.286943   21.106993   22.341945 H          1 MOL1         0.0751
      24    O6      16.213514   20.572470   21.684517 O.3        1 MOL1        -0.3740
      25    C8      14.875108   19.190079   23.192866 C.3        1 MOL1         0.1003
      26    H12     13.834371   18.901019   23.388244 H          1 MOL1         0.0783
      27    O7      15.443130   19.757559   24.382177 O.3        1 MOL1        -0.5519
      28    H13     16.397641   19.923199   24.181234 H          1 MOL1         0.3769
      29    C9      15.663359   17.924459   22.797785 C.3        1 MOL1         0.1053
      30    H14     16.715917   18.212385   22.731381 H          1 MOL1         0.0783
      31    O8      15.511814   16.932029   23.816963 O.3        1 MOL1        -0.5519
      32    H15     15.692860   17.404691   24.660095 H          1 MOL1         0.3769
      33    C10     15.246035   17.349873   21.420641 C.3        1 MOL1         0.1018
      34    H16     14.374071   16.695407   21.550977 H          1 MOL1         0.0783
      35    C11     14.960409   18.441652   20.349263 C.3        1 MOL1         0.1043
      36    H17     15.933542   18.785388   19.986376 H          1 MOL1         0.0783
      37    O9      14.246864   19.581510   20.896917 O.3        1 MOL1        -0.3740
      38    C12     14.182734   17.910800   19.121625 C.3        1 MOL1         0.0138
      39    H18     14.839848   17.234194   18.558674 H          1 MOL1         0.0794
      40    H19     13.944408   18.756120   18.462160 H          1 MOL1         0.0794
      41    O10     12.985131   17.222023   19.500495 O.3        1 MOL1        -0.5486
      42    H20     12.506716   16.980048   18.677417 H          1 MOL1         0.3769
      43    C13     18.536264   23.853535   20.632397 C.3        1 MOL1         0.2972
      44    H21     18.946521   24.782854   20.216501 H          1 MOL1         0.0751
      45    O11     19.565079   23.030933   21.215754 O.3        1 MOL1        -0.3740
      46    C14     17.469992   24.150328   21.717187 C.3        1 MOL1         0.1003
      47    H22     16.673794   24.731774   21.234341 H          1 MOL1         0.0783
      48    O12     18.024700   24.922182   22.794556 O.3        1 MOL1        -0.5519
      49    H23     18.822978   24.437414   23.125555 H          1 MOL1         0.3769
      50    C15     16.837968   22.842790   22.260530 C.3        1 MOL1         0.1053
      51    H24     17.593786   22.323032   22.863371 H          1 MOL1         0.0783
      52    O13     15.717783   23.186729   23.081523 O.3        1 MOL1        -0.5519
      53    H25     16.050119   23.873213   23.700501 H          1 MOL1         0.3769
      54    C16     16.388141   21.889095   21.118282 C.3        1 MOL1         0.1018
      55    H26     15.451524   22.275286   20.695739 H          1 MOL1         0.0783
      56    C17     17.444584   21.767357   19.981733 C.3        1 MOL1         0.1043
      57    H27     18.299527   21.196116   20.363818 H          1 MOL1         0.0783
      58    O14     17.891104   23.088035   19.594136 O.3        1 MOL1        -0.3740
      59    C18     16.950863   21.033370   18.707561 C.3        1 MOL1         0.0138
      60    H28     17.191008   19.967883   18.804519 H          1 MOL1         0.0794
      61    H29     17.525756   21.401767   17.847373 H          1 MOL1         0.0794
      62    O15     15.547645   21.199149   18.463075 O.3        1 MOL1        -0.5486
      63    H30     15.063864   20.792428   19.217901 H          1 MOL1         0.3769
      64    C19     23.601220   22.785713   21.949916 C.3        1 MOL1         0.2972
      65    H31     24.670504   22.945961   22.139249 H          1 MOL1         0.0751
      66    O16     23.290778   21.386866   21.799381 O.3        1 MOL1        -0.3740
      67    C20     22.772767   23.334871   23.134735 C.3        1 MOL1         0.1003
      68    H32     22.965009   24.413333   23.206185 H          1 MOL1         0.0783
      69    O17     23.168329   22.695497   24.359269 O.3        1 MOL1        -0.5519
      70    H33     23.600927   21.841996   24.110470 H          1 MOL1         0.3769
      71    C21     21.262190   23.129619   22.882684 C.3        1 MOL1         0.1053
      72    H34     21.065887   22.052642   22.902659 H          1 MOL1         0.0783
      73    O18     20.509963   23.772773   23.916350 O.3        1 MOL1        -0.5519
      74    H35     20.957931   23.513472   24.752505 H          1 MOL1         0.3769
      75    C22     20.826861   23.665295   21.497140 C.3        1 MOL1         0.1018
      76    H36     20.737991   24.758366   21.555197 H          1 MOL1         0.0783
      77    C23     21.803419   23.259159   20.355001 C.3        1 MOL1         0.1043
      78    H37     21.649343   22.191575   20.154397 H          1 MOL1         0.0783
      79    O19     23.184125   23.469607   20.750440 O.3        1 MOL1        -0.3740
      80    C24     21.555708   24.013029   19.026618 C.3        1 MOL1         0.0138
      81    H38     20.617057   23.648602   18.587723 H          1 MOL1         0.0794
      82    H39     22.362301   23.761550   18.324793 H          1 MOL1         0.0794
      83    O20     21.484954   25.431399   19.216906 O.3        1 MOL1        -0.5486
      84    H40     21.410620   25.847892   18.330554 H          1 MOL1         0.3769
      85    C25     25.062393   17.700754   21.052229 C.3        1 MOL1         0.2972
      86    H41     25.731662   16.879885   20.767012 H          1 MOL1         0.0751
      87    O21     23.721372   17.233018   21.309427 O.3        1 MOL1        -0.3740
      88    C26     25.588903   18.444409   22.308814 C.3        1 MOL1         0.1003
      89    H42     26.560475   18.881368   22.043599 H          1 MOL1         0.0783
      90    O22     25.771799   17.551951   23.417358 O.3        1 MOL1        -0.5519
      91    H43     24.899474   17.116628   23.593609 H          1 MOL1         0.3769
      92    C27     24.633643   19.604289   22.683677 C.3        1 MOL1         0.1053
      93    H44     23.669048   19.171201   22.980623 H          1 MOL1         0.0783
      94    O23     25.181516   20.356813   23.771225 O.3        1 MOL1        -0.5519
      95    H45     25.513992   19.684646   24.407123 H          1 MOL1         0.3769
      96    C28     24.399535   20.532980   21.466172 C.3        1 MOL1         0.1018
      97    H46     25.320312   21.102614   21.284182 H          1 MOL1         0.0783
      98    C29     24.029299   19.742555   20.179678 C.3        1 MOL1         0.1043
      99    H47     23.033710   19.307335   20.317714 H          1 MOL1         0.0783
     100    O24     24.988134   18.672426   19.984198 O.3        1 MOL1        -0.3740
     101    C30     23.961084   20.598647   18.887574 C.3        1 MOL1         0.0138
     102    H48     22.935196   20.969332   18.770509 H          1 MOL1         0.0794
     103    H49     24.161378   19.947500   18.026250 H          1 MOL1         0.0794
     104    O25     24.870204   21.705892   18.888032 O.3        1 MOL1        -0.5486
     105    H50     24.483448   22.396254   19.475635 H          1 MOL1         0.3769
     106    C31     21.236804   13.983577   21.743475 C.3        1 MOL1         0.2972
     107    H51     20.767629   12.999951   21.876580 H          1 MOL1         0.0751
     108    O26     20.266915   14.994327   21.407746 O.3        1 MOL1        -0.3740
     109    C32     21.948531   14.408082   23.048216 C.3        1 MOL1         0.1003
     110    H52     22.735085   13.669916   23.252233 H          1 MOL1         0.0783
     111    O27     21.022480   14.432757   24.146946 O.3        1 MOL1        -0.5519
     112    H53     20.121048   14.293284   23.766206 H          1 MOL1         0.3769
     113    C33     22.616039   15.790482   22.873399 C.3        1 MOL1         0.1053
     114    H54     21.817088   16.530221   22.744560 H          1 MOL1         0.0783
     115    O28     23.367002   16.097026   24.050702 O.3        1 MOL1        -0.5519
     116    H55     22.765243   15.868179   24.794706 H          1 MOL1         0.3769
     117    C34     23.528699   15.838326   21.618996 C.3        1 MOL1         0.1018
     118    H56     24.473345   15.329423   21.849425 H          1 MOL1         0.0783
     119    C35     22.857734   15.203702   20.365007 C.3        1 MOL1         0.1043
     120    H57     22.091453   15.905693   20.012770 H          1 MOL1         0.0783
     121    O29     22.220546   13.941205   20.689531 O.3        1 MOL1        -0.3740
     122    C36     23.833463   14.968779   19.186406 C.3        1 MOL1         0.0138
     123    H58     24.193719   15.941448   18.824671 H          1 MOL1         0.0794
     124    H59     23.274599   14.506198   18.361967 H          1 MOL1         0.0794
     125    O30     24.942772   14.135983   19.548953 O.3        1 MOL1        -0.5486
     126    H60     25.515304   14.634485   20.167155 H          1 MOL1         0.3769
     127    C1      20.616900   18.974693   21.600424 C.3        1 MOL1        -0.1693
     128    H1      20.825217   19.856008   20.980088 H          1 MOL1         0.0829
     129    H2      21.188144   18.125275   21.212807 H          1 MOL1         0.0829
     130    C2      19.103108   18.705648   21.865580 C.3        1 MOL1        -0.1768
     131    H3      18.414456   18.944960   21.049849 H          1 MOL1         0.0829
     132    H4      18.880541   17.696121   22.231134 H          1 MOL1         0.0829
     133    C3      19.247272   19.781853   22.984383 C.3        1 MOL1         0.1211
     134    H5      19.206154   20.811985   22.611335 H          1 MOL1         0.0786
     135    C4      20.694744   19.226102   23.143939 C.3        1 MOL1        -0.1768
     136    H6      21.453010   19.938046   23.483404 H          1 MOL1         0.0829
     137    H7      20.767048   18.321309   23.759754 H          1 MOL1         0.0829
     138    O1      18.406924   19.630820   24.105350 O.3        1 MOL1        -0.5515
     139    H8      18.825824   20.122059   24.841259 H          1 MOL1         0.3773
@<TRIPOS>BOND
    1     1     2    1
    2     1     3    1
    3     1     4    1
    4     4     5    1
    5     4     6    1
    6     6     7    1
    7     4     8    1
    8     8     9    1
    9     8    10    1
   10    10    11    1
   11     8    12    1
   12    12    13    1
   13    12    14    1
   14    14    15    1
   15     1    16    1
   16    14    16    1
   17    14    17    1
   18    17    18    1
   19    17    19    1
   20    17    20    1
   21    20    21    1
   22    22    23    1
   23    22    24    1
   24    22    25    1
   25    25    26    1
   26    25    27    1
   27    27    28    1
   28    25    29    1
   29    29    30    1
   30    29    31    1
   31    31    32    1
   32     3    33    1
   33    29    33    1
   34    33    34    1
   35    33    35    1
   36    35    36    1
   37    22    37    1
   38    35    37    1
   39    35    38    1
   40    38    39    1
   41    38    40    1
   42    38    41    1
   43    41    42    1
   44    43    44    1
   45    43    45    1
   46    43    46    1
   47    46    47    1
   48    46    48    1
   49    48    49    1
   50    46    50    1
   51    50    51    1
   52    50    52    1
   53    52    53    1
   54    24    54    1
   55    50    54    1
   56    54    55    1
   57    54    56    1
   58    56    57    1
   59    43    58    1
   60    56    58    1
   61    56    59    1
   62    59    60    1
   63    59    61    1
   64    59    62    1
   65    62    63    1
   66    64    65    1
   67    64    66    1
   68    64    67    1
   69    67    68    1
   70    67    69    1
   71    69    70    1
   72    67    71    1
   73    71    72    1
   74    71    73    1
   75    73    74    1
   76    45    75    1
   77    71    75    1
   78    75    76    1
   79    75    77    1
   80    77    78    1
   81    64    79    1
   82    77    79    1
   83    77    80    1
   84    80    81    1
   85    80    82    1
   86    80    83    1
   87    83    84    1
   88    85    86    1
   89    85    87    1
   90    85    88    1
   91    88    89    1
   92    88    90    1
   93    90    91    1
   94    88    92    1
   95    92    93    1
   96    92    94    1
   97    94    95    1
   98    66    96    1
   99    92    96    1
  100    96    97    1
  101    96    98    1
  102    98    99    1
  103    85   100    1
  104    98   100    1
  105    98   101    1
  106   101   102    1
  107   101   103    1
  108   101   104    1
  109   104   105    1
  110   106   107    1
  111    12   108    1
  112   106   108    1
  113   106   109    1
  114   109   110    1
  115   109   111    1
  116   111   112    1
  117   109   113    1
  118   113   114    1
  119   113   115    1
  120   115   116    1
  121    87   117    1
  122   113   117    1
  123   117   118    1
  124   117   119    1
  125   119   120    1
  126   106   121    1
  127   119   121    1
  128   119   122    1
  129   122   123    1
  130   122   124    1
  131   122   125    1
  132   125   126    1
  133   127   128    1
  134   127   129    1
  135   127   130    1
  136   130   131    1
  137   130   132    1
  138   130   133    1
  139   133   134    1
  140   127   135    1
  141   133   135    1
  142   135   136    1
  143   135   137    1
  144   133   138    1
  145   138   139    1
@<TRIPOS>SUBSTRUCTURE
       1 MOL1            1 RESIDUE      1      MOL     
       2 MOL1          139 RESIDUE      1      MOL     
@<SCITEGIC>MOL_PROPERTY
feprocess Rank
SciTegic.value.IntegerValue
52

@<SCITEGIC>MOL_PROPERTY
Conf_Id
SciTegic.value.IntegerValue
601

@<SCITEGIC>MOL_PROPERTY
Probability
SciTegic.value.DoubleValue
0.20

@<SCITEGIC>MOL_PROPERTY
G
SciTegic.value.DoubleValue
547.759

@<SCITEGIC>MOL_PROPERTY
E
SciTegic.value.DoubleValue
368.636

@<SCITEGIC>MOL_PROPERTY
-TS
SciTegic.value.DoubleValue
179.123

@<SCITEGIC>MOL_PROPERTY
U+W
SciTegic.value.DoubleValue
246.125

@<SCITEGIC>MOL_PROPERTY
U
SciTegic.value.DoubleValue
285.593

@<SCITEGIC>MOL_PROPERTY
W
SciTegic.value.DoubleValue
-39.468

@<SCITEGIC>MOL_PROPERTY
W(PB)
SciTegic.value.DoubleValue
-45.419

@<SCITEGIC>MOL_PROPERTY
W(SA)
SciTegic.value.DoubleValue
5.951

@<SCITEGIC>MOL_PROPERTY
Valence
SciTegic.value.DoubleValue
152.787

@<SCITEGIC>MOL_PROPERTY
Coulomb
SciTegic.value.DoubleValue
154.404

@<SCITEGIC>MOL_PROPERTY
VdW
SciTegic.value.DoubleValue
-21.598

@<SCITEGIC>MOL_PROPERTY
VdW6
SciTegic.value.DoubleValue
-170.228

@<SCITEGIC>MOL_PROPERTY
VdW12
SciTegic.value.DoubleValue
148.630

@<SCITEGIC>MOL_PROPERTY
Bond
SciTegic.value.DoubleValue
4.688

@<SCITEGIC>MOL_PROPERTY
Angle
SciTegic.value.DoubleValue
13.533

@<SCITEGIC>MOL_PROPERTY
Pdih
SciTegic.value.DoubleValue
134.566

@<SCITEGIC>MOL_PROPERTY
Idih
SciTegic.value.DoubleValue
0.000

@<SCITEGIC>MOL_PROPERTY
Tether
SciTegic.value.DoubleValue
0.000

@<TRIPOS>MOLECULE
CD_guest-s16_fast_vm2_rndm.mol2 : feprocess host+ligand conformer 53
         139         145           2
SMALL
USER_CHARGES
 
@<TRIPOS>ATOM
       1    C1      16.351280   15.204517   20.642575 C.3        1 MOL1         0.2972
       2    H1      15.289563   15.115063   20.380216 H          1 MOL1         0.0751
       3    O1      16.717318   16.587882   20.870964 O.3        1 MOL1        -0.3740
       4    C2      16.682479   14.338821   21.888858 C.3        1 MOL1         0.1003
       5    H2      16.458015   13.298840   21.617885 H          1 MOL1         0.0783
       6    O2      15.884432   14.696691   23.026825 O.3        1 MOL1        -0.5519
       7    H3      16.116726   15.631489   23.259194 H          1 MOL1         0.3769
       8    C3      18.187520   14.415385   22.241595 C.3        1 MOL1         0.1053
       9    H4      18.399985   15.431919   22.598083 H          1 MOL1         0.0783
      10    O3      18.461677   13.470577   23.279844 O.3        1 MOL1        -0.5519
      11    H5      17.700369   13.543463   23.899459 H          1 MOL1         0.3769
      12    C4      19.086468   14.126957   21.007782 C.3        1 MOL1         0.1018
      13    H6      19.123602   13.044955   20.829952 H          1 MOL1         0.0783
      14    C5      18.588509   14.842941   19.721122 C.3        1 MOL1         0.1043
      15    H7      18.815559   15.907640   19.821820 H          1 MOL1         0.0783
      16    O4      17.158175   14.692442   19.562218 O.3        1 MOL1        -0.3740
      17    C6      19.291875   14.360772   18.428729 C.3        1 MOL1         0.0138
      18    H8      20.329605   14.720482   18.441068 H          1 MOL1         0.0794
      19    H9      18.796788   14.830500   17.568541 H          1 MOL1         0.0794
      20    O5      19.274912   12.935004   18.286474 O.3        1 MOL1        -0.5486
      21    H10     19.941067   12.568276   18.906483 H          1 MOL1         0.3769
      22    C7      14.963740   20.295498   21.717405 C.3        1 MOL1         0.2972
      23    H11     14.274730   21.096400   22.014780 H          1 MOL1         0.0751
      24    O6      16.134714   20.826356   21.061778 O.3        1 MOL1        -0.3740
      25    C8      15.374433   19.449279   22.955397 C.3        1 MOL1         0.1003
      26    H12     14.450015   19.029312   23.372972 H          1 MOL1         0.0783
      27    O7      16.023735   20.235821   23.966215 O.3        1 MOL1        -0.5519
      28    H13     15.842217   21.184877   23.763497 H          1 MOL1         0.3769
      29    C9      16.288979   18.271956   22.550666 C.3        1 MOL1         0.1053
      30    H14     17.238870   18.697348   22.207718 H          1 MOL1         0.0783
      31    O8      16.512612   17.441462   23.693831 O.3        1 MOL1        -0.5519
      32    H15     16.784620   18.068097   24.401629 H          1 MOL1         0.3769
      33    C10     15.671177   17.437299   21.401639 C.3        1 MOL1         0.1018
      34    H16     14.841744   16.848851   21.816012 H          1 MOL1         0.0783
      35    C11     15.136082   18.333454   20.247591 C.3        1 MOL1         0.1043
      36    H17     15.995047   18.767152   19.720526 H          1 MOL1         0.0783
      37    O9      14.315105   19.404028   20.784795 O.3        1 MOL1        -0.3740
      38    C12     14.299198   17.560723   19.199870 C.3        1 MOL1         0.0138
      39    H18     14.974483   16.916683   18.620398 H          1 MOL1         0.0794
      40    H19     13.859903   18.284746   18.500594 H          1 MOL1         0.0794
      41    O10     13.271152   16.766823   19.805879 O.3        1 MOL1        -0.5486
      42    H20     12.728574   16.380573   19.084043 H          1 MOL1         0.3769
      43    C13     18.395299   24.239080   20.737378 C.3        1 MOL1         0.2972
      44    H21     18.849502   25.222962   20.563359 H          1 MOL1         0.0751
      45    O11     19.402992   23.222182   20.941977 O.3        1 MOL1        -0.3740
      46    C14     17.413251   24.278133   21.936692 C.3        1 MOL1         0.1003
      47    H22     16.595732   24.954372   21.654011 H          1 MOL1         0.0783
      48    O12     18.028783   24.781156   23.131174 O.3        1 MOL1        -0.5519
      49    H23     18.711605   24.116130   23.400119 H          1 MOL1         0.3769
      50    C15     16.801434   22.878884   22.188028 C.3        1 MOL1         0.1053
      51    H24     17.602575   22.215800   22.543150 H          1 MOL1         0.0783
      52    O13     15.787323   23.003977   23.191456 O.3        1 MOL1        -0.5519
      53    H25     16.156489   23.637885   23.848170 H          1 MOL1         0.3769
      54    C16     16.201670   22.260687   20.893016 C.3        1 MOL1         0.1018
      55    H26     15.205439   22.688653   20.725851 H          1 MOL1         0.0783
      56    C17     17.073715   22.505330   19.624598 C.3        1 MOL1         0.1043
      57    H27     17.917824   21.810359   19.649127 H          1 MOL1         0.0783
      58    O14     17.599808   23.855532   19.596345 O.3        1 MOL1        -0.3740
      59    C18     16.324790   22.231698   18.297533 C.3        1 MOL1         0.0138
      60    H28     16.137374   21.152233   18.217845 H          1 MOL1         0.0794
      61    H29     16.984990   22.507994   17.464751 H          1 MOL1         0.0794
      62    O15     15.087702   22.948827   18.199954 O.3        1 MOL1        -0.5486
      63    H30     14.432903   22.492617   18.770483 H          1 MOL1         0.3769
      64    C19     23.327792   22.559101   22.137279 C.3        1 MOL1         0.2972
      65    H31     24.348967   22.645618   22.529894 H          1 MOL1         0.0751
      66    O16     23.142057   21.325598   21.412177 O.3        1 MOL1        -0.3740
      67    C20     22.299128   22.632457   23.295375 C.3        1 MOL1         0.1003
      68    H32     22.432796   23.606884   23.783157 H          1 MOL1         0.0783
      69    O17     22.507025   21.590907   24.263107 O.3        1 MOL1        -0.5519
      70    H33     23.413217   21.228086   24.111707 H          1 MOL1         0.3769
      71    C21     20.854489   22.561220   22.752373 C.3        1 MOL1         0.1053
      72    H34     20.709187   21.560243   22.327104 H          1 MOL1         0.0783
      73    O18     19.947250   22.763503   23.839607 O.3        1 MOL1        -0.5519
      74    H35     20.280770   22.169320   24.549698 H          1 MOL1         0.3769
      75    C22     20.609209   23.609395   21.635472 C.3        1 MOL1         0.1018
      76    H36     20.517378   24.601302   22.097125 H          1 MOL1         0.0783
      77    C23     21.754381   23.625121   20.583094 C.3        1 MOL1         0.1043
      78    H37     21.677803   22.709825   19.983285 H          1 MOL1         0.0783
      79    O19     23.048700   23.653081   21.237786 O.3        1 MOL1        -0.3740
      80    C24     21.673788   24.821236   19.604550 C.3        1 MOL1         0.0138
      81    H38     20.816665   24.665726   18.935400 H          1 MOL1         0.0794
      82    H39     22.577914   24.825289   18.981102 H          1 MOL1         0.0794
      83    O20     21.534214   26.072761   20.289010 O.3        1 MOL1        -0.5486
      84    H40     21.569359   26.786450   19.615135 H          1 MOL1         0.3769
      85    C25     25.029206   17.656966   20.918196 C.3        1 MOL1         0.2972
      86    H41     25.714010   16.830200   20.689685 H          1 MOL1         0.0751
      87    O21     23.679749   17.183292   21.119043 O.3        1 MOL1        -0.3740
      88    C26     25.502957   18.449656   22.165458 C.3        1 MOL1         0.1003
      89    H42     26.478204   18.885784   21.912246 H          1 MOL1         0.0783
      90    O22     25.666093   17.607111   23.315417 O.3        1 MOL1        -0.5519
      91    H43     24.774393   17.230974   23.527069 H          1 MOL1         0.3769
      92    C27     24.532302   19.616590   22.473923 C.3        1 MOL1         0.1053
      93    H44     23.561949   19.189947   22.765371 H          1 MOL1         0.0783
      94    O23     25.074198   20.385414   23.553851 O.3        1 MOL1        -0.5519
      95    H45     25.451482   19.719754   24.173632 H          1 MOL1         0.3769
      96    C28     24.317357   20.510091   21.219408 C.3        1 MOL1         0.1018
      97    H46     25.210401   21.128552   21.063749 H          1 MOL1         0.0783
      98    C29     24.050964   19.674613   19.937177 C.3        1 MOL1         0.1043
      99    H47     23.046095   19.247773   20.021394 H          1 MOL1         0.0783
     100    O24     25.009922   18.594771   19.821578 O.3        1 MOL1        -0.3740
     101    C30     24.084036   20.509736   18.632884 C.3        1 MOL1         0.0138
     102    H48     23.192835   21.150095   18.601964 H          1 MOL1         0.0794
     103    H49     24.018029   19.822537   17.778983 H          1 MOL1         0.0794
     104    O25     25.261359   21.319094   18.522774 O.3        1 MOL1        -0.5486
     105    H50     25.160382   22.074025   19.141441 H          1 MOL1         0.3769
     106    C31     21.380822   13.825623   21.889777 C.3        1 MOL1         0.2972
     107    H51     20.970581   12.839410   22.142105 H          1 MOL1         0.0751
     108    O26     20.397239   14.669820   21.260543 O.3        1 MOL1        -0.3740
     109    C32     21.936398   14.531893   23.154914 C.3        1 MOL1         0.1003
     110    H52     22.771138   13.921127   23.522875 H          1 MOL1         0.0783
     111    O27     20.952706   14.637888   24.195084 O.3        1 MOL1        -0.5519
     112    H53     20.084164   14.382215   23.800173 H          1 MOL1         0.3769
     113    C33     22.498495   15.928046   22.800806 C.3        1 MOL1         0.1053
     114    H54     21.664134   16.560614   22.476256 H          1 MOL1         0.0783
     115    O28     23.103261   16.490570   23.969189 O.3        1 MOL1        -0.5519
     116    H55     22.436673   16.348439   24.679021 H          1 MOL1         0.3769
     117    C34     23.527370   15.846650   21.643768 C.3        1 MOL1         0.1018
     118    H56     24.470795   15.453586   22.045134 H          1 MOL1         0.0783
     119    C35     23.038931   14.946928   20.470330 C.3        1 MOL1         0.1043
     120    H57     22.254748   15.494409   19.931004 H          1 MOL1         0.0783
     121    O29     22.486847   13.698493   20.970048 O.3        1 MOL1        -0.3740
     122    C36     24.149285   14.616236   19.444498 C.3        1 MOL1         0.0138
     123    H58     24.387104   15.529829   18.882908 H          1 MOL1         0.0794
     124    H59     23.755267   13.885045   18.725987 H          1 MOL1         0.0794
     125    O30     25.334131   14.109964   20.072305 O.3        1 MOL1        -0.5486
     126    H60     25.958833   13.846969   19.361448 H          1 MOL1         0.3769
     127    C1      20.215839   19.868683   19.287824 C.3        1 MOL1        -0.1693
     128    H1      21.090195   20.485442   19.523765 H          1 MOL1         0.0829
     129    H2      19.796047   20.203079   18.332066 H          1 MOL1         0.0829
     130    C2      19.202129   19.711706   20.465749 C.3        1 MOL1        -0.1768
     131    H3      19.091012   20.562103   21.143922 H          1 MOL1         0.0829
     132    H4      18.206321   19.374126   20.159773 H          1 MOL1         0.0829
     133    C3      20.146255   18.584495   20.962893 C.3        1 MOL1         0.1211
     134    H5      21.021965   18.944678   21.520278 H          1 MOL1         0.0786
     135    C4      20.422987   18.325224   19.449567 C.3        1 MOL1        -0.1768
     136    H6      19.672086   17.718198   18.932710 H          1 MOL1         0.0829
     137    H7      21.415375   17.932723   19.205813 H          1 MOL1         0.0829
     138    O1      19.501984   17.558655   21.671820 O.3        1 MOL1        -0.5515
     139    H8      18.634498   17.393036   21.248925 H          1 MOL1         0.3773
@<TRIPOS>BOND
    1     1     2    1
    2     1     3    1
    3     1     4    1
    4     4     5    1
    5     4     6    1
    6     6     7    1
    7     4     8    1
    8     8     9    1
    9     8    10    1
   10    10    11    1
   11     8    12    1
   12    12    13    1
   13    12    14    1
   14    14    15    1
   15     1    16    1
   16    14    16    1
   17    14    17    1
   18    17    18    1
   19    17    19    1
   20    17    20    1
   21    20    21    1
   22    22    23    1
   23    22    24    1
   24    22    25    1
   25    25    26    1
   26    25    27    1
   27    27    28    1
   28    25    29    1
   29    29    30    1
   30    29    31    1
   31    31    32    1
   32     3    33    1
   33    29    33    1
   34    33    34    1
   35    33    35    1
   36    35    36    1
   37    22    37    1
   38    35    37    1
   39    35    38    1
   40    38    39    1
   41    38    40    1
   42    38    41    1
   43    41    42    1
   44    43    44    1
   45    43    45    1
   46    43    46    1
   47    46    47    1
   48    46    48    1
   49    48    49    1
   50    46    50    1
   51    50    51    1
   52    50    52    1
   53    52    53    1
   54    24    54    1
   55    50    54    1
   56    54    55    1
   57    54    56    1
   58    56    57    1
   59    43    58    1
   60    56    58    1
   61    56    59    1
   62    59    60    1
   63    59    61    1
   64    59    62    1
   65    62    63    1
   66    64    65    1
   67    64    66    1
   68    64    67    1
   69    67    68    1
   70    67    69    1
   71    69    70    1
   72    67    71    1
   73    71    72    1
   74    71    73    1
   75    73    74    1
   76    45    75    1
   77    71    75    1
   78    75    76    1
   79    75    77    1
   80    77    78    1
   81    64    79    1
   82    77    79    1
   83    77    80    1
   84    80    81    1
   85    80    82    1
   86    80    83    1
   87    83    84    1
   88    85    86    1
   89    85    87    1
   90    85    88    1
   91    88    89    1
   92    88    90    1
   93    90    91    1
   94    88    92    1
   95    92    93    1
   96    92    94    1
   97    94    95    1
   98    66    96    1
   99    92    96    1
  100    96    97    1
  101    96    98    1
  102    98    99    1
  103    85   100    1
  104    98   100    1
  105    98   101    1
  106   101   102    1
  107   101   103    1
  108   101   104    1
  109   104   105    1
  110   106   107    1
  111    12   108    1
  112   106   108    1
  113   106   109    1
  114   109   110    1
  115   109   111    1
  116   111   112    1
  117   109   113    1
  118   113   114    1
  119   113   115    1
  120   115   116    1
  121    87   117    1
  122   113   117    1
  123   117   118    1
  124   117   119    1
  125   119   120    1
  126   106   121    1
  127   119   121    1
  128   119   122    1
  129   122   123    1
  130   122   124    1
  131   122   125    1
  132   125   126    1
  133   127   128    1
  134   127   129    1
  135   127   130    1
  136   130   131    1
  137   130   132    1
  138   130   133    1
  139   133   134    1
  140   127   135    1
  141   133   135    1
  142   135   136    1
  143   135   137    1
  144   133   138    1
  145   138   139    1
@<TRIPOS>SUBSTRUCTURE
       1 MOL1            1 RESIDUE      1      MOL     
       2 MOL1          139 RESIDUE      1      MOL     
@<SCITEGIC>MOL_PROPERTY
feprocess Rank
SciTegic.value.IntegerValue
53

@<SCITEGIC>MOL_PROPERTY
Conf_Id
SciTegic.value.IntegerValue
289

@<SCITEGIC>MOL_PROPERTY
Probability
SciTegic.value.DoubleValue
0.19

@<SCITEGIC>MOL_PROPERTY
G
SciTegic.value.DoubleValue
547.775

@<SCITEGIC>MOL_PROPERTY
E
SciTegic.value.DoubleValue
367.745

@<SCITEGIC>MOL_PROPERTY
-TS
SciTegic.value.DoubleValue
180.030

@<SCITEGIC>MOL_PROPERTY
U+W
SciTegic.value.DoubleValue
245.234

@<SCITEGIC>MOL_PROPERTY
U
SciTegic.value.DoubleValue
284.019

@<SCITEGIC>MOL_PROPERTY
W
SciTegic.value.DoubleValue
-38.786

@<SCITEGIC>MOL_PROPERTY
W(PB)
SciTegic.value.DoubleValue
-44.907

@<SCITEGIC>MOL_PROPERTY
W(SA)
SciTegic.value.DoubleValue
6.122

@<SCITEGIC>MOL_PROPERTY
Valence
SciTegic.value.DoubleValue
150.861

@<SCITEGIC>MOL_PROPERTY
Coulomb
SciTegic.value.DoubleValue
151.346

@<SCITEGIC>MOL_PROPERTY
VdW
SciTegic.value.DoubleValue
-18.188

@<SCITEGIC>MOL_PROPERTY
VdW6
SciTegic.value.DoubleValue
-169.196

@<SCITEGIC>MOL_PROPERTY
VdW12
SciTegic.value.DoubleValue
151.009

@<SCITEGIC>MOL_PROPERTY
Bond
SciTegic.value.DoubleValue
5.041

@<SCITEGIC>MOL_PROPERTY
Angle
SciTegic.value.DoubleValue
13.854

@<SCITEGIC>MOL_PROPERTY
Pdih
SciTegic.value.DoubleValue
131.965

@<SCITEGIC>MOL_PROPERTY
Idih
SciTegic.value.DoubleValue
0.000

@<SCITEGIC>MOL_PROPERTY
Tether
SciTegic.value.DoubleValue
0.000

@<TRIPOS>MOLECULE
CD_guest-s16_fast_vm2_rndm.mol2 : feprocess host+ligand conformer 54
         139         145           2
SMALL
USER_CHARGES
 
@<TRIPOS>ATOM
       1    C1      16.121397   15.026943   20.951177 C.3        1 MOL1         0.2972
       2    H1      15.034662   14.897439   20.867765 H          1 MOL1         0.0751
       3    O1      16.481326   16.418084   21.094385 O.3        1 MOL1        -0.3740
       4    C2      16.699034   14.212831   22.137884 C.3        1 MOL1         0.1003
       5    H2      16.545303   13.151229   21.903910 H          1 MOL1         0.0783
       6    O2      16.032359   14.508370   23.373085 O.3        1 MOL1        -0.5519
       7    H3      16.185993   15.468729   23.560143 H          1 MOL1         0.3769
       8    C3      18.223902   14.454565   22.254229 C.3        1 MOL1         0.1053
       9    H4      18.388231   15.509841   22.511019 H          1 MOL1         0.0783
      10    O3      18.755750   13.618058   23.285725 O.3        1 MOL1        -0.5519
      11    H5      18.124646   13.704535   24.034885 H          1 MOL1         0.3769
      12    C4      18.935149   14.151655   20.908453 C.3        1 MOL1         0.1018
      13    H6      18.994986   13.060964   20.797931 H          1 MOL1         0.0783
      14    C5      18.197864   14.757650   19.679085 C.3        1 MOL1         0.1043
      15    H7      18.372462   15.839150   19.677347 H          1 MOL1         0.0783
      16    O4      16.769547   14.522235   19.764320 O.3        1 MOL1        -0.3740
      17    C6      18.710157   14.208197   18.326348 C.3        1 MOL1         0.0138
      18    H8      19.724403   14.593752   18.155630 H          1 MOL1         0.0794
      19    H9      18.071785   14.601351   17.523898 H          1 MOL1         0.0794
      20    O5      18.724866   12.775263   18.295744 O.3        1 MOL1        -0.5486
      21    H10     19.012246   12.499632   17.398041 H          1 MOL1         0.3769
      22    C7      15.070097   20.199013   22.015171 C.3        1 MOL1         0.2972
      23    H11     14.481359   21.073629   22.319565 H          1 MOL1         0.0751
      24    O6      16.288202   20.582659   21.347975 O.3        1 MOL1        -0.3740
      25    C8      15.433867   19.338574   23.250239 C.3        1 MOL1         0.1003
      26    H12     14.489840   19.004834   23.700447 H          1 MOL1         0.0783
      27    O7      16.175266   20.097851   24.220074 O.3        1 MOL1        -0.5519
      28    H13     16.077171   21.050718   23.978614 H          1 MOL1         0.3769
      29    C9      16.235718   18.085165   22.828261 C.3        1 MOL1         0.1053
      30    H14     17.209321   18.417600   22.445763 H          1 MOL1         0.0783
      31    O8      16.427249   17.263666   23.982996 O.3        1 MOL1        -0.5519
      32    H15     16.756974   17.884868   24.670974 H          1 MOL1         0.3769
      33    C10     15.512543   17.295926   21.703424 C.3        1 MOL1         0.1018
      34    H16     14.674455   16.740783   22.145126 H          1 MOL1         0.0783
      35    C11     14.996180   18.222988   20.566336 C.3        1 MOL1         0.1043
      36    H17     15.866219   18.569596   19.993432 H          1 MOL1         0.0783
      37    O9      14.303898   19.373308   21.113938 O.3        1 MOL1        -0.3740
      38    C12     14.049612   17.506926   19.573285 C.3        1 MOL1         0.0138
      39    H18     14.640925   16.794908   18.981564 H          1 MOL1         0.0794
      40    H19     13.643468   18.252334   18.876499 H          1 MOL1         0.0794
      41    O10     12.985873   16.816658   20.241522 O.3        1 MOL1        -0.5486
      42    H20     12.389199   16.450784   19.552474 H          1 MOL1         0.3769
      43    C13     18.493345   24.049931   20.654796 C.3        1 MOL1         0.2972
      44    H21     18.833326   25.046142   20.343732 H          1 MOL1         0.0751
      45    O11     19.590181   23.212506   21.074013 O.3        1 MOL1        -0.3740
      46    C14     17.497681   24.149800   21.838771 C.3        1 MOL1         0.1003
      47    H22     16.633185   24.729263   21.489287 H          1 MOL1         0.0783
      48    O12     18.087122   24.823665   22.961957 O.3        1 MOL1        -0.5519
      49    H23     18.996648   24.451372   23.090055 H          1 MOL1         0.3769
      50    C15     16.991475   22.744191   22.251663 C.3        1 MOL1         0.1053
      51    H24     17.841529   22.174892   22.653162 H          1 MOL1         0.0783
      52    O13     15.988418   22.895734   23.262103 O.3        1 MOL1        -0.5519
      53    H25     16.327630   23.612068   23.846487 H          1 MOL1         0.3769
      54    C16     16.430430   21.977849   21.021368 C.3        1 MOL1         0.1018
      55    H26     15.469938   22.420259   20.727372 H          1 MOL1         0.0783
      56    C17     17.406425   22.028886   19.816592 C.3        1 MOL1         0.1043
      57    H27     18.293391   21.440574   20.077867 H          1 MOL1         0.0783
      58    O14     17.809741   23.395128   19.564260 O.3        1 MOL1        -0.3740
      59    C18     16.825294   21.423431   18.514044 C.3        1 MOL1         0.0138
      60    H28     16.850771   20.328836   18.598050 H          1 MOL1         0.0794
      61    H29     17.481595   21.698128   17.677693 H          1 MOL1         0.0794
      62    O15     15.484671   21.853792   18.249839 O.3        1 MOL1        -0.5486
      63    H30     14.900113   21.409069   18.901175 H          1 MOL1         0.3769
      64    C19     23.689338   22.930612   21.285442 C.3        1 MOL1         0.2972
      65    H31     24.777497   23.067188   21.277349 H          1 MOL1         0.0751
      66    O16     23.332863   21.529005   21.320403 O.3        1 MOL1        -0.3740
      67    C20     23.042435   23.680551   22.478574 C.3        1 MOL1         0.1003
      68    H32     23.210539   24.752780   22.312318 H          1 MOL1         0.0783
      69    O17     23.634815   23.316998   23.733328 O.3        1 MOL1        -0.5519
      70    H33     23.407379   22.366892   23.893137 H          1 MOL1         0.3769
      71    C21     21.514568   23.438315   22.485727 C.3        1 MOL1         0.1053
      72    H34     21.331547   22.368584   22.658102 H          1 MOL1         0.0783
      73    O18     20.914058   24.207497   23.532675 O.3        1 MOL1        -0.5519
      74    H35     21.496523   24.077970   24.314191 H          1 MOL1         0.3769
      75    C22     20.890189   23.830142   21.122151 C.3        1 MOL1         0.1018
      76    H36     20.827018   24.925532   21.080995 H          1 MOL1         0.0783
      77    C23     21.697251   23.300835   19.899729 C.3        1 MOL1         0.1043
      78    H37     21.508031   22.225880   19.802404 H          1 MOL1         0.0783
      79    O19     23.120452   23.505842   20.090694 O.3        1 MOL1        -0.3740
      80    C24     21.280989   23.955572   18.560906 C.3        1 MOL1         0.0138
      81    H38     20.278693   23.594466   18.293560 H          1 MOL1         0.0794
      82    H39     21.969834   23.616056   17.775859 H          1 MOL1         0.0794
      83    O20     21.277419   25.386926   18.636673 O.3        1 MOL1        -0.5486
      84    H40     21.062018   25.731689   17.742600 H          1 MOL1         0.3769
      85    C25     24.655298   17.723579   22.336820 C.3        1 MOL1         0.2972
      86    H41     25.212945   16.850546   22.698307 H          1 MOL1         0.0751
      87    O21     23.551032   17.341143   21.493993 O.3        1 MOL1        -0.3740
      88    C26     24.107248   18.551485   23.526466 C.3        1 MOL1         0.1003
      89    H42     24.973502   18.892554   24.108325 H          1 MOL1         0.0783
      90    O22     23.253768   17.764934   24.373675 O.3        1 MOL1        -0.5519
      91    H43     23.432583   16.816460   24.164600 H          1 MOL1         0.3769
      92    C27     23.346080   19.798268   23.017910 C.3        1 MOL1         0.1053
      93    H44     22.448342   19.454128   22.488480 H          1 MOL1         0.0783
      94    O23     22.962519   20.584314   24.148390 O.3        1 MOL1        -0.5519
      95    H45     22.580145   19.931546   24.778426 H          1 MOL1         0.3769
      96    C28     24.212573   20.631039   22.033290 C.3        1 MOL1         0.1018
      97    H46     24.972320   21.172869   22.610808 H          1 MOL1         0.0783
      98    C29     24.901282   19.740580   20.959053 C.3        1 MOL1         0.1043
      99    H47     24.128453   19.398805   20.258126 H          1 MOL1         0.0783
     100    O24     25.525111   18.585397   21.574043 O.3        1 MOL1        -0.3740
     101    C30     25.974054   20.486693   20.128455 C.3        1 MOL1         0.0138
     102    H48     25.481770   21.270413   19.536739 H          1 MOL1         0.0794
     103    H49     26.415421   19.776179   19.417023 H          1 MOL1         0.0794
     104    O25     27.004231   21.059793   20.945265 O.3        1 MOL1        -0.5486
     105    H50     26.611596   21.779170   21.480551 H          1 MOL1         0.3769
     106    C31     21.358715   13.907977   20.626809 C.3        1 MOL1         0.2972
     107    H51     21.029062   12.917934   20.286594 H          1 MOL1         0.0751
     108    O26     20.242996   14.762333   20.961107 O.3        1 MOL1        -0.3740
     109    C32     22.268215   13.785158   21.875595 C.3        1 MOL1         0.1003
     110    H52     23.150514   13.203845   21.577286 H          1 MOL1         0.0783
     111    O27     21.604524   13.098671   22.947771 O.3        1 MOL1        -0.5519
     112    H53     20.681533   13.454851   23.006837 H          1 MOL1         0.3769
     113    C33     22.757877   15.180093   22.338099 C.3        1 MOL1         0.1053
     114    H54     21.886173   15.759408   22.673938 H          1 MOL1         0.0783
     115    O28     23.671876   15.002111   23.425744 O.3        1 MOL1        -0.5519
     116    H55     23.280736   14.275234   23.963209 H          1 MOL1         0.3769
     117    C34     23.430013   15.944124   21.161768 C.3        1 MOL1         0.1018
     118    H56     24.410459   15.497704   20.952387 H          1 MOL1         0.0783
     119    C35     22.560581   15.903108   19.876180 C.3        1 MOL1         0.1043
     120    H57     21.674783   16.518876   20.057299 H          1 MOL1         0.0783
     121    O29     22.135101   14.549791   19.593137 O.3        1 MOL1        -0.3740
     122    C36     23.263476   16.482130   18.623380 C.3        1 MOL1         0.0138
     123    H58     23.301060   17.575660   18.717500 H          1 MOL1         0.0794
     124    H59     22.648470   16.255215   17.742476 H          1 MOL1         0.0794
     125    O30     24.588414   15.967495   18.444689 O.3        1 MOL1        -0.5486
     126    H60     25.157895   16.375197   19.132119 H          1 MOL1         0.3769
     127    C1      20.263887   19.566142   18.729046 C.3        1 MOL1        -0.1693
     128    H1      19.638424   20.446625   18.546597 H          1 MOL1         0.0829
     129    H2      21.039286   19.527806   17.955024 H          1 MOL1         0.0829
     130    C2      19.477015   18.236106   18.973837 C.3        1 MOL1        -0.1768
     131    H3      18.504417   18.155314   18.476438 H          1 MOL1         0.0829
     132    H4      20.050932   17.327682   18.764240 H          1 MOL1         0.0829
     133    C3      19.429410   18.662383   20.473041 C.3        1 MOL1         0.1211
     134    H5      18.595480   19.331272   20.717055 H          1 MOL1         0.0786
     135    C4      20.764997   19.410726   20.201351 C.3        1 MOL1        -0.1768
     136    H6      21.665506   18.800420   20.312935 H          1 MOL1         0.0829
     137    H7      20.897204   20.333129   20.774607 H          1 MOL1         0.0829
     138    O1      19.508345   17.626890   21.422818 O.3        1 MOL1        -0.5515
     139    H8      19.981046   16.867275   21.028560 H          1 MOL1         0.3773
@<TRIPOS>BOND
    1     1     2    1
    2     1     3    1
    3     1     4    1
    4     4     5    1
    5     4     6    1
    6     6     7    1
    7     4     8    1
    8     8     9    1
    9     8    10    1
   10    10    11    1
   11     8    12    1
   12    12    13    1
   13    12    14    1
   14    14    15    1
   15     1    16    1
   16    14    16    1
   17    14    17    1
   18    17    18    1
   19    17    19    1
   20    17    20    1
   21    20    21    1
   22    22    23    1
   23    22    24    1
   24    22    25    1
   25    25    26    1
   26    25    27    1
   27    27    28    1
   28    25    29    1
   29    29    30    1
   30    29    31    1
   31    31    32    1
   32     3    33    1
   33    29    33    1
   34    33    34    1
   35    33    35    1
   36    35    36    1
   37    22    37    1
   38    35    37    1
   39    35    38    1
   40    38    39    1
   41    38    40    1
   42    38    41    1
   43    41    42    1
   44    43    44    1
   45    43    45    1
   46    43    46    1
   47    46    47    1
   48    46    48    1
   49    48    49    1
   50    46    50    1
   51    50    51    1
   52    50    52    1
   53    52    53    1
   54    24    54    1
   55    50    54    1
   56    54    55    1
   57    54    56    1
   58    56    57    1
   59    43    58    1
   60    56    58    1
   61    56    59    1
   62    59    60    1
   63    59    61    1
   64    59    62    1
   65    62    63    1
   66    64    65    1
   67    64    66    1
   68    64    67    1
   69    67    68    1
   70    67    69    1
   71    69    70    1
   72    67    71    1
   73    71    72    1
   74    71    73    1
   75    73    74    1
   76    45    75    1
   77    71    75    1
   78    75    76    1
   79    75    77    1
   80    77    78    1
   81    64    79    1
   82    77    79    1
   83    77    80    1
   84    80    81    1
   85    80    82    1
   86    80    83    1
   87    83    84    1
   88    85    86    1
   89    85    87    1
   90    85    88    1
   91    88    89    1
   92    88    90    1
   93    90    91    1
   94    88    92    1
   95    92    93    1
   96    92    94    1
   97    94    95    1
   98    66    96    1
   99    92    96    1
  100    96    97    1
  101    96    98    1
  102    98    99    1
  103    85   100    1
  104    98   100    1
  105    98   101    1
  106   101   102    1
  107   101   103    1
  108   101   104    1
  109   104   105    1
  110   106   107    1
  111    12   108    1
  112   106   108    1
  113   106   109    1
  114   109   110    1
  115   109   111    1
  116   111   112    1
  117   109   113    1
  118   113   114    1
  119   113   115    1
  120   115   116    1
  121    87   117    1
  122   113   117    1
  123   117   118    1
  124   117   119    1
  125   119   120    1
  126   106   121    1
  127   119   121    1
  128   119   122    1
  129   122   123    1
  130   122   124    1
  131   122   125    1
  132   125   126    1
  133   127   128    1
  134   127   129    1
  135   127   130    1
  136   130   131    1
  137   130   132    1
  138   130   133    1
  139   133   134    1
  140   127   135    1
  141   133   135    1
  142   135   136    1
  143   135   137    1
  144   133   138    1
  145   138   139    1
@<TRIPOS>SUBSTRUCTURE
       1 MOL1            1 RESIDUE      1      MOL     
       2 MOL1          139 RESIDUE      1      MOL     
@<SCITEGIC>MOL_PROPERTY
feprocess Rank
SciTegic.value.IntegerValue
54

@<SCITEGIC>MOL_PROPERTY
Conf_Id
SciTegic.value.IntegerValue
569

@<SCITEGIC>MOL_PROPERTY
Probability
SciTegic.value.DoubleValue
0.18

@<SCITEGIC>MOL_PROPERTY
G
SciTegic.value.DoubleValue
547.804

@<SCITEGIC>MOL_PROPERTY
E
SciTegic.value.DoubleValue
369.630

@<SCITEGIC>MOL_PROPERTY
-TS
SciTegic.value.DoubleValue
178.174

@<SCITEGIC>MOL_PROPERTY
U+W
SciTegic.value.DoubleValue
247.118

@<SCITEGIC>MOL_PROPERTY
U
SciTegic.value.DoubleValue
285.864

@<SCITEGIC>MOL_PROPERTY
W
SciTegic.value.DoubleValue
-38.746

@<SCITEGIC>MOL_PROPERTY
W(PB)
SciTegic.value.DoubleValue
-44.845

@<SCITEGIC>MOL_PROPERTY
W(SA)
SciTegic.value.DoubleValue
6.099

@<SCITEGIC>MOL_PROPERTY
Valence
SciTegic.value.DoubleValue
151.457

@<SCITEGIC>MOL_PROPERTY
Coulomb
SciTegic.value.DoubleValue
153.374

@<SCITEGIC>MOL_PROPERTY
VdW
SciTegic.value.DoubleValue
-18.967

@<SCITEGIC>MOL_PROPERTY
VdW6
SciTegic.value.DoubleValue
-166.121

@<SCITEGIC>MOL_PROPERTY
VdW12
SciTegic.value.DoubleValue
147.154

@<SCITEGIC>MOL_PROPERTY
Bond
SciTegic.value.DoubleValue
4.681

@<SCITEGIC>MOL_PROPERTY
Angle
SciTegic.value.DoubleValue
12.312

@<SCITEGIC>MOL_PROPERTY
Pdih
SciTegic.value.DoubleValue
134.463

@<SCITEGIC>MOL_PROPERTY
Idih
SciTegic.value.DoubleValue
0.000

@<SCITEGIC>MOL_PROPERTY
Tether
SciTegic.value.DoubleValue
0.000

@<TRIPOS>MOLECULE
CD_guest-s16_fast_vm2_rndm.mol2 : feprocess host+ligand conformer 55
         139         145           2
SMALL
USER_CHARGES
 
@<TRIPOS>ATOM
       1    C1      16.194838   15.290113   21.690047 C.3        1 MOL1         0.2972
       2    H1      15.111636   15.151674   21.803305 H          1 MOL1         0.0751
       3    O1      16.529190   16.675157   21.473972 O.3        1 MOL1        -0.3740
       4    C2      16.917010   14.803841   22.969317 C.3        1 MOL1         0.1003
       5    H2      16.689651   13.736763   23.091269 H          1 MOL1         0.0783
       6    O2      16.442633   15.525910   24.117487 O.3        1 MOL1        -0.5519
       7    H3      15.937053   16.303181   23.776548 H          1 MOL1         0.3769
       8    C3      18.449241   14.955273   22.831318 C.3        1 MOL1         0.1053
       9    H4      18.678344   16.027520   22.821681 H          1 MOL1         0.0783
      10    O3      19.091025   14.343546   23.954655 O.3        1 MOL1        -0.5519
      11    H5      18.591548   14.667783   24.737293 H          1 MOL1         0.3769
      12    C4      18.974409   14.322899   21.516573 C.3        1 MOL1         0.1018
      13    H6      19.010843   13.233111   21.647342 H          1 MOL1         0.0783
      14    C5      18.104148   14.685037   20.276660 C.3        1 MOL1         0.1043
      15    H7      18.300897   15.733864   20.025517 H          1 MOL1         0.0783
      16    O4      16.691193   14.529790   20.569083 O.3        1 MOL1        -0.3740
      17    C6      18.435598   13.847512   19.018392 C.3        1 MOL1         0.0138
      18    H8      19.417763   14.160429   18.639005 H          1 MOL1         0.0794
      19    H9      17.697368   14.078343   18.238560 H          1 MOL1         0.0794
      20    O5      18.446247   12.441420   19.294084 O.3        1 MOL1        -0.5486
      21    H10     18.581783   11.971655   18.442305 H          1 MOL1         0.3769
      22    C7      14.764258   20.319098   20.527285 C.3        1 MOL1         0.2972
      23    H11     14.132110   21.134687   20.152998 H          1 MOL1         0.0751
      24    O6      16.018027   20.807477   21.044934 O.3        1 MOL1        -0.3740
      25    C8      14.054064   19.523741   21.655446 C.3        1 MOL1         0.1003
      26    H12     13.151447   19.075677   21.219952 H          1 MOL1         0.0783
      27    O7      13.671194   20.379069   22.743241 O.3        1 MOL1        -0.5519
      28    H13     14.475340   20.887509   23.020098 H          1 MOL1         0.3769
      29    C9      14.961586   18.372864   22.160177 C.3        1 MOL1         0.1053
      30    H14     15.835856   18.817613   22.652517 H          1 MOL1         0.0783
      31    O8      14.246185   17.565889   23.101187 O.3        1 MOL1        -0.5519
      32    H15     13.779100   18.205415   23.684345 H          1 MOL1         0.3769
      33    C10     15.454270   17.496477   20.979927 C.3        1 MOL1         0.1018
      34    H16     14.608363   16.893959   20.623740 H          1 MOL1         0.0783
      35    C11     16.004987   18.335508   19.792057 C.3        1 MOL1         0.1043
      36    H17     16.950426   18.796612   20.095668 H          1 MOL1         0.0783
      37    O9      15.056385   19.381978   19.463459 O.3        1 MOL1        -0.3740
      38    C12     16.318731   17.511049   18.515547 C.3        1 MOL1         0.0138
      39    H18     17.362839   17.177590   18.568693 H          1 MOL1         0.0794
      40    H19     16.242792   18.173840   17.643256 H          1 MOL1         0.0794
      41    O10     15.464259   16.373001   18.345077 O.3        1 MOL1        -0.5486
      42    H20     15.723945   15.708226   19.024476 H          1 MOL1         0.3769
      43    C13     18.405478   24.061749   21.774545 C.3        1 MOL1         0.2972
      44    H21     18.865579   25.043284   21.948037 H          1 MOL1         0.0751
      45    O11     19.397676   23.021992   21.675136 O.3        1 MOL1        -0.3740
      46    C14     17.453321   23.712790   22.942477 C.3        1 MOL1         0.1003
      47    H22     16.662916   24.474228   22.966955 H          1 MOL1         0.0783
      48    O12     18.165586   23.721700   24.190261 O.3        1 MOL1        -0.5519
      49    H23     19.128008   23.669438   23.968513 H          1 MOL1         0.3769
      50    C15     16.790144   22.335652   22.715078 C.3        1 MOL1         0.1053
      51    H24     17.576565   21.577570   22.797596 H          1 MOL1         0.0783
      52    O13     15.808712   22.108779   23.730424 O.3        1 MOL1        -0.5519
      53    H25     16.245558   22.384898   24.567427 H          1 MOL1         0.3769
      54    C16     16.143904   22.218556   21.309151 C.3        1 MOL1         0.1018
      55    H26     15.170990   22.727387   21.322259 H          1 MOL1         0.0783
      56    C17     17.043636   22.792071   20.176184 C.3        1 MOL1         0.1043
      57    H27     17.848087   22.067990   20.001965 H          1 MOL1         0.0783
      58    O14     17.633714   24.063512   20.555232 O.3        1 MOL1        -0.3740
      59    C18     16.299366   22.974609   18.832211 C.3        1 MOL1         0.0138
      60    H28     16.074699   21.981209   18.420645 H          1 MOL1         0.0794
      61    H29     16.971502   23.476833   18.123377 H          1 MOL1         0.0794
      62    O15     15.086690   23.722318   18.985579 O.3        1 MOL1        -0.5486
      63    H30     14.706078   23.859759   18.090650 H          1 MOL1         0.3769
      64    C19     23.563286   22.658770   21.202638 C.3        1 MOL1         0.2972
      65    H31     24.603415   22.879068   20.929927 H          1 MOL1         0.0751
      66    O16     23.414139   21.309560   21.680696 O.3        1 MOL1        -0.3740
      67    C20     23.083892   23.600007   22.340942 C.3        1 MOL1         0.1003
      68    H32     23.208093   24.631983   21.988091 H          1 MOL1         0.0783
      69    O17     23.875981   23.406482   23.524573 O.3        1 MOL1        -0.5519
      70    H33     23.997728   22.430093   23.636882 H          1 MOL1         0.3769
      71    C21     21.580645   23.381357   22.656718 C.3        1 MOL1         0.1053
      72    H34     21.461900   22.378946   23.090903 H          1 MOL1         0.0783
      73    O18     21.136301   24.372452   23.589514 O.3        1 MOL1        -0.5519
      74    H35     21.827355   24.391656   24.288603 H          1 MOL1         0.3769
      75    C22     20.735067   23.451519   21.361718 C.3        1 MOL1         0.1018
      76    H36     20.752401   24.480583   20.978771 H          1 MOL1         0.0783
      77    C23     21.301934   22.501868   20.274632 C.3        1 MOL1         0.1043
      78    H37     21.225355   21.469486   20.637837 H          1 MOL1         0.0783
      79    O19     22.694268   22.835354   20.059861 O.3        1 MOL1        -0.3740
      80    C24     20.558830   22.562701   18.914856 C.3        1 MOL1         0.0138
      81    H38     19.742469   21.830105   18.934011 H          1 MOL1         0.0794
      82    H39     21.250081   22.243840   18.123429 H          1 MOL1         0.0794
      83    O20     20.032612   23.861960   18.614583 O.3        1 MOL1        -0.5486
      84    H40     19.296362   24.034211   19.246645 H          1 MOL1         0.3769
      85    C25     25.212223   17.593740   21.730310 C.3        1 MOL1         0.2972
      86    H41     25.892112   16.732106   21.722990 H          1 MOL1         0.0751
      87    O21     23.833533   17.180260   21.750713 O.3        1 MOL1        -0.3740
      88    C26     25.468062   18.453328   22.991476 C.3        1 MOL1         0.1003
      89    H42     26.505476   18.809615   22.947243 H          1 MOL1         0.0783
      90    O22     25.285056   17.660886   24.175749 O.3        1 MOL1        -0.5519
      91    H43     24.637537   16.951348   23.944337 H          1 MOL1         0.3769
      92    C27     24.536479   19.688317   23.016058 C.3        1 MOL1         0.1053
      93    H44     23.509131   19.333239   23.168450 H          1 MOL1         0.0783
      94    O23     24.908002   20.549554   24.097781 O.3        1 MOL1        -0.5519
      95    H45     24.994241   19.956604   24.876999 H          1 MOL1         0.3769
      96    C28     24.589753   20.475967   21.682905 C.3        1 MOL1         0.1018
      97    H46     25.514579   21.067570   21.668694 H          1 MOL1         0.0783
      98    C29     24.520730   19.554828   20.429904 C.3        1 MOL1         0.1043
      99    H47     23.490740   19.186757   20.346334 H          1 MOL1         0.0783
     100    O24     25.419178   18.422501   20.568374 O.3        1 MOL1        -0.3740
     101    C30     24.861781   20.277251   19.104461 C.3        1 MOL1         0.0138
     102    H48     24.035634   20.953749   18.850092 H          1 MOL1         0.0794
     103    H49     24.925147   19.528565   18.303385 H          1 MOL1         0.0794
     104    O25     26.086681   21.015763   19.192449 O.3        1 MOL1        -0.5486
     105    H50     26.267758   21.398796   18.306556 H          1 MOL1         0.3769
     106    C31     21.315532   13.980083   20.847612 C.3        1 MOL1         0.2972
     107    H51     20.894548   13.032073   20.488600 H          1 MOL1         0.0751
     108    O26     20.284796   14.883280   21.296565 O.3        1 MOL1        -0.3740
     109    C32     22.301011   13.742379   22.023035 C.3        1 MOL1         0.1003
     110    H52     23.102450   13.091213   21.650602 H          1 MOL1         0.0783
     111    O27     21.648105   13.098200   23.128708 O.3        1 MOL1        -0.5519
     112    H53     20.837280   13.626103   23.342915 H          1 MOL1         0.3769
     113    C33     22.943439   15.076531   22.479001 C.3        1 MOL1         0.1053
     114    H54     22.153314   15.695603   22.924010 H          1 MOL1         0.0783
     115    O28     23.957596   14.817581   23.455474 O.3        1 MOL1        -0.5519
     116    H55     23.558281   14.166326   24.074315 H          1 MOL1         0.3769
     117    C34     23.551851   15.848613   21.280503 C.3        1 MOL1         0.1018
     118    H56     24.459102   15.324858   20.951891 H          1 MOL1         0.0783
     119    C35     22.556354   15.952487   20.090870 C.3        1 MOL1         0.1043
     120    H57     21.723083   16.596145   20.394604 H          1 MOL1         0.0783
     121    O29     22.047259   14.631284   19.784865 O.3        1 MOL1        -0.3740
     122    C36     23.143886   16.566738   18.793480 C.3        1 MOL1         0.0138
     123    H58     22.984390   17.651515   18.818237 H          1 MOL1         0.0794
     124    H59     22.572386   16.184520   17.937169 H          1 MOL1         0.0794
     125    O30     24.538038   16.292025   18.613773 O.3        1 MOL1        -0.5486
     126    H60     25.029678   16.906915   19.206892 H          1 MOL1         0.3769
     127    C1      19.781968   18.380180   21.158910 C.3        1 MOL1        -0.1693
     128    H1      19.341375   17.385699   21.259583 H          1 MOL1         0.0829
     129    H2      20.022462   18.551401   20.103594 H          1 MOL1         0.0829
     130    C2      20.916369   18.705711   22.181691 C.3        1 MOL1        -0.1768
     131    H3      21.508873   17.860165   22.535870 H          1 MOL1         0.0829
     132    H4      21.588621   19.509384   21.871718 H          1 MOL1         0.0829
     133    C3      19.788616   19.156899   23.149522 C.3        1 MOL1         0.1211
     134    H5      19.351853   18.335779   23.733484 H          1 MOL1         0.0786
     135    C4      18.984897   19.514625   21.869735 C.3        1 MOL1        -0.1768
     136    H6      17.909338   19.364107   21.960284 H          1 MOL1         0.0829
     137    H7      19.176618   20.512970   21.469259 H          1 MOL1         0.0829
     138    O1      20.109743   20.249742   23.978109 O.3        1 MOL1        -0.5515
     139    H8      19.275427   20.579276   24.367202 H          1 MOL1         0.3773
@<TRIPOS>BOND
    1     1     2    1
    2     1     3    1
    3     1     4    1
    4     4     5    1
    5     4     6    1
    6     6     7    1
    7     4     8    1
    8     8     9    1
    9     8    10    1
   10    10    11    1
   11     8    12    1
   12    12    13    1
   13    12    14    1
   14    14    15    1
   15     1    16    1
   16    14    16    1
   17    14    17    1
   18    17    18    1
   19    17    19    1
   20    17    20    1
   21    20    21    1
   22    22    23    1
   23    22    24    1
   24    22    25    1
   25    25    26    1
   26    25    27    1
   27    27    28    1
   28    25    29    1
   29    29    30    1
   30    29    31    1
   31    31    32    1
   32     3    33    1
   33    29    33    1
   34    33    34    1
   35    33    35    1
   36    35    36    1
   37    22    37    1
   38    35    37    1
   39    35    38    1
   40    38    39    1
   41    38    40    1
   42    38    41    1
   43    41    42    1
   44    43    44    1
   45    43    45    1
   46    43    46    1
   47    46    47    1
   48    46    48    1
   49    48    49    1
   50    46    50    1
   51    50    51    1
   52    50    52    1
   53    52    53    1
   54    24    54    1
   55    50    54    1
   56    54    55    1
   57    54    56    1
   58    56    57    1
   59    43    58    1
   60    56    58    1
   61    56    59    1
   62    59    60    1
   63    59    61    1
   64    59    62    1
   65    62    63    1
   66    64    65    1
   67    64    66    1
   68    64    67    1
   69    67    68    1
   70    67    69    1
   71    69    70    1
   72    67    71    1
   73    71    72    1
   74    71    73    1
   75    73    74    1
   76    45    75    1
   77    71    75    1
   78    75    76    1
   79    75    77    1
   80    77    78    1
   81    64    79    1
   82    77    79    1
   83    77    80    1
   84    80    81    1
   85    80    82    1
   86    80    83    1
   87    83    84    1
   88    85    86    1
   89    85    87    1
   90    85    88    1
   91    88    89    1
   92    88    90    1
   93    90    91    1
   94    88    92    1
   95    92    93    1
   96    92    94    1
   97    94    95    1
   98    66    96    1
   99    92    96    1
  100    96    97    1
  101    96    98    1
  102    98    99    1
  103    85   100    1
  104    98   100    1
  105    98   101    1
  106   101   102    1
  107   101   103    1
  108   101   104    1
  109   104   105    1
  110   106   107    1
  111    12   108    1
  112   106   108    1
  113   106   109    1
  114   109   110    1
  115   109   111    1
  116   111   112    1
  117   109   113    1
  118   113   114    1
  119   113   115    1
  120   115   116    1
  121    87   117    1
  122   113   117    1
  123   117   118    1
  124   117   119    1
  125   119   120    1
  126   106   121    1
  127   119   121    1
  128   119   122    1
  129   122   123    1
  130   122   124    1
  131   122   125    1
  132   125   126    1
  133   127   128    1
  134   127   129    1
  135   127   130    1
  136   130   131    1
  137   130   132    1
  138   130   133    1
  139   133   134    1
  140   127   135    1
  141   133   135    1
  142   135   136    1
  143   135   137    1
  144   133   138    1
  145   138   139    1
@<TRIPOS>SUBSTRUCTURE
       1 MOL1            1 RESIDUE      1      MOL     
       2 MOL1          139 RESIDUE      1      MOL     
@<SCITEGIC>MOL_PROPERTY
feprocess Rank
SciTegic.value.IntegerValue
55

@<SCITEGIC>MOL_PROPERTY
Conf_Id
SciTegic.value.IntegerValue
976

@<SCITEGIC>MOL_PROPERTY
Probability
SciTegic.value.DoubleValue
0.18

@<SCITEGIC>MOL_PROPERTY
G
SciTegic.value.DoubleValue
547.823

@<SCITEGIC>MOL_PROPERTY
E
SciTegic.value.DoubleValue
370.668

@<SCITEGIC>MOL_PROPERTY
-TS
SciTegic.value.DoubleValue
177.155

@<SCITEGIC>MOL_PROPERTY
U+W
SciTegic.value.DoubleValue
248.157

@<SCITEGIC>MOL_PROPERTY
U
SciTegic.value.DoubleValue
285.625

@<SCITEGIC>MOL_PROPERTY
W
SciTegic.value.DoubleValue
-37.468

@<SCITEGIC>MOL_PROPERTY
W(PB)
SciTegic.value.DoubleValue
-43.433

@<SCITEGIC>MOL_PROPERTY
W(SA)
SciTegic.value.DoubleValue
5.964

@<SCITEGIC>MOL_PROPERTY
Valence
SciTegic.value.DoubleValue
154.509

@<SCITEGIC>MOL_PROPERTY
Coulomb
SciTegic.value.DoubleValue
153.317

@<SCITEGIC>MOL_PROPERTY
VdW
SciTegic.value.DoubleValue
-22.201

@<SCITEGIC>MOL_PROPERTY
VdW6
SciTegic.value.DoubleValue
-168.202

@<SCITEGIC>MOL_PROPERTY
VdW12
SciTegic.value.DoubleValue
146.001

@<SCITEGIC>MOL_PROPERTY
Bond
SciTegic.value.DoubleValue
4.727

@<SCITEGIC>MOL_PROPERTY
Angle
SciTegic.value.DoubleValue
11.411

@<SCITEGIC>MOL_PROPERTY
Pdih
SciTegic.value.DoubleValue
138.371

@<SCITEGIC>MOL_PROPERTY
Idih
SciTegic.value.DoubleValue
0.000

@<SCITEGIC>MOL_PROPERTY
Tether
SciTegic.value.DoubleValue
0.000

@<TRIPOS>MOLECULE
CD_guest-s16_fast_vm2_rndm.mol2 : feprocess host+ligand conformer 56
         139         145           2
SMALL
USER_CHARGES
 
@<TRIPOS>ATOM
       1    C1      16.242073   15.273134   20.745323 C.3        1 MOL1         0.2972
       2    H1      15.194150   15.136497   20.448398 H          1 MOL1         0.0751
       3    O1      16.477236   16.585949   21.287543 O.3        1 MOL1        -0.3740
       4    C2      16.650862   14.242076   21.829021 C.3        1 MOL1         0.1003
       5    H2      16.502124   13.242064   21.401274 H          1 MOL1         0.0783
       6    O2      15.834574   14.378607   23.003847 O.3        1 MOL1        -0.5519
       7    H3      15.811189   15.341155   23.238026 H          1 MOL1         0.3769
       8    C3      18.150047   14.386448   22.196916 C.3        1 MOL1         0.1053
       9    H4      18.287022   15.350303   22.706210 H          1 MOL1         0.0783
      10    O3      18.518286   13.318386   23.074423 O.3        1 MOL1        -0.5519
      11    H5      17.769620   13.240878   23.708601 H          1 MOL1         0.3769
      12    C4      19.041834   14.377041   20.926776 C.3        1 MOL1         0.1018
      13    H6      19.069929   13.361375   20.511437 H          1 MOL1         0.0783
      14    C5      18.514429   15.357206   19.845606 C.3        1 MOL1         0.1043
      15    H7      18.633707   16.382042   20.221045 H          1 MOL1         0.0783
      16    O4      17.111378   15.095114   19.605217 O.3        1 MOL1        -0.3740
      17    C6      19.279673   15.282154   18.499993 C.3        1 MOL1         0.0138
      18    H8      20.211412   15.854206   18.598979 H          1 MOL1         0.0794
      19    H9      18.678198   15.779481   17.727556 H          1 MOL1         0.0794
      20    O5      19.582581   13.939535   18.101806 O.3        1 MOL1        -0.5486
      21    H10     20.294349   13.613725   18.695202 H          1 MOL1         0.3769
      22    C7      14.779040   20.297672   21.805903 C.3        1 MOL1         0.2972
      23    H11     14.123639   21.168042   21.941185 H          1 MOL1         0.0751
      24    O6      16.156668   20.698496   21.663526 O.3        1 MOL1        -0.3740
      25    C8      14.664827   19.363445   23.034815 C.3        1 MOL1         0.1003
      26    H12     13.621921   19.027605   23.103477 H          1 MOL1         0.0783
      27    O7      15.018285   20.073490   24.231224 O.3        1 MOL1        -0.5519
      28    H13     15.662191   20.767248   23.958838 H          1 MOL1         0.3769
      29    C9      15.561544   18.116625   22.864461 C.3        1 MOL1         0.1053
      30    H14     16.605162   18.449509   22.898905 H          1 MOL1         0.0783
      31    O8      15.317354   17.196421   23.933427 O.3        1 MOL1        -0.5519
      32    H15     15.336194   17.744340   24.749434 H          1 MOL1         0.3769
      33    C10     15.320344   17.414793   21.506325 C.3        1 MOL1         0.1018
      34    H16     14.395335   16.827080   21.576255 H          1 MOL1         0.0783
      35    C11     15.242960   18.408475   20.313402 C.3        1 MOL1         0.1043
      36    H17     16.263303   18.759177   20.123946 H          1 MOL1         0.0783
      37    O9      14.402632   19.548487   20.631682 O.3        1 MOL1        -0.3740
      38    C12     14.723205   17.770271   19.002678 C.3        1 MOL1         0.0138
      39    H18     15.493992   17.091671   18.613515 H          1 MOL1         0.0794
      40    H19     14.582971   18.563337   18.255937 H          1 MOL1         0.0794
      41    O10     13.499245   17.052702   19.202522 O.3        1 MOL1        -0.5486
      42    H20     13.191051   16.738728   18.324462 H          1 MOL1         0.3769
      43    C13     18.539302   23.932847   20.603382 C.3        1 MOL1         0.2972
      44    H21     18.963034   24.858943   20.193917 H          1 MOL1         0.0751
      45    O11     19.560331   23.076671   21.151581 O.3        1 MOL1        -0.3740
      46    C14     17.489704   24.232304   21.706336 C.3        1 MOL1         0.1003
      47    H22     16.685696   24.816019   21.239482 H          1 MOL1         0.0783
      48    O12     18.058047   24.995302   22.782167 O.3        1 MOL1        -0.5519
      49    H23     18.825144   24.478098   23.136863 H          1 MOL1         0.3769
      50    C15     16.873682   22.917436   22.245332 C.3        1 MOL1         0.1053
      51    H24     17.658927   22.378993   22.788951 H          1 MOL1         0.0783
      52    O13     15.797449   23.222661   23.137449 O.3        1 MOL1        -0.5519
      53    H25     16.138185   23.937691   23.719414 H          1 MOL1         0.3769
      54    C16     16.366340   22.007142   21.096129 C.3        1 MOL1         0.1018
      55    H26     15.437072   22.437523   20.700301 H          1 MOL1         0.0783
      56    C17     17.397628   21.872307   19.938314 C.3        1 MOL1         0.1043
      57    H27     18.244124   21.272869   20.298338 H          1 MOL1         0.0783
      58    O14     17.866525   23.191397   19.563769 O.3        1 MOL1        -0.3740
      59    C18     16.863902   21.173953   18.659324 C.3        1 MOL1         0.0138
      60    H28     17.092320   20.103777   18.722230 H          1 MOL1         0.0794
      61    H29     17.422202   21.557937   17.795033 H          1 MOL1         0.0794
      62    O15     15.458086   21.359400   18.450924 O.3        1 MOL1        -0.5486
      63    H30     14.986481   20.842321   19.145381 H          1 MOL1         0.3769
      64    C19     23.544423   22.733792   22.042280 C.3        1 MOL1         0.2972
      65    H31     24.607637   22.854995   22.287248 H          1 MOL1         0.0751
      66    O16     23.213050   21.357634   21.774992 O.3        1 MOL1        -0.3740
      67    C20     22.675720   23.215843   23.226883 C.3        1 MOL1         0.1003
      68    H32     22.884496   24.282478   23.381344 H          1 MOL1         0.0783
      69    O17     23.004222   22.485634   24.420407 O.3        1 MOL1        -0.5519
      70    H33     23.532967   21.697999   24.141130 H          1 MOL1         0.3769
      71    C21     21.174334   23.059981   22.897605 C.3        1 MOL1         0.1053
      72    H34     20.957432   21.988310   22.836220 H          1 MOL1         0.0783
      73    O18     20.392073   23.647224   23.942017 O.3        1 MOL1        -0.5519
      74    H35     20.801004   23.321650   24.775140 H          1 MOL1         0.3769
      75    C22     20.804902   23.691727   21.533067 C.3        1 MOL1         0.1018
      76    H36     20.711431   24.778681   21.658691 H          1 MOL1         0.0783
      77    C23     21.829058   23.358373   20.408944 C.3        1 MOL1         0.1043
      78    H37     21.669096   22.312335   20.119644 H          1 MOL1         0.0783
      79    O19     23.193567   23.511605   20.879440 O.3        1 MOL1        -0.3740
      80    C24     21.651699   24.214402   19.132337 C.3        1 MOL1         0.0138
      81    H38     20.728162   23.900728   18.627172 H          1 MOL1         0.0794
      82    H39     22.484790   24.001969   18.448756 H          1 MOL1         0.0794
      83    O20     21.593043   25.615402   19.426582 O.3        1 MOL1        -0.5486
      84    H40     21.565757   26.098849   18.572033 H          1 MOL1         0.3769
      85    C25     25.009638   17.689996   20.968807 C.3        1 MOL1         0.2972
      86    H41     25.689632   16.883382   20.665624 H          1 MOL1         0.0751
      87    O21     23.678513   17.194755   21.223725 O.3        1 MOL1        -0.3740
      88    C26     25.527931   18.418445   22.239371 C.3        1 MOL1         0.1003
      89    H42     26.495423   18.868812   21.981891 H          1 MOL1         0.0783
      90    O22     25.718408   17.512974   23.336500 O.3        1 MOL1        -0.5519
      91    H43     24.849531   17.070098   23.508360 H          1 MOL1         0.3769
      92    C27     24.561625   19.562987   22.633824 C.3        1 MOL1         0.1053
      93    H44     23.600057   19.117895   22.921824 H          1 MOL1         0.0783
      94    O23     25.100773   20.301478   23.735170 O.3        1 MOL1        -0.5519
      95    H45     25.450541   19.621547   24.353654 H          1 MOL1         0.3769
      96    C28     24.320595   20.507938   21.431186 C.3        1 MOL1         0.1018
      97    H46     25.239323   21.081090   21.249357 H          1 MOL1         0.0783
      98    C29     23.944161   19.734020   20.137497 C.3        1 MOL1         0.1043
      99    H47     22.953322   19.286328   20.276304 H          1 MOL1         0.0783
     100    O24     24.914575   18.679566   19.917853 O.3        1 MOL1        -0.3740
     101    C30     23.857198   20.613224   18.861876 C.3        1 MOL1         0.0138
     102    H48     22.825662   20.972260   18.758283 H          1 MOL1         0.0794
     103    H49     24.060307   19.981187   17.987076 H          1 MOL1         0.0794
     104    O25     24.752026   21.732588   18.877997 O.3        1 MOL1        -0.5486
     105    H50     24.386812   22.388029   19.517056 H          1 MOL1         0.3769
     106    C31     21.330954   13.846556   21.650970 C.3        1 MOL1         0.2972
     107    H51     20.877509   12.854947   21.777739 H          1 MOL1         0.0751
     108    O26     20.355855   14.843078   21.278944 O.3        1 MOL1        -0.3740
     109    C32     22.023421   14.301001   22.959083 C.3        1 MOL1         0.1003
     110    H52     22.862292   13.618151   23.147037 H          1 MOL1         0.0783
     111    O27     21.124224   14.260647   24.077758 O.3        1 MOL1        -0.5519
     112    H53     20.219643   14.090632   23.717682 H          1 MOL1         0.3769
     113    C33     22.591300   15.724361   22.773528 C.3        1 MOL1         0.1053
     114    H54     21.743119   16.390902   22.582810 H          1 MOL1         0.0783
     115    O28     23.259826   16.132024   23.970835 O.3        1 MOL1        -0.5519
     116    H55     22.698934   15.767976   24.695424 H          1 MOL1         0.3769
     117    C34     23.542019   15.797593   21.551702 C.3        1 MOL1         0.1018
     118    H56     24.502508   15.341010   21.825232 H          1 MOL1         0.0783
     119    C35     22.948431   15.099353   20.290745 C.3        1 MOL1         0.1043
     120    H57     22.169071   15.756017   19.883373 H          1 MOL1         0.0783
     121    O29     22.348307   13.818947   20.626787 O.3        1 MOL1        -0.3740
     122    C36     23.986814   14.875791   19.165740 C.3        1 MOL1         0.0138
     123    H58     24.246135   15.851230   18.732259 H          1 MOL1         0.0794
     124    H59     23.519500   14.279400   18.370664 H          1 MOL1         0.0794
     125    O30     25.171242   14.227113   19.645402 O.3        1 MOL1        -0.5486
     126    H60     25.747807   14.048604   18.870459 H          1 MOL1         0.3769
     127    C1      19.160077   18.698528   22.177479 C.3        1 MOL1        -0.1693
     128    H1      18.479142   18.985585   21.368948 H          1 MOL1         0.0829
     129    H2      18.998176   17.639760   22.415687 H          1 MOL1         0.0829
     130    C2      19.191921   19.644501   23.423688 C.3        1 MOL1        -0.1768
     131    H3      19.004835   20.698581   23.199013 H          1 MOL1         0.0829
     132    H4      18.562089   19.348139   24.269461 H          1 MOL1         0.0829
     133    C3      20.703265   19.277356   23.543235 C.3        1 MOL1         0.1211
     134    H5      21.349795   20.090726   23.894717 H          1 MOL1         0.0786
     135    C4      20.657331   19.098142   21.991301 C.3        1 MOL1        -0.1768
     136    H6      21.304423   18.324711   21.571449 H          1 MOL1         0.0829
     137    H7      20.807935   20.025052   21.425789 H          1 MOL1         0.0829
     138    O1      20.960182   18.109145   24.294612 O.3        1 MOL1        -0.5515
     139    H8      21.874790   17.814329   24.099271 H          1 MOL1         0.3773
@<TRIPOS>BOND
    1     1     2    1
    2     1     3    1
    3     1     4    1
    4     4     5    1
    5     4     6    1
    6     6     7    1
    7     4     8    1
    8     8     9    1
    9     8    10    1
   10    10    11    1
   11     8    12    1
   12    12    13    1
   13    12    14    1
   14    14    15    1
   15     1    16    1
   16    14    16    1
   17    14    17    1
   18    17    18    1
   19    17    19    1
   20    17    20    1
   21    20    21    1
   22    22    23    1
   23    22    24    1
   24    22    25    1
   25    25    26    1
   26    25    27    1
   27    27    28    1
   28    25    29    1
   29    29    30    1
   30    29    31    1
   31    31    32    1
   32     3    33    1
   33    29    33    1
   34    33    34    1
   35    33    35    1
   36    35    36    1
   37    22    37    1
   38    35    37    1
   39    35    38    1
   40    38    39    1
   41    38    40    1
   42    38    41    1
   43    41    42    1
   44    43    44    1
   45    43    45    1
   46    43    46    1
   47    46    47    1
   48    46    48    1
   49    48    49    1
   50    46    50    1
   51    50    51    1
   52    50    52    1
   53    52    53    1
   54    24    54    1
   55    50    54    1
   56    54    55    1
   57    54    56    1
   58    56    57    1
   59    43    58    1
   60    56    58    1
   61    56    59    1
   62    59    60    1
   63    59    61    1
   64    59    62    1
   65    62    63    1
   66    64    65    1
   67    64    66    1
   68    64    67    1
   69    67    68    1
   70    67    69    1
   71    69    70    1
   72    67    71    1
   73    71    72    1
   74    71    73    1
   75    73    74    1
   76    45    75    1
   77    71    75    1
   78    75    76    1
   79    75    77    1
   80    77    78    1
   81    64    79    1
   82    77    79    1
   83    77    80    1
   84    80    81    1
   85    80    82    1
   86    80    83    1
   87    83    84    1
   88    85    86    1
   89    85    87    1
   90    85    88    1
   91    88    89    1
   92    88    90    1
   93    90    91    1
   94    88    92    1
   95    92    93    1
   96    92    94    1
   97    94    95    1
   98    66    96    1
   99    92    96    1
  100    96    97    1
  101    96    98    1
  102    98    99    1
  103    85   100    1
  104    98   100    1
  105    98   101    1
  106   101   102    1
  107   101   103    1
  108   101   104    1
  109   104   105    1
  110   106   107    1
  111    12   108    1
  112   106   108    1
  113   106   109    1
  114   109   110    1
  115   109   111    1
  116   111   112    1
  117   109   113    1
  118   113   114    1
  119   113   115    1
  120   115   116    1
  121    87   117    1
  122   113   117    1
  123   117   118    1
  124   117   119    1
  125   119   120    1
  126   106   121    1
  127   119   121    1
  128   119   122    1
  129   122   123    1
  130   122   124    1
  131   122   125    1
  132   125   126    1
  133   127   128    1
  134   127   129    1
  135   127   130    1
  136   130   131    1
  137   130   132    1
  138   130   133    1
  139   133   134    1
  140   127   135    1
  141   133   135    1
  142   135   136    1
  143   135   137    1
  144   133   138    1
  145   138   139    1
@<TRIPOS>SUBSTRUCTURE
       1 MOL1            1 RESIDUE      1      MOL     
       2 MOL1          139 RESIDUE      1      MOL     
@<SCITEGIC>MOL_PROPERTY
feprocess Rank
SciTegic.value.IntegerValue
56

@<SCITEGIC>MOL_PROPERTY
Conf_Id
SciTegic.value.IntegerValue
973

@<SCITEGIC>MOL_PROPERTY
Probability
SciTegic.value.DoubleValue
0.17

@<SCITEGIC>MOL_PROPERTY
G
SciTegic.value.DoubleValue
547.869

@<SCITEGIC>MOL_PROPERTY
E
SciTegic.value.DoubleValue
370.041

@<SCITEGIC>MOL_PROPERTY
-TS
SciTegic.value.DoubleValue
177.828

@<SCITEGIC>MOL_PROPERTY
U+W
SciTegic.value.DoubleValue
247.530

@<SCITEGIC>MOL_PROPERTY
U
SciTegic.value.DoubleValue
284.670

@<SCITEGIC>MOL_PROPERTY
W
SciTegic.value.DoubleValue
-37.140

@<SCITEGIC>MOL_PROPERTY
W(PB)
SciTegic.value.DoubleValue
-43.146

@<SCITEGIC>MOL_PROPERTY
W(SA)
SciTegic.value.DoubleValue
6.007

@<SCITEGIC>MOL_PROPERTY
Valence
SciTegic.value.DoubleValue
152.917

@<SCITEGIC>MOL_PROPERTY
Coulomb
SciTegic.value.DoubleValue
151.849

@<SCITEGIC>MOL_PROPERTY
VdW
SciTegic.value.DoubleValue
-20.097

@<SCITEGIC>MOL_PROPERTY
VdW6
SciTegic.value.DoubleValue
-167.720

@<SCITEGIC>MOL_PROPERTY
VdW12
SciTegic.value.DoubleValue
147.623

@<SCITEGIC>MOL_PROPERTY
Bond
SciTegic.value.DoubleValue
4.601

@<SCITEGIC>MOL_PROPERTY
Angle
SciTegic.value.DoubleValue
11.970

@<SCITEGIC>MOL_PROPERTY
Pdih
SciTegic.value.DoubleValue
136.346

@<SCITEGIC>MOL_PROPERTY
Idih
SciTegic.value.DoubleValue
0.000

@<SCITEGIC>MOL_PROPERTY
Tether
SciTegic.value.DoubleValue
0.000

@<TRIPOS>MOLECULE
CD_guest-s16_fast_vm2_rndm.mol2 : feprocess host+ligand conformer 57
         139         145           2
SMALL
USER_CHARGES
 
@<TRIPOS>ATOM
       1    C1      16.206548   15.227773   21.455712 C.3        1 MOL1         0.2972
       2    H1      15.116924   15.128555   21.365148 H          1 MOL1         0.0751
       3    O1      16.624316   16.600572   21.339587 O.3        1 MOL1        -0.3740
       4    C2      16.669457   14.695962   22.833279 C.3        1 MOL1         0.1003
       5    H2      16.404355   13.631990   22.886434 H          1 MOL1         0.0783
       6    O2      16.007721   15.406642   23.892047 O.3        1 MOL1        -0.5519
       7    H3      15.636538   16.230141   23.492174 H          1 MOL1         0.3769
       8    C3      18.203489   14.818755   22.974920 C.3        1 MOL1         0.1053
       9    H4      18.451239   15.885909   23.003457 H          1 MOL1         0.0783
      10    O3      18.629260   14.198888   24.192427 O.3        1 MOL1        -0.5519
      11    H5      17.995846   14.519407   24.872918 H          1 MOL1         0.3769
      12    C4      18.939165   14.180168   21.771440 C.3        1 MOL1         0.1018
      13    H6      18.909298   13.088659   21.885568 H          1 MOL1         0.0783
      14    C5      18.325985   14.585527   20.401022 C.3        1 MOL1         0.1043
      15    H7      18.602891   15.629442   20.211977 H          1 MOL1         0.0783
      16    O4      16.878421   14.474034   20.425691 O.3        1 MOL1        -0.3740
      17    C6      18.855252   13.743702   19.215631 C.3        1 MOL1         0.0138
      18    H8      19.908018   14.003098   19.044174 H          1 MOL1         0.0794
      19    H9      18.300037   14.023041   18.310096 H          1 MOL1         0.0794
      20    O5      18.734798   12.336692   19.459471 O.3        1 MOL1        -0.5486
      21    H10     19.060967   11.867214   18.661103 H          1 MOL1         0.3769
      22    C7      15.173637   20.311137   20.116428 C.3        1 MOL1         0.2972
      23    H11     14.628569   21.126481   19.623424 H          1 MOL1         0.0751
      24    O6      16.310338   20.801108   20.855517 O.3        1 MOL1        -0.3740
      25    C8      14.252912   19.529217   21.092644 C.3        1 MOL1         0.1003
      26    H12     13.433951   19.104677   20.497517 H          1 MOL1         0.0783
      27    O7      13.699486   20.389458   22.100509 O.3        1 MOL1        -0.5519
      28    H13     14.456210   20.844777   22.549870 H          1 MOL1         0.3769
      29    C9      15.025415   18.355836   21.745775 C.3        1 MOL1         0.1053
      30    H14     15.807776   18.779155   22.389824 H          1 MOL1         0.0783
      31    O8      14.130913   17.563489   22.533631 O.3        1 MOL1        -0.5519
      32    H15     13.583041   18.211663   23.030345 H          1 MOL1         0.3769
      33    C10     15.702997   17.475212   20.665742 C.3        1 MOL1         0.1018
      34    H16     14.924172   16.916750   20.129703 H          1 MOL1         0.0783
      35    C11     16.512972   18.317985   19.642736 C.3        1 MOL1         0.1043
      36    H17     17.371850   18.764156   20.159559 H          1 MOL1         0.0783
      37    O9      15.663244   19.373726   19.130322 O.3        1 MOL1        -0.3740
      38    C12     17.083633   17.508577   18.448379 C.3        1 MOL1         0.0138
      39    H18     18.088094   17.158254   18.716094 H          1 MOL1         0.0794
      40    H19     17.204527   18.186109   17.592631 H          1 MOL1         0.0794
      41    O10     16.269227   16.388907   18.077264 O.3        1 MOL1        -0.5486
      42    H20     16.349218   15.717291   18.794266 H          1 MOL1         0.3769
      43    C13     18.365137   24.173152   21.982274 C.3        1 MOL1         0.2972
      44    H21     18.730313   25.173368   22.248713 H          1 MOL1         0.0751
      45    O11     19.428854   23.203963   21.958913 O.3        1 MOL1        -0.3740
      46    C14     17.319009   23.698939   23.017895 C.3        1 MOL1         0.1003
      47    H22     16.472576   24.397042   22.980579 H          1 MOL1         0.0783
      48    O12     17.884984   23.704894   24.338475 O.3        1 MOL1        -0.5519
      49    H23     18.861105   23.588907   24.232786 H          1 MOL1         0.3769
      50    C15     16.795472   22.288248   22.659900 C.3        1 MOL1         0.1053
      51    H24     17.618616   21.576277   22.796183 H          1 MOL1         0.0783
      52    O13     15.720546   21.944690   23.539680 O.3        1 MOL1        -0.5519
      53    H25     16.044925   22.180352   24.437750 H          1 MOL1         0.3769
      54    C16     16.323256   22.203296   21.185987 C.3        1 MOL1         0.1018
      55    H26     15.325398   22.655731   21.111082 H          1 MOL1         0.0783
      56    C17     17.303328   22.887576   20.188441 C.3        1 MOL1         0.1043
      57    H27     18.177829   22.232584   20.087390 H          1 MOL1         0.0783
      58    O14     17.738451   24.181234   20.683487 O.3        1 MOL1        -0.3740
      59    C18     16.713219   23.079992   18.771008 C.3        1 MOL1         0.0138
      60    H28     16.631317   22.095782   18.290207 H          1 MOL1         0.0794
      61    H29     17.418069   23.675743   18.175495 H          1 MOL1         0.0794
      62    O15     15.428494   23.713594   18.803130 O.3        1 MOL1        -0.5486
      63    H30     15.153898   23.878490   17.874658 H          1 MOL1         0.3769
      64    C19     23.561804   22.792733   21.781328 C.3        1 MOL1         0.2972
      65    H31     24.638359   22.987621   21.691404 H          1 MOL1         0.0751
      66    O16     23.299131   21.376140   21.897523 O.3        1 MOL1        -0.3740
      67    C20     23.015973   23.501739   23.047406 C.3        1 MOL1         0.1003
      68    H32     23.230843   24.573000   22.940428 H          1 MOL1         0.0783
      69    O17     23.674094   23.005080   24.223669 O.3        1 MOL1        -0.5519
      70    H33     24.010751   22.104374   24.008247 H          1 MOL1         0.3769
      71    C21     21.481851   23.338050   23.170750 C.3        1 MOL1         0.1053
      72    H34     21.264472   22.284653   23.379111 H          1 MOL1         0.0783
      73    O18     20.991914   24.145984   24.245240 O.3        1 MOL1        -0.5519
      74    H35     21.599047   23.963947   24.997018 H          1 MOL1         0.3769
      75    C22     20.766392   23.720678   21.854003 C.3        1 MOL1         0.1018
      76    H36     20.787944   24.812534   21.740355 H          1 MOL1         0.0783
      77    C23     21.425552   23.053212   20.617589 C.3        1 MOL1         0.1043
      78    H37     21.251907   21.974523   20.695898 H          1 MOL1         0.0783
      79    O19     22.853517   23.303512   20.630062 O.3        1 MOL1        -0.3740
      80    C24     20.850390   23.505912   19.248986 C.3        1 MOL1         0.0138
      81    H38     20.027403   22.833579   18.977065 H          1 MOL1         0.0794
      82    H39     21.626596   23.379867   18.482345 H          1 MOL1         0.0794
      83    O20     20.379424   24.858263   19.249531 O.3        1 MOL1        -0.5486
      84    H40     19.503897   24.857878   19.701752 H          1 MOL1         0.3769
      85    C25     24.824638   17.665177   20.718620 C.3        1 MOL1         0.2972
      86    H41     25.409268   16.852736   20.268101 H          1 MOL1         0.0751
      87    O21     23.623059   17.176737   21.346591 O.3        1 MOL1        -0.3740
      88    C26     25.654378   18.413626   21.792917 C.3        1 MOL1         0.1003
      89    H42     26.550044   18.813799   21.300327 H          1 MOL1         0.0783
      90    O22     26.048754   17.519508   22.846763 O.3        1 MOL1        -0.5519
      91    H43     25.240241   17.021521   23.129743 H          1 MOL1         0.3769
      92    C27     24.851054   19.603519   22.373614 C.3        1 MOL1         0.1053
      93    H44     24.022446   19.180471   22.952564 H          1 MOL1         0.0783
      94    O23     25.688198   20.381044   23.234942 O.3        1 MOL1        -0.5519
      95    H45     26.145663   19.727666   23.809321 H          1 MOL1         0.3769
      96    C28     24.263501   20.508242   21.257882 C.3        1 MOL1         0.1018
      97    H46     25.090968   21.074826   20.810779 H          1 MOL1         0.0783
      98    C29     23.555334   19.680237   20.144673 C.3        1 MOL1         0.1043
      99    H47     22.643735   19.238444   20.564929 H          1 MOL1         0.0783
     100    O24     24.442174   18.622233   19.709784 O.3        1 MOL1        -0.3740
     101    C30     23.133539   20.476847   18.883171 C.3        1 MOL1         0.0138
     102    H48     22.119587   20.863643   19.032206 H          1 MOL1         0.0794
     103    H49     23.077579   19.779881   18.036248 H          1 MOL1         0.0794
     104    O25     24.023508   21.553120   18.567213 O.3        1 MOL1        -0.5486
     105    H50     23.817240   22.289097   19.189474 H          1 MOL1         0.3769
     106    C31     21.350590   13.733546   21.743218 C.3        1 MOL1         0.2972
     107    H51     20.976126   12.703358   21.795844 H          1 MOL1         0.0751
     108    O26     20.282812   14.699376   21.812376 O.3        1 MOL1        -0.3740
     109    C32     22.311461   14.019760   22.924182 C.3        1 MOL1         0.1003
     110    H52     23.154212   13.320888   22.843866 H          1 MOL1         0.0783
     111    O27     21.645132   13.818378   24.181497 O.3        1 MOL1        -0.5519
     112    H53     20.708588   14.120418   24.070644 H          1 MOL1         0.3769
     113    C33     22.872470   15.459900   22.833887 C.3        1 MOL1         0.1053
     114    H54     22.040285   16.155788   22.999458 H          1 MOL1         0.0783
     115    O28     23.872036   15.652902   23.840603 O.3        1 MOL1        -0.5519
     116    H55     23.473896   15.297308   24.666154 H          1 MOL1         0.3769
     117    C34     23.479219   15.746996   21.438239 C.3        1 MOL1         0.1018
     118    H56     24.447393   15.232857   21.372208 H          1 MOL1         0.0783
     119    C35     22.550807   15.290451   20.277127 C.3        1 MOL1         0.1043
     120    H57     21.688952   15.969794   20.240117 H          1 MOL1         0.0783
     121    O29     22.081975   13.941175   20.517256 O.3        1 MOL1        -0.3740
     122    C36     23.226974   15.325472   18.885133 C.3        1 MOL1         0.0138
     123    H58     23.345805   16.373651   18.579872 H          1 MOL1         0.0794
     124    H59     22.555197   14.849943   18.158071 H          1 MOL1         0.0794
     125    O30     24.502407   14.671507   18.885860 O.3        1 MOL1        -0.5486
     126    H60     24.835217   14.667117   17.961926 H          1 MOL1         0.3769
     127    C1      19.215415   18.412192   22.394911 C.3        1 MOL1        -0.1693
     128    H1      19.471261   17.589549   21.714965 H          1 MOL1         0.0829
     129    H2      18.130104   18.551438   22.394108 H          1 MOL1         0.0829
     130    C2      20.065646   19.706156   22.199915 C.3        1 MOL1        -0.1768
     131    H3      20.396989   19.907404   21.177300 H          1 MOL1         0.0829
     132    H4      19.617696   20.614236   22.615310 H          1 MOL1         0.0829
     133    C3      21.102487   19.022452   23.137755 C.3        1 MOL1         0.1211
     134    H5      21.775273   18.329326   22.621444 H          1 MOL1         0.0786
     135    C4      19.880456   18.329981   23.806879 C.3        1 MOL1        -0.1768
     136    H6      20.060883   17.324276   24.201432 H          1 MOL1         0.0829
     137    H7      19.387864   18.930553   24.581243 H          1 MOL1         0.0829
     138    O1      21.826900   19.896602   23.967426 O.3        1 MOL1        -0.5515
     139    H8      22.393516   20.439284   23.378358 H          1 MOL1         0.3773
@<TRIPOS>BOND
    1     1     2    1
    2     1     3    1
    3     1     4    1
    4     4     5    1
    5     4     6    1
    6     6     7    1
    7     4     8    1
    8     8     9    1
    9     8    10    1
   10    10    11    1
   11     8    12    1
   12    12    13    1
   13    12    14    1
   14    14    15    1
   15     1    16    1
   16    14    16    1
   17    14    17    1
   18    17    18    1
   19    17    19    1
   20    17    20    1
   21    20    21    1
   22    22    23    1
   23    22    24    1
   24    22    25    1
   25    25    26    1
   26    25    27    1
   27    27    28    1
   28    25    29    1
   29    29    30    1
   30    29    31    1
   31    31    32    1
   32     3    33    1
   33    29    33    1
   34    33    34    1
   35    33    35    1
   36    35    36    1
   37    22    37    1
   38    35    37    1
   39    35    38    1
   40    38    39    1
   41    38    40    1
   42    38    41    1
   43    41    42    1
   44    43    44    1
   45    43    45    1
   46    43    46    1
   47    46    47    1
   48    46    48    1
   49    48    49    1
   50    46    50    1
   51    50    51    1
   52    50    52    1
   53    52    53    1
   54    24    54    1
   55    50    54    1
   56    54    55    1
   57    54    56    1
   58    56    57    1
   59    43    58    1
   60    56    58    1
   61    56    59    1
   62    59    60    1
   63    59    61    1
   64    59    62    1
   65    62    63    1
   66    64    65    1
   67    64    66    1
   68    64    67    1
   69    67    68    1
   70    67    69    1
   71    69    70    1
   72    67    71    1
   73    71    72    1
   74    71    73    1
   75    73    74    1
   76    45    75    1
   77    71    75    1
   78    75    76    1
   79    75    77    1
   80    77    78    1
   81    64    79    1
   82    77    79    1
   83    77    80    1
   84    80    81    1
   85    80    82    1
   86    80    83    1
   87    83    84    1
   88    85    86    1
   89    85    87    1
   90    85    88    1
   91    88    89    1
   92    88    90    1
   93    90    91    1
   94    88    92    1
   95    92    93    1
   96    92    94    1
   97    94    95    1
   98    66    96    1
   99    92    96    1
  100    96    97    1
  101    96    98    1
  102    98    99    1
  103    85   100    1
  104    98   100    1
  105    98   101    1
  106   101   102    1
  107   101   103    1
  108   101   104    1
  109   104   105    1
  110   106   107    1
  111    12   108    1
  112   106   108    1
  113   106   109    1
  114   109   110    1
  115   109   111    1
  116   111   112    1
  117   109   113    1
  118   113   114    1
  119   113   115    1
  120   115   116    1
  121    87   117    1
  122   113   117    1
  123   117   118    1
  124   117   119    1
  125   119   120    1
  126   106   121    1
  127   119   121    1
  128   119   122    1
  129   122   123    1
  130   122   124    1
  131   122   125    1
  132   125   126    1
  133   127   128    1
  134   127   129    1
  135   127   130    1
  136   130   131    1
  137   130   132    1
  138   130   133    1
  139   133   134    1
  140   127   135    1
  141   133   135    1
  142   135   136    1
  143   135   137    1
  144   133   138    1
  145   138   139    1
@<TRIPOS>SUBSTRUCTURE
       1 MOL1            1 RESIDUE      1      MOL     
       2 MOL1          139 RESIDUE      1      MOL     
@<SCITEGIC>MOL_PROPERTY
feprocess Rank
SciTegic.value.IntegerValue
57

@<SCITEGIC>MOL_PROPERTY
Conf_Id
SciTegic.value.IntegerValue
891

@<SCITEGIC>MOL_PROPERTY
Probability
SciTegic.value.DoubleValue
0.15

@<SCITEGIC>MOL_PROPERTY
G
SciTegic.value.DoubleValue
547.910

@<SCITEGIC>MOL_PROPERTY
E
SciTegic.value.DoubleValue
370.492

@<SCITEGIC>MOL_PROPERTY
-TS
SciTegic.value.DoubleValue
177.418

@<SCITEGIC>MOL_PROPERTY
U+W
SciTegic.value.DoubleValue
247.980

@<SCITEGIC>MOL_PROPERTY
U
SciTegic.value.DoubleValue
285.709

@<SCITEGIC>MOL_PROPERTY
W
SciTegic.value.DoubleValue
-37.729

@<SCITEGIC>MOL_PROPERTY
W(PB)
SciTegic.value.DoubleValue
-43.730

@<SCITEGIC>MOL_PROPERTY
W(SA)
SciTegic.value.DoubleValue
6.001

@<SCITEGIC>MOL_PROPERTY
Valence
SciTegic.value.DoubleValue
153.529

@<SCITEGIC>MOL_PROPERTY
Coulomb
SciTegic.value.DoubleValue
154.341

@<SCITEGIC>MOL_PROPERTY
VdW
SciTegic.value.DoubleValue
-22.161

@<SCITEGIC>MOL_PROPERTY
VdW6
SciTegic.value.DoubleValue
-167.747

@<SCITEGIC>MOL_PROPERTY
VdW12
SciTegic.value.DoubleValue
145.586

@<SCITEGIC>MOL_PROPERTY
Bond
SciTegic.value.DoubleValue
4.538

@<SCITEGIC>MOL_PROPERTY
Angle
SciTegic.value.DoubleValue
11.080

@<SCITEGIC>MOL_PROPERTY
Pdih
SciTegic.value.DoubleValue
137.911

@<SCITEGIC>MOL_PROPERTY
Idih
SciTegic.value.DoubleValue
0.000

@<SCITEGIC>MOL_PROPERTY
Tether
SciTegic.value.DoubleValue
0.000

@<TRIPOS>MOLECULE
CD_guest-s16_fast_vm2_rndm.mol2 : feprocess host+ligand conformer 58
         139         145           2
SMALL
USER_CHARGES
 
@<TRIPOS>ATOM
       1    C1      16.151967   15.120295   21.665352 C.3        1 MOL1         0.2972
       2    H1      15.074936   15.008575   21.846013 H          1 MOL1         0.0751
       3    O1      16.509903   16.493401   21.397892 O.3        1 MOL1        -0.3740
       4    C2      16.950121   14.615558   22.892030 C.3        1 MOL1         0.1003
       5    H2      16.736598   13.544535   23.004576 H          1 MOL1         0.0783
       6    O2      16.562663   15.304560   24.091515 O.3        1 MOL1        -0.5519
       7    H3      15.889797   15.982873   23.835771 H          1 MOL1         0.3769
       8    C3      18.465696   14.781865   22.655828 C.3        1 MOL1         0.1053
       9    H4      18.677329   15.856560   22.643584 H          1 MOL1         0.0783
      10    O3      19.182747   14.175263   23.734461 O.3        1 MOL1        -0.5519
      11    H5      18.712804   14.476401   24.544783 H          1 MOL1         0.3769
      12    C4      18.922704   14.178901   21.301983 C.3        1 MOL1         0.1018
      13    H6      19.059064   13.096783   21.429100 H          1 MOL1         0.0783
      14    C5      17.944547   14.467625   20.121976 C.3        1 MOL1         0.1043
      15    H7      18.108932   15.500559   19.792874 H          1 MOL1         0.0783
      16    O4      16.559363   14.327221   20.532149 O.3        1 MOL1        -0.3740
      17    C6      18.185063   13.566962   18.887290 C.3        1 MOL1         0.0138
      18    H8      19.133552   13.863695   18.419437 H          1 MOL1         0.0794
      19    H9      17.388194   13.755916   18.155468 H          1 MOL1         0.0794
      20    O5      18.226138   12.176551   19.231487 O.3        1 MOL1        -0.5486
      21    H10     18.301658   11.664814   18.396480 H          1 MOL1         0.3769
      22    C7      14.709382   20.246438   21.130123 C.3        1 MOL1         0.2972
      23    H11     14.021333   21.082533   20.951899 H          1 MOL1         0.0751
      24    O6      16.007294   20.704118   21.557366 O.3        1 MOL1        -0.3740
      25    C8      14.154803   19.337870   22.254715 C.3        1 MOL1         0.1003
      26    H12     13.174811   18.966712   21.927579 H          1 MOL1         0.0783
      27    O7      13.998980   20.089079   23.469544 O.3        1 MOL1        -0.5519
      28    H13     14.740325   20.744128   23.498442 H          1 MOL1         0.3769
      29    C9      15.076119   18.115926   22.492956 C.3        1 MOL1         0.1053
      30    H14     16.015358   18.477144   22.930362 H          1 MOL1         0.0783
      31    O8      14.434675   17.218190   23.403961 O.3        1 MOL1        -0.5519
      32    H15     14.061733   17.795930   24.107974 H          1 MOL1         0.3769
      33    C10     15.406139   17.391683   21.162043 C.3        1 MOL1         0.1018
      34    H16     14.511383   16.854333   20.821419 H          1 MOL1         0.0783
      35    C11     15.845745   18.382040   20.048338 C.3        1 MOL1         0.1043
      36    H17     16.808855   18.819351   20.333564 H          1 MOL1         0.0783
      37    O9      14.870553   19.448325   19.936186 O.3        1 MOL1        -0.3740
      38    C12     16.050675   17.722315   18.660383 C.3        1 MOL1         0.0138
      39    H18     17.063000   17.298241   18.625750 H          1 MOL1         0.0794
      40    H19     16.004990   18.503246   17.889930 H          1 MOL1         0.0794
      41    O10     15.092738   16.694558   18.379000 O.3        1 MOL1        -0.5486
      42    H20     15.319769   15.922995   18.944255 H          1 MOL1         0.3769
      43    C13     18.493545   24.070251   21.319080 C.3        1 MOL1         0.2972
      44    H21     18.842971   25.098637   21.162800 H          1 MOL1         0.0751
      45    O11     19.580778   23.189435   21.663775 O.3        1 MOL1        -0.3740
      46    C14     17.475889   24.042296   22.487505 C.3        1 MOL1         0.1003
      47    H22     16.660595   24.731769   22.232603 H          1 MOL1         0.0783
      48    O12     18.103144   24.477782   23.704828 O.3        1 MOL1        -0.5519
      49    H23     19.051237   24.199559   23.654377 H          1 MOL1         0.3769
      50    C15     16.867952   22.630898   22.667425 C.3        1 MOL1         0.1053
      51    H24     17.663509   21.956118   23.012448 H          1 MOL1         0.0783
      52    O13     15.816609   22.680499   23.638755 O.3        1 MOL1        -0.5519
      53    H25     16.188510   23.193117   24.390607 H          1 MOL1         0.3769
      54    C16     16.320500   22.089259   21.325676 C.3        1 MOL1         0.1018
      55    H26     15.432271   22.672687   21.049738 H          1 MOL1         0.0783
      56    C17     17.388935   22.193271   20.201312 C.3        1 MOL1         0.1043
      57    H27     18.227146   21.538924   20.467764 H          1 MOL1         0.0783
      58    O14     17.856620   23.564235   20.124988 O.3        1 MOL1        -0.3740
      59    C18     16.912212   21.758986   18.792367 C.3        1 MOL1         0.0138
      60    H28     17.041725   20.673048   18.701473 H          1 MOL1         0.0794
      61    H29     17.568802   22.220989   18.043348 H          1 MOL1         0.0794
      62    O15     15.548464   22.103378   18.526890 O.3        1 MOL1        -0.5486
      63    H30     15.004045   21.344407   18.836139 H          1 MOL1         0.3769
      64    C19     23.712400   22.806277   21.244699 C.3        1 MOL1         0.2972
      65    H31     24.779761   22.955153   21.036113 H          1 MOL1         0.0751
      66    O16     23.416954   21.437413   21.582845 O.3        1 MOL1        -0.3740
      67    C20     23.240452   23.695196   22.424791 C.3        1 MOL1         0.1003
      68    H32     23.397749   24.741313   22.131632 H          1 MOL1         0.0783
      69    O17     23.994373   23.422652   23.616717 O.3        1 MOL1        -0.5519
      70    H33     23.989070   22.441181   23.753742 H          1 MOL1         0.3769
      71    C21     21.725930   23.492507   22.682622 C.3        1 MOL1         0.1053
      72    H34     21.574045   22.464689   23.038356 H          1 MOL1         0.0783
      73    O18     21.276774   24.419697   23.676936 O.3        1 MOL1        -0.5519
      74    H35     21.954757   24.381581   24.387753 H          1 MOL1         0.3769
      75    C22     20.906385   23.681854   21.381999 C.3        1 MOL1         0.1018
      76    H36     20.905938   24.751886   21.136612 H          1 MOL1         0.0783
      77    C23     21.503301   22.879022   20.190464 C.3        1 MOL1         0.1043
      78    H37     21.370810   21.811846   20.392665 H          1 MOL1         0.0783
      79    O19     22.921064   23.160764   20.087995 O.3        1 MOL1        -0.3740
      80    C24     20.842420   23.150054   18.815468 C.3        1 MOL1         0.0138
      81    H38     19.963545   22.499803   18.719418 H          1 MOL1         0.0794
      82    H39     21.545799   22.852826   18.026293 H          1 MOL1         0.0794
      83    O20     20.449520   24.514895   18.635358 O.3        1 MOL1        -0.5486
      84    H40     19.526711   24.586711   18.967859 H          1 MOL1         0.3769
      85    C25     24.943141   17.645374   21.924376 C.3        1 MOL1         0.2972
      86    H41     25.547938   16.735501   22.032614 H          1 MOL1         0.0751
      87    O21     23.565526   17.334666   21.634593 O.3        1 MOL1        -0.3740
      88    C26     24.995995   18.464826   23.234777 C.3        1 MOL1         0.1003
      89    H42     26.041824   18.752050   23.404899 H          1 MOL1         0.0783
      90    O22     24.531659   17.675359   24.342098 O.3        1 MOL1        -0.5519
      91    H43     24.108032   16.867674   23.960487 H          1 MOL1         0.3769
      92    C27     24.157087   19.754906   23.102117 C.3        1 MOL1         0.1053
      93    H44     23.104615   19.458367   23.026212 H          1 MOL1         0.0783
      94    O23     24.340279   20.565312   24.266932 O.3        1 MOL1        -0.5519
      95    H45     24.255106   19.941242   25.022269 H          1 MOL1         0.3769
      96    C28     24.529988   20.559260   21.830671 C.3        1 MOL1         0.1018
      97    H46     25.459217   21.111198   22.024712 H          1 MOL1         0.0783
      98    C29     24.682529   19.667145   20.564284 C.3        1 MOL1         0.1043
      99    H47     23.675550   19.373298   20.244493 H          1 MOL1         0.0783
     100    O24     25.449572   18.469985   20.854603 O.3        1 MOL1        -0.3740
     101    C30     25.343563   20.396612   19.370564 C.3        1 MOL1         0.0138
     102    H48     24.638769   21.146269   18.986077 H          1 MOL1         0.0794
     103    H49     25.516080   19.669157   18.565921 H          1 MOL1         0.0794
     104    O25     26.573512   21.031409   19.741430 O.3        1 MOL1        -0.5486
     105    H50     26.969997   21.411521   18.927221 H          1 MOL1         0.3769
     106    C31     21.249334   14.043602   20.498225 C.3        1 MOL1         0.2972
     107    H51     20.894313   13.098869   20.066695 H          1 MOL1         0.0751
     108    O26     20.157641   14.847512   20.984935 O.3        1 MOL1        -0.3740
     109    C32     22.240325   13.793489   21.668826 C.3        1 MOL1         0.1003
     110    H52     23.097448   13.246606   21.254867 H          1 MOL1         0.0783
     111    O27     21.646965   13.003818   22.710872 O.3        1 MOL1        -0.5519
     112    H53     20.831495   13.477953   23.013732 H          1 MOL1         0.3769
     113    C33     22.763746   15.137336   22.236208 C.3        1 MOL1         0.1053
     114    H54     21.920311   15.670008   22.695932 H          1 MOL1         0.0783
     115    O28     23.771940   14.887167   23.221362 O.3        1 MOL1        -0.5519
     116    H55     23.421335   14.145758   23.764308 H          1 MOL1         0.3769
     117    C34     23.337744   16.018829   21.099252 C.3        1 MOL1         0.1018
     118    H56     24.267153   15.559557   20.737075 H          1 MOL1         0.0783
     119    C35     22.352271   16.148892   19.907027 C.3        1 MOL1         0.1043
     120    H57     21.472088   16.711589   20.239224 H          1 MOL1         0.0783
     121    O29     21.946241   14.819135   19.494862 O.3        1 MOL1        -0.3740
     122    C36     22.924908   16.908023   18.681728 C.3        1 MOL1         0.0138
     123    H58     22.700113   17.975259   18.802831 H          1 MOL1         0.0794
     124    H59     22.391310   16.573401   17.782185 H          1 MOL1         0.0794
     125    O30     24.337798   16.731975   18.512187 O.3        1 MOL1        -0.5486
     126    H60     24.783553   17.212408   19.248003 H          1 MOL1         0.3769
     127    C1      20.200532   19.707863   23.250257 C.3        1 MOL1        -0.1693
     128    H1      20.925596   19.209445   23.906443 H          1 MOL1         0.0829
     129    H2      20.039419   20.729150   23.614116 H          1 MOL1         0.0829
     130    C2      18.909942   18.877068   22.953849 C.3        1 MOL1        -0.1768
     131    H3      18.559794   18.221123   23.758335 H          1 MOL1         0.0829
     132    H4      18.066864   19.471189   22.587309 H          1 MOL1         0.0829
     133    C3      19.755263   18.195730   21.837613 C.3        1 MOL1         0.1211
     134    H5      20.394350   17.379957   22.199436 H          1 MOL1         0.0786
     135    C4      20.484292   19.560227   21.719383 C.3        1 MOL1        -0.1768
     136    H6      21.531424   19.507001   21.411332 H          1 MOL1         0.0829
     137    H7      19.964189   20.284099   21.085670 H          1 MOL1         0.0829
     138    O1      19.044830   17.808346   20.687618 O.3        1 MOL1        -0.5515
     139    H8      18.331164   17.205100   20.985806 H          1 MOL1         0.3773
@<TRIPOS>BOND
    1     1     2    1
    2     1     3    1
    3     1     4    1
    4     4     5    1
    5     4     6    1
    6     6     7    1
    7     4     8    1
    8     8     9    1
    9     8    10    1
   10    10    11    1
   11     8    12    1
   12    12    13    1
   13    12    14    1
   14    14    15    1
   15     1    16    1
   16    14    16    1
   17    14    17    1
   18    17    18    1
   19    17    19    1
   20    17    20    1
   21    20    21    1
   22    22    23    1
   23    22    24    1
   24    22    25    1
   25    25    26    1
   26    25    27    1
   27    27    28    1
   28    25    29    1
   29    29    30    1
   30    29    31    1
   31    31    32    1
   32     3    33    1
   33    29    33    1
   34    33    34    1
   35    33    35    1
   36    35    36    1
   37    22    37    1
   38    35    37    1
   39    35    38    1
   40    38    39    1
   41    38    40    1
   42    38    41    1
   43    41    42    1
   44    43    44    1
   45    43    45    1
   46    43    46    1
   47    46    47    1
   48    46    48    1
   49    48    49    1
   50    46    50    1
   51    50    51    1
   52    50    52    1
   53    52    53    1
   54    24    54    1
   55    50    54    1
   56    54    55    1
   57    54    56    1
   58    56    57    1
   59    43    58    1
   60    56    58    1
   61    56    59    1
   62    59    60    1
   63    59    61    1
   64    59    62    1
   65    62    63    1
   66    64    65    1
   67    64    66    1
   68    64    67    1
   69    67    68    1
   70    67    69    1
   71    69    70    1
   72    67    71    1
   73    71    72    1
   74    71    73    1
   75    73    74    1
   76    45    75    1
   77    71    75    1
   78    75    76    1
   79    75    77    1
   80    77    78    1
   81    64    79    1
   82    77    79    1
   83    77    80    1
   84    80    81    1
   85    80    82    1
   86    80    83    1
   87    83    84    1
   88    85    86    1
   89    85    87    1
   90    85    88    1
   91    88    89    1
   92    88    90    1
   93    90    91    1
   94    88    92    1
   95    92    93    1
   96    92    94    1
   97    94    95    1
   98    66    96    1
   99    92    96    1
  100    96    97    1
  101    96    98    1
  102    98    99    1
  103    85   100    1
  104    98   100    1
  105    98   101    1
  106   101   102    1
  107   101   103    1
  108   101   104    1
  109   104   105    1
  110   106   107    1
  111    12   108    1
  112   106   108    1
  113   106   109    1
  114   109   110    1
  115   109   111    1
  116   111   112    1
  117   109   113    1
  118   113   114    1
  119   113   115    1
  120   115   116    1
  121    87   117    1
  122   113   117    1
  123   117   118    1
  124   117   119    1
  125   119   120    1
  126   106   121    1
  127   119   121    1
  128   119   122    1
  129   122   123    1
  130   122   124    1
  131   122   125    1
  132   125   126    1
  133   127   128    1
  134   127   129    1
  135   127   130    1
  136   130   131    1
  137   130   132    1
  138   130   133    1
  139   133   134    1
  140   127   135    1
  141   133   135    1
  142   135   136    1
  143   135   137    1
  144   133   138    1
  145   138   139    1
@<TRIPOS>SUBSTRUCTURE
       1 MOL1            1 RESIDUE      1      MOL     
       2 MOL1          139 RESIDUE      1      MOL     
@<SCITEGIC>MOL_PROPERTY
feprocess Rank
SciTegic.value.IntegerValue
58

@<SCITEGIC>MOL_PROPERTY
Conf_Id
SciTegic.value.IntegerValue
896

@<SCITEGIC>MOL_PROPERTY
Probability
SciTegic.value.DoubleValue
0.15

@<SCITEGIC>MOL_PROPERTY
G
SciTegic.value.DoubleValue
547.917

@<SCITEGIC>MOL_PROPERTY
E
SciTegic.value.DoubleValue
370.459

@<SCITEGIC>MOL_PROPERTY
-TS
SciTegic.value.DoubleValue
177.458

@<SCITEGIC>MOL_PROPERTY
U+W
SciTegic.value.DoubleValue
247.948

@<SCITEGIC>MOL_PROPERTY
U
SciTegic.value.DoubleValue
283.405

@<SCITEGIC>MOL_PROPERTY
W
SciTegic.value.DoubleValue
-35.457

@<SCITEGIC>MOL_PROPERTY
W(PB)
SciTegic.value.DoubleValue
-41.389

@<SCITEGIC>MOL_PROPERTY
W(SA)
SciTegic.value.DoubleValue
5.933

@<SCITEGIC>MOL_PROPERTY
Valence
SciTegic.value.DoubleValue
155.246

@<SCITEGIC>MOL_PROPERTY
Coulomb
SciTegic.value.DoubleValue
150.461

@<SCITEGIC>MOL_PROPERTY
VdW
SciTegic.value.DoubleValue
-22.303

@<SCITEGIC>MOL_PROPERTY
VdW6
SciTegic.value.DoubleValue
-170.943

@<SCITEGIC>MOL_PROPERTY
VdW12
SciTegic.value.DoubleValue
148.641

@<SCITEGIC>MOL_PROPERTY
Bond
SciTegic.value.DoubleValue
4.673

@<SCITEGIC>MOL_PROPERTY
Angle
SciTegic.value.DoubleValue
11.975

@<SCITEGIC>MOL_PROPERTY
Pdih
SciTegic.value.DoubleValue
138.599

@<SCITEGIC>MOL_PROPERTY
Idih
SciTegic.value.DoubleValue
0.000

@<SCITEGIC>MOL_PROPERTY
Tether
SciTegic.value.DoubleValue
0.000

@<TRIPOS>MOLECULE
CD_guest-s16_fast_vm2_rndm.mol2 : feprocess host+ligand conformer 59
         139         145           2
SMALL
USER_CHARGES
 
@<TRIPOS>ATOM
       1    C1      16.255009   15.275109   21.662026 C.3        1 MOL1         0.2972
       2    H1      15.171176   15.158622   21.792784 H          1 MOL1         0.0751
       3    O1      16.620603   16.654887   21.468338 O.3        1 MOL1        -0.3740
       4    C2      16.993667   14.748386   22.914466 C.3        1 MOL1         0.1003
       5    H2      16.757505   13.681015   23.014966 H          1 MOL1         0.0783
       6    O2      16.556336   15.447156   24.091905 O.3        1 MOL1        -0.5519
       7    H3      15.970872   16.184006   23.789031 H          1 MOL1         0.3769
       8    C3      18.521792   14.891468   22.740629 C.3        1 MOL1         0.1053
       9    H4      18.754825   15.961884   22.715006 H          1 MOL1         0.0783
      10    O3      19.185745   14.280689   23.851057 O.3        1 MOL1        -0.5519
      11    H5      18.696964   14.603739   24.641193 H          1 MOL1         0.3769
      12    C4      19.012134   14.266931   21.411237 C.3        1 MOL1         0.1018
      13    H6      19.044665   13.175032   21.523681 H          1 MOL1         0.0783
      14    C5      18.123797   14.663906   20.196756 C.3        1 MOL1         0.1043
      15    H7      18.336564   15.714311   19.962277 H          1 MOL1         0.0783
      16    O4      16.714100   14.529094   20.515392 O.3        1 MOL1        -0.3740
      17    C6      18.418866   13.842811   18.918955 C.3        1 MOL1         0.0138
      18    H8      19.400910   14.144178   18.529814 H          1 MOL1         0.0794
      19    H9      17.672891   14.101090   18.155269 H          1 MOL1         0.0794
      20    O5      18.407873   12.432138   19.170498 O.3        1 MOL1        -0.5486
      21    H10     18.523236   11.974892   18.308942 H          1 MOL1         0.3769
      22    C7      14.772725   20.334951   20.768725 C.3        1 MOL1         0.2972
      23    H11     14.093197   21.131603   20.439290 H          1 MOL1         0.0751
      24    O6      15.988283   20.862355   21.327698 O.3        1 MOL1        -0.3740
      25    C8      14.118620   19.465469   21.874718 C.3        1 MOL1         0.1003
      26    H12     13.205956   19.023762   21.454077 H          1 MOL1         0.0783
      27    O7      13.776820   20.267529   23.017469 O.3        1 MOL1        -0.5519
      28    H13     14.551488   20.854735   23.207150 H          1 MOL1         0.3769
      29    C9      15.065622   18.311432   22.293696 C.3        1 MOL1         0.1053
      30    H14     15.943783   18.751812   22.784519 H          1 MOL1         0.0783
      31    O8      14.391240   17.438765   23.206244 O.3        1 MOL1        -0.5519
      32    H15     13.928115   18.036424   23.835430 H          1 MOL1         0.3769
      33    C10     15.549813   17.519816   21.053269 C.3        1 MOL1         0.1018
      34    H16     14.702768   16.954441   20.642461 H          1 MOL1         0.0783
      35    C11     16.110183   18.453727   19.949421 C.3        1 MOL1         0.1043
      36    H17     17.024535   18.927368   20.326034 H          1 MOL1         0.0783
      37    O9      15.123231   19.473863   19.659879 O.3        1 MOL1        -0.3740
      38    C12     16.494862   17.727926   18.633408 C.3        1 MOL1         0.0138
      39    H18     17.542283   17.409136   18.709516 H          1 MOL1         0.0794
      40    H19     16.442473   18.448866   17.806736 H          1 MOL1         0.0794
      41    O10     15.669513   16.590539   18.349596 O.3        1 MOL1        -0.5486
      42    H20     15.885019   15.898300   19.016588 H          1 MOL1         0.3769
      43    C13     18.389261   24.155119   21.643684 C.3        1 MOL1         0.2972
      44    H21     18.859643   25.145067   21.705066 H          1 MOL1         0.0751
      45    O11     19.370430   23.098994   21.649872 O.3        1 MOL1        -0.3740
      46    C14     17.445279   23.949275   22.851645 C.3        1 MOL1         0.1003
      47    H22     16.658529   24.712776   22.794766 H          1 MOL1         0.0783
      48    O12     18.170284   24.099962   24.082724 O.3        1 MOL1        -0.5519
      49    H23     19.123421   23.940961   23.873716 H          1 MOL1         0.3769
      50    C15     16.773471   22.559283   22.785470 C.3        1 MOL1         0.1053
      51    H24     17.554257   21.807129   22.951377 H          1 MOL1         0.0783
      52    O13     15.784149   22.447236   23.813990 O.3        1 MOL1        -0.5519
      53    H25     16.224913   22.781456   24.626798 H          1 MOL1         0.3769
      54    C16     16.122741   22.292045   21.404526 C.3        1 MOL1         0.1018
      55    H26     15.151647   22.803320   21.370585 H          1 MOL1         0.0783
      56    C17     17.011955   22.729497   20.204488 C.3        1 MOL1         0.1043
      57    H27     17.811650   21.986042   20.103987 H          1 MOL1         0.0783
      58    O14     17.606937   24.032465   20.438718 O.3        1 MOL1        -0.3740
      59    C18     16.257859   22.774657   18.854015 C.3        1 MOL1         0.0138
      60    H28     16.038082   21.745570   18.540405 H          1 MOL1         0.0794
      61    H29     16.922367   23.209820   18.095414 H          1 MOL1         0.0794
      62    O15     15.041480   23.526943   18.941118 O.3        1 MOL1        -0.5486
      63    H30     14.652337   23.569582   18.040393 H          1 MOL1         0.3769
      64    C19     23.477001   22.540619   21.013375 C.3        1 MOL1         0.2972
      65    H31     24.516577   22.697888   20.697915 H          1 MOL1         0.0751
      66    O16     23.268391   21.197626   21.496797 O.3        1 MOL1        -0.3740
      67    C20     23.091130   23.530937   22.145694 C.3        1 MOL1         0.1003
      68    H32     23.244613   24.545759   21.756286 H          1 MOL1         0.0783
      69    O17     23.918408   23.345008   23.305623 O.3        1 MOL1        -0.5519
      70    H33     23.923882   22.377100   23.517338 H          1 MOL1         0.3769
      71    C21     21.594797   23.388284   22.520638 C.3        1 MOL1         0.1053
      72    H34     21.448906   22.399775   22.976574 H          1 MOL1         0.0783
      73    O18     21.230284   24.410258   23.454399 O.3        1 MOL1        -0.5519
      74    H35     21.961551   24.429327   24.111554 H          1 MOL1         0.3769
      75    C22     20.701833   23.480876   21.259096 C.3        1 MOL1         0.1018
      76    H36     20.738860   24.509382   20.876108 H          1 MOL1         0.0783
      77    C23     21.183835   22.511062   20.146710 C.3        1 MOL1         0.1043
      78    H37     21.053353   21.482847   20.501861 H          1 MOL1         0.0783
      79    O19     22.587778   22.759479   19.895647 O.3        1 MOL1        -0.3740
      80    C24     20.417394   22.624537   18.803280 C.3        1 MOL1         0.0138
      81    H38     19.568322   21.930817   18.827432 H          1 MOL1         0.0794
      82    H39     21.078023   22.282386   17.995531 H          1 MOL1         0.0794
      83    O20     19.949725   23.950552   18.526009 O.3        1 MOL1        -0.5486
      84    H40     19.189239   24.123272   19.129050 H          1 MOL1         0.3769
      85    C25     25.123417   17.559733   21.940307 C.3        1 MOL1         0.2972
      86    H41     25.784915   16.692217   22.062221 H          1 MOL1         0.0751
      87    O21     23.754239   17.163369   21.740991 O.3        1 MOL1        -0.3740
      88    C26     25.170551   18.446278   23.205903 C.3        1 MOL1         0.1003
      89    H42     26.193644   18.829788   23.312370 H          1 MOL1         0.0783
      90    O22     24.822095   17.675095   24.366783 O.3        1 MOL1        -0.5519
      91    H43     24.289770   16.907237   24.045943 H          1 MOL1         0.3769
      92    C27     24.213172   19.649497   23.049304 C.3        1 MOL1         0.1053
      93    H44     23.191304   19.257432   23.022611 H          1 MOL1         0.0783
      94    O23     24.358012   20.531879   24.166193 O.3        1 MOL1        -0.5519
      95    H45     24.361834   19.943394   24.954081 H          1 MOL1         0.3769
      96    C28     24.462711   20.420714   21.730337 C.3        1 MOL1         0.1018
      97    H46     25.347732   21.056146   21.868495 H          1 MOL1         0.0783
      98    C29     24.659858   19.487694   20.497759 C.3        1 MOL1         0.1043
      99    H47     23.674933   19.099596   20.217369 H          1 MOL1         0.0783
     100    O24     25.528586   18.368168   20.815969 O.3        1 MOL1        -0.3740
     101    C30     25.229706   20.209445   19.253534 C.3        1 MOL1         0.0138
     102    H48     24.452779   20.870782   18.846801 H          1 MOL1         0.0794
     103    H49     25.451949   19.458262   18.483647 H          1 MOL1         0.0794
     104    O25     26.404399   20.969849   19.562056 O.3        1 MOL1        -0.5486
     105    H50     26.755155   21.331519   18.718989 H          1 MOL1         0.3769
     106    C31     21.353629   13.930536   20.730245 C.3        1 MOL1         0.2972
     107    H51     20.941060   12.987296   20.349483 H          1 MOL1         0.0751
     108    O26     20.315133   14.828976   21.170408 O.3        1 MOL1        -0.3740
     109    C32     22.322098   13.683449   21.917927 C.3        1 MOL1         0.1003
     110    H52     23.147254   13.064236   21.542800 H          1 MOL1         0.0783
     111    O27     21.669727   12.991553   22.993966 O.3        1 MOL1        -0.5519
     112    H53     20.862447   13.513618   23.234476 H          1 MOL1         0.3769
     113    C33     22.919125   15.022886   22.417521 C.3        1 MOL1         0.1053
     114    H54     22.103739   15.617672   22.849075 H          1 MOL1         0.0783
     115    O28     23.911577   14.770944   23.417919 O.3        1 MOL1        -0.5519
     116    H55     23.516754   14.088293   24.005108 H          1 MOL1         0.3769
     117    C34     23.536573   15.831081   21.248961 C.3        1 MOL1         0.1018
     118    H56     24.471221   15.346304   20.937938 H          1 MOL1         0.0783
     119    C35     22.576825   15.928497   20.029892 C.3        1 MOL1         0.1043
     120    H57     21.720677   16.551198   20.314776 H          1 MOL1         0.0783
     121    O29     22.105193   14.600226   19.693086 O.3        1 MOL1        -0.3740
     122    C36     23.192305   16.577527   18.762470 C.3        1 MOL1         0.0138
     123    H58     22.959757   17.649599   18.776849 H          1 MOL1         0.0794
     124    H59     22.691651   16.161098   17.878350 H          1 MOL1         0.0794
     125    O30     24.609809   16.392944   18.656566 O.3        1 MOL1        -0.5486
     126    H60     25.027435   16.963406   19.343469 H          1 MOL1         0.3769
     127    C1      18.963237   18.812639   23.533741 C.3        1 MOL1        -0.1693
     128    H1      18.145030   18.101041   23.368843 H          1 MOL1         0.0829
     129    H2      18.808497   19.304918   24.500910 H          1 MOL1         0.0829
     130    C2      19.269652   19.756003   22.326267 C.3        1 MOL1        -0.1768
     131    H3      18.419901   20.052287   21.708574 H          1 MOL1         0.0829
     132    H4      19.844171   20.651023   22.588209 H          1 MOL1         0.0829
     133    C3      20.116159   18.574880   21.775008 C.3        1 MOL1         0.1211
     134    H5      19.525388   17.809100   21.254397 H          1 MOL1         0.0786
     135    C4      20.396551   18.242316   23.273237 C.3        1 MOL1        -0.1768
     136    H6      21.197762   18.822165   23.742668 H          1 MOL1         0.0829
     137    H7      20.546162   17.184772   23.511030 H          1 MOL1         0.0829
     138    O1      21.222674   18.956188   20.994277 O.3        1 MOL1        -0.5515
     139    H8      21.726051   19.627853   21.498125 H          1 MOL1         0.3773
@<TRIPOS>BOND
    1     1     2    1
    2     1     3    1
    3     1     4    1
    4     4     5    1
    5     4     6    1
    6     6     7    1
    7     4     8    1
    8     8     9    1
    9     8    10    1
   10    10    11    1
   11     8    12    1
   12    12    13    1
   13    12    14    1
   14    14    15    1
   15     1    16    1
   16    14    16    1
   17    14    17    1
   18    17    18    1
   19    17    19    1
   20    17    20    1
   21    20    21    1
   22    22    23    1
   23    22    24    1
   24    22    25    1
   25    25    26    1
   26    25    27    1
   27    27    28    1
   28    25    29    1
   29    29    30    1
   30    29    31    1
   31    31    32    1
   32     3    33    1
   33    29    33    1
   34    33    34    1
   35    33    35    1
   36    35    36    1
   37    22    37    1
   38    35    37    1
   39    35    38    1
   40    38    39    1
   41    38    40    1
   42    38    41    1
   43    41    42    1
   44    43    44    1
   45    43    45    1
   46    43    46    1
   47    46    47    1
   48    46    48    1
   49    48    49    1
   50    46    50    1
   51    50    51    1
   52    50    52    1
   53    52    53    1
   54    24    54    1
   55    50    54    1
   56    54    55    1
   57    54    56    1
   58    56    57    1
   59    43    58    1
   60    56    58    1
   61    56    59    1
   62    59    60    1
   63    59    61    1
   64    59    62    1
   65    62    63    1
   66    64    65    1
   67    64    66    1
   68    64    67    1
   69    67    68    1
   70    67    69    1
   71    69    70    1
   72    67    71    1
   73    71    72    1
   74    71    73    1
   75    73    74    1
   76    45    75    1
   77    71    75    1
   78    75    76    1
   79    75    77    1
   80    77    78    1
   81    64    79    1
   82    77    79    1
   83    77    80    1
   84    80    81    1
   85    80    82    1
   86    80    83    1
   87    83    84    1
   88    85    86    1
   89    85    87    1
   90    85    88    1
   91    88    89    1
   92    88    90    1
   93    90    91    1
   94    88    92    1
   95    92    93    1
   96    92    94    1
   97    94    95    1
   98    66    96    1
   99    92    96    1
  100    96    97    1
  101    96    98    1
  102    98    99    1
  103    85   100    1
  104    98   100    1
  105    98   101    1
  106   101   102    1
  107   101   103    1
  108   101   104    1
  109   104   105    1
  110   106   107    1
  111    12   108    1
  112   106   108    1
  113   106   109    1
  114   109   110    1
  115   109   111    1
  116   111   112    1
  117   109   113    1
  118   113   114    1
  119   113   115    1
  120   115   116    1
  121    87   117    1
  122   113   117    1
  123   117   118    1
  124   117   119    1
  125   119   120    1
  126   106   121    1
  127   119   121    1
  128   119   122    1
  129   122   123    1
  130   122   124    1
  131   122   125    1
  132   125   126    1
  133   127   128    1
  134   127   129    1
  135   127   130    1
  136   130   131    1
  137   130   132    1
  138   130   133    1
  139   133   134    1
  140   127   135    1
  141   133   135    1
  142   135   136    1
  143   135   137    1
  144   133   138    1
  145   138   139    1
@<TRIPOS>SUBSTRUCTURE
       1 MOL1            1 RESIDUE      1      MOL     
       2 MOL1          139 RESIDUE      1      MOL     
@<SCITEGIC>MOL_PROPERTY
feprocess Rank
SciTegic.value.IntegerValue
59

@<SCITEGIC>MOL_PROPERTY
Conf_Id
SciTegic.value.IntegerValue
14

@<SCITEGIC>MOL_PROPERTY
Probability
SciTegic.value.DoubleValue
0.12

@<SCITEGIC>MOL_PROPERTY
G
SciTegic.value.DoubleValue
548.055

@<SCITEGIC>MOL_PROPERTY
E
SciTegic.value.DoubleValue
369.097

@<SCITEGIC>MOL_PROPERTY
-TS
SciTegic.value.DoubleValue
178.958

@<SCITEGIC>MOL_PROPERTY
U+W
SciTegic.value.DoubleValue
246.586

@<SCITEGIC>MOL_PROPERTY
U
SciTegic.value.DoubleValue
281.029

@<SCITEGIC>MOL_PROPERTY
W
SciTegic.value.DoubleValue
-34.443

@<SCITEGIC>MOL_PROPERTY
W(PB)
SciTegic.value.DoubleValue
-40.404

@<SCITEGIC>MOL_PROPERTY
W(SA)
SciTegic.value.DoubleValue
5.961

@<SCITEGIC>MOL_PROPERTY
Valence
SciTegic.value.DoubleValue
153.962

@<SCITEGIC>MOL_PROPERTY
Coulomb
SciTegic.value.DoubleValue
149.420

@<SCITEGIC>MOL_PROPERTY
VdW
SciTegic.value.DoubleValue
-22.352

@<SCITEGIC>MOL_PROPERTY
VdW6
SciTegic.value.DoubleValue
-169.409

@<SCITEGIC>MOL_PROPERTY
VdW12
SciTegic.value.DoubleValue
147.057

@<SCITEGIC>MOL_PROPERTY
Bond
SciTegic.value.DoubleValue
4.557

@<SCITEGIC>MOL_PROPERTY
Angle
SciTegic.value.DoubleValue
11.771

@<SCITEGIC>MOL_PROPERTY
Pdih
SciTegic.value.DoubleValue
137.634

@<SCITEGIC>MOL_PROPERTY
Idih
SciTegic.value.DoubleValue
0.000

@<SCITEGIC>MOL_PROPERTY
Tether
SciTegic.value.DoubleValue
0.000

@<TRIPOS>MOLECULE
CD_guest-s16_fast_vm2_rndm.mol2 : feprocess host+ligand conformer 60
         139         145           2
SMALL
USER_CHARGES
 
@<TRIPOS>ATOM
       1    C1      16.195255   15.204907   20.672153 C.3        1 MOL1         0.2972
       2    H1      15.185738   15.048074   20.270645 H          1 MOL1         0.0751
       3    O1      16.346832   16.516949   21.242895 O.3        1 MOL1        -0.3740
       4    C2      16.513533   14.181669   21.793321 C.3        1 MOL1         0.1003
       5    H2      16.431865   13.177648   21.357124 H          1 MOL1         0.0783
       6    O2      15.578346   14.306599   22.877678 O.3        1 MOL1        -0.5519
       7    H3      15.488592   15.272129   23.079730 H          1 MOL1         0.3769
       8    C3      17.963292   14.364421   22.311906 C.3        1 MOL1         0.1053
       9    H4      18.018939   15.326807   22.836700 H          1 MOL1         0.0783
      10    O3      18.287797   13.306446   23.219890 O.3        1 MOL1        -0.5519
      11    H5      17.508699   13.230135   23.814656 H          1 MOL1         0.3769
      12    C4      18.982106   14.388995   21.144670 C.3        1 MOL1         0.1018
      13    H6      19.060390   13.373031   20.735669 H          1 MOL1         0.0783
      14    C5      18.549239   15.354013   20.005083 C.3        1 MOL1         0.1043
      15    H7      18.599532   16.382590   20.378053 H          1 MOL1         0.0783
      16    O4      17.183495   15.049438   19.628991 O.3        1 MOL1        -0.3740
      17    C6      19.432492   15.300112   18.731602 C.3        1 MOL1         0.0138
      18    H8      20.253140   16.018635   18.846509 H          1 MOL1         0.0794
      19    H9      18.833562   15.643918   17.877960 H          1 MOL1         0.0794
      20    O5      19.965768   13.997193   18.464242 O.3        1 MOL1        -0.5486
      21    H10     20.696532   13.847343   19.108794 H          1 MOL1         0.3769
      22    C7      14.687006   20.259978   21.501888 C.3        1 MOL1         0.2972
      23    H11     14.050403   21.153490   21.539295 H          1 MOL1         0.0751
      24    O6      16.086268   20.603445   21.560467 O.3        1 MOL1        -0.3740
      25    C8      14.358880   19.336523   22.699053 C.3        1 MOL1         0.1003
      26    H12     13.308603   19.030773   22.606407 H          1 MOL1         0.0783
      27    O7      14.544303   20.040121   23.937777 O.3        1 MOL1        -0.5519
      28    H13     15.153600   20.795594   23.748345 H          1 MOL1         0.3769
      29    C9      15.235266   18.064427   22.662650 C.3        1 MOL1         0.1053
      30    H14     16.269425   18.371951   22.858549 H          1 MOL1         0.0783
      31    O8      14.810267   17.152242   23.680793 O.3        1 MOL1        -0.5519
      32    H15     14.710921   17.703587   24.488847 H          1 MOL1         0.3769
      33    C10     15.184621   17.364390   21.281166 C.3        1 MOL1         0.1018
      34    H16     14.250891   16.790489   21.214435 H          1 MOL1         0.0783
      35    C11     15.301338   18.354349   20.086430 C.3        1 MOL1         0.1043
      36    H17     16.347411   18.677145   20.031689 H          1 MOL1         0.0783
      37    O9      14.457519   19.518546   20.286178 O.3        1 MOL1        -0.3740
      38    C12     14.946036   17.724608   18.718364 C.3        1 MOL1         0.0138
      39    H18     15.742574   17.022407   18.438413 H          1 MOL1         0.0794
      40    H19     14.932132   18.518501   17.959454 H          1 MOL1         0.0794
      41    O10     13.685769   17.043495   18.749973 O.3        1 MOL1        -0.5486
      42    H20     13.493493   16.730133   17.839292 H          1 MOL1         0.3769
      43    C13     18.550534   23.963533   20.999087 C.3        1 MOL1         0.2972
      44    H21     18.905324   24.956846   20.695150 H          1 MOL1         0.0751
      45    O11     19.617896   23.156923   21.530415 O.3        1 MOL1        -0.3740
      46    C14     17.469314   24.082611   22.106666 C.3        1 MOL1         0.1003
      47    H22     16.656998   24.703918   21.707769 H          1 MOL1         0.0783
      48    O12     18.010681   24.709157   23.281539 O.3        1 MOL1        -0.5519
      49    H23     18.907365   24.318376   23.437163 H          1 MOL1         0.3769
      50    C15     16.878192   22.693778   22.461484 C.3        1 MOL1         0.1053
      51    H24     17.667081   22.094460   22.936653 H          1 MOL1         0.0783
      52    O13     15.779153   22.853340   23.364850 O.3        1 MOL1        -0.5519
      53    H25     16.093405   23.497282   24.038264 H          1 MOL1         0.3769
      54    C16     16.412420   21.954327   21.184107 C.3        1 MOL1         0.1018
      55    H26     15.546317   22.483870   20.765249 H          1 MOL1         0.0783
      56    C17     17.539178   21.912122   20.118148 C.3        1 MOL1         0.1043
      57    H27     18.375287   21.324762   20.517260 H          1 MOL1         0.0783
      58    O14     17.979561   23.268044   19.867647 O.3        1 MOL1        -0.3740
      59    C18     17.132618   21.271436   18.765516 C.3        1 MOL1         0.0138
      60    H28     17.321998   20.192609   18.818426 H          1 MOL1         0.0794
      61    H29     17.790084   21.668002   17.980361 H          1 MOL1         0.0794
      62    O15     15.761660   21.502556   18.418943 O.3        1 MOL1        -0.5486
      63    H30     15.211628   20.932357   19.005628 H          1 MOL1         0.3769
      64    C19     23.720591   22.859609   21.746327 C.3        1 MOL1         0.2972
      65    H31     24.808456   23.001902   21.781829 H          1 MOL1         0.0751
      66    O16     23.365712   21.464968   21.746542 O.3        1 MOL1        -0.3740
      67    C20     23.060569   23.520097   22.980336 C.3        1 MOL1         0.1003
      68    H32     23.272528   24.596316   22.935876 H          1 MOL1         0.0783
      69    O17     23.608129   22.975098   24.191684 O.3        1 MOL1        -0.5519
      70    H33     23.992496   22.094070   23.960420 H          1 MOL1         0.3769
      71    C21     21.526222   23.329531   22.946028 C.3        1 MOL1         0.1053
      72    H34     21.317144   22.262621   23.091435 H          1 MOL1         0.0783
      73    O18     20.922070   24.079882   24.004847 O.3        1 MOL1        -0.5519
      74    H35     21.461922   23.874713   24.800570 H          1 MOL1         0.3769
      75    C22     20.922878   23.766125   21.587712 C.3        1 MOL1         0.1018
      76    H36     20.867180   24.862669   21.574364 H          1 MOL1         0.0783
      77    C23     21.736139   23.255089   20.362118 C.3        1 MOL1         0.1043
      78    H37     21.539895   22.181000   20.260686 H          1 MOL1         0.0783
      79    O19     23.159982   23.459607   20.560802 O.3        1 MOL1        -0.3740
      80    C24     21.336220   23.922306   19.024303 C.3        1 MOL1         0.0138
      81    H38     20.346947   23.549929   18.727798 H          1 MOL1         0.0794
      82    H39     22.046709   23.606071   18.248673 H          1 MOL1         0.0794
      83    O20     21.309266   25.351714   19.121642 O.3        1 MOL1        -0.5486
      84    H40     21.112479   25.707412   18.227674 H          1 MOL1         0.3769
      85    C25     24.994667   17.674514   21.113634 C.3        1 MOL1         0.2972
      86    H41     25.640963   16.840431   20.811254 H          1 MOL1         0.0751
      87    O21     23.729241   17.212517   21.626801 O.3        1 MOL1        -0.3740
      88    C26     25.664235   18.507587   22.237705 C.3        1 MOL1         0.1003
      89    H42     26.624380   18.873911   21.851821 H          1 MOL1         0.0783
      90    O22     25.896075   17.694477   23.400163 O.3        1 MOL1        -0.5519
      91    H43     25.078525   17.155400   23.547605 H          1 MOL1         0.3769
      92    C27     24.793797   19.735606   22.607741 C.3        1 MOL1         0.1053
      93    H44     23.875805   19.366560   23.084055 H          1 MOL1         0.0783
      94    O23     25.503968   20.576437   23.522891 O.3        1 MOL1        -0.5519
      95    H45     25.889773   19.963372   24.187873 H          1 MOL1         0.3769
      96    C28     24.394343   20.542539   21.346748 C.3        1 MOL1         0.1018
      97    H46     25.283027   21.057087   20.957991 H          1 MOL1         0.0783
      98    C29     23.809857   19.625560   20.238036 C.3        1 MOL1         0.1043
      99    H47     22.863861   19.204800   20.596949 H          1 MOL1         0.0783
     100    O24     24.744707   18.549356   19.990582 O.3        1 MOL1        -0.3740
     101    C30     23.499645   20.337252   18.895675 C.3        1 MOL1         0.0138
     102    H48     22.459968   20.686080   18.921406 H          1 MOL1         0.0794
     103    H49     23.562238   19.597813   18.086255 H          1 MOL1         0.0794
     104    O25     24.371005   21.441670   18.622141 O.3        1 MOL1        -0.5486
     105    H50     24.107688   22.175232   19.225553 H          1 MOL1         0.3769
     106    C31     21.289031   13.865593   21.714924 C.3        1 MOL1         0.2972
     107    H51     20.882581   12.845878   21.724618 H          1 MOL1         0.0751
     108    O26     20.234698   14.848434   21.692224 O.3        1 MOL1        -0.3740
     109    C32     22.146316   14.088779   22.984595 C.3        1 MOL1         0.1003
     110    H52     22.954381   13.345763   22.972547 H          1 MOL1         0.0783
     111    O27     21.345894   13.902593   24.162623 O.3        1 MOL1        -0.5519
     112    H53     20.406370   14.031847   23.887534 H          1 MOL1         0.3769
     113    C33     22.789657   15.494362   22.984223 C.3        1 MOL1         0.1053
     114    H54     21.987196   16.230345   23.113716 H          1 MOL1         0.0783
     115    O28     23.713957   15.602195   24.072530 O.3        1 MOL1        -0.5519
     116    H55     23.231572   15.247057   24.852128 H          1 MOL1         0.3769
     117    C34     23.520864   15.787649   21.651117 C.3        1 MOL1         0.1018
     118    H56     24.469062   15.233875   21.650078 H          1 MOL1         0.0783
     119    C35     22.675689   15.403221   20.402836 C.3        1 MOL1         0.1043
     120    H57     21.857400   16.128016   20.318858 H          1 MOL1         0.0783
     121    O29     22.121452   14.070491   20.555086 O.3        1 MOL1        -0.3740
     122    C36     23.464679   15.444980   19.072340 C.3        1 MOL1         0.0138
     123    H58     23.651761   16.494040   18.808630 H          1 MOL1         0.0794
     124    H59     22.835851   15.020524   18.278213 H          1 MOL1         0.0794
     125    O30     24.705814   14.733469   19.158471 O.3        1 MOL1        -0.5486
     126    H60     25.121038   14.750841   18.268801 H          1 MOL1         0.3769
     127    C1      19.581681   19.217091   23.330016 C.3        1 MOL1        -0.1693
     128    H1      19.996324   18.554241   24.100395 H          1 MOL1         0.0829
     129    H2      18.986066   19.996839   23.819178 H          1 MOL1         0.0829
     130    C2      18.896502   18.478539   22.139103 C.3        1 MOL1        -0.1768
     131    H3      18.429797   17.524535   22.393476 H          1 MOL1         0.0829
     132    H4      18.185906   19.083991   21.569318 H          1 MOL1         0.0829
     133    C3      20.315210   18.385177   21.510764 C.3        1 MOL1         0.1211
     134    H5      20.897478   17.528858   21.864166 H          1 MOL1         0.0786
     135    C4      20.616421   19.708190   22.270709 C.3        1 MOL1        -0.1768
     136    H6      20.328165   20.617025   21.734225 H          1 MOL1         0.0829
     137    H7      21.638217   19.819094   22.640096 H          1 MOL1         0.0829
     138    O1      20.360295   18.470329   20.105459 O.3        1 MOL1        -0.5515
     139    H8      19.836143   19.252783   19.854929 H          1 MOL1         0.3773
@<TRIPOS>BOND
    1     1     2    1
    2     1     3    1
    3     1     4    1
    4     4     5    1
    5     4     6    1
    6     6     7    1
    7     4     8    1
    8     8     9    1
    9     8    10    1
   10    10    11    1
   11     8    12    1
   12    12    13    1
   13    12    14    1
   14    14    15    1
   15     1    16    1
   16    14    16    1
   17    14    17    1
   18    17    18    1
   19    17    19    1
   20    17    20    1
   21    20    21    1
   22    22    23    1
   23    22    24    1
   24    22    25    1
   25    25    26    1
   26    25    27    1
   27    27    28    1
   28    25    29    1
   29    29    30    1
   30    29    31    1
   31    31    32    1
   32     3    33    1
   33    29    33    1
   34    33    34    1
   35    33    35    1
   36    35    36    1
   37    22    37    1
   38    35    37    1
   39    35    38    1
   40    38    39    1
   41    38    40    1
   42    38    41    1
   43    41    42    1
   44    43    44    1
   45    43    45    1
   46    43    46    1
   47    46    47    1
   48    46    48    1
   49    48    49    1
   50    46    50    1
   51    50    51    1
   52    50    52    1
   53    52    53    1
   54    24    54    1
   55    50    54    1
   56    54    55    1
   57    54    56    1
   58    56    57    1
   59    43    58    1
   60    56    58    1
   61    56    59    1
   62    59    60    1
   63    59    61    1
   64    59    62    1
   65    62    63    1
   66    64    65    1
   67    64    66    1
   68    64    67    1
   69    67    68    1
   70    67    69    1
   71    69    70    1
   72    67    71    1
   73    71    72    1
   74    71    73    1
   75    73    74    1
   76    45    75    1
   77    71    75    1
   78    75    76    1
   79    75    77    1
   80    77    78    1
   81    64    79    1
   82    77    79    1
   83    77    80    1
   84    80    81    1
   85    80    82    1
   86    80    83    1
   87    83    84    1
   88    85    86    1
   89    85    87    1
   90    85    88    1
   91    88    89    1
   92    88    90    1
   93    90    91    1
   94    88    92    1
   95    92    93    1
   96    92    94    1
   97    94    95    1
   98    66    96    1
   99    92    96    1
  100    96    97    1
  101    96    98    1
  102    98    99    1
  103    85   100    1
  104    98   100    1
  105    98   101    1
  106   101   102    1
  107   101   103    1
  108   101   104    1
  109   104   105    1
  110   106   107    1
  111    12   108    1
  112   106   108    1
  113   106   109    1
  114   109   110    1
  115   109   111    1
  116   111   112    1
  117   109   113    1
  118   113   114    1
  119   113   115    1
  120   115   116    1
  121    87   117    1
  122   113   117    1
  123   117   118    1
  124   117   119    1
  125   119   120    1
  126   106   121    1
  127   119   121    1
  128   119   122    1
  129   122   123    1
  130   122   124    1
  131   122   125    1
  132   125   126    1
  133   127   128    1
  134   127   129    1
  135   127   130    1
  136   130   131    1
  137   130   132    1
  138   130   133    1
  139   133   134    1
  140   127   135    1
  141   133   135    1
  142   135   136    1
  143   135   137    1
  144   133   138    1
  145   138   139    1
@<TRIPOS>SUBSTRUCTURE
       1 MOL1            1 RESIDUE      1      MOL     
       2 MOL1          139 RESIDUE      1      MOL     
@<SCITEGIC>MOL_PROPERTY
feprocess Rank
SciTegic.value.IntegerValue
60

@<SCITEGIC>MOL_PROPERTY
Conf_Id
SciTegic.value.IntegerValue
419

@<SCITEGIC>MOL_PROPERTY
Probability
SciTegic.value.DoubleValue
0.12

@<SCITEGIC>MOL_PROPERTY
G
SciTegic.value.DoubleValue
548.056

@<SCITEGIC>MOL_PROPERTY
E
SciTegic.value.DoubleValue
370.324

@<SCITEGIC>MOL_PROPERTY
-TS
SciTegic.value.DoubleValue
177.732

@<SCITEGIC>MOL_PROPERTY
U+W
SciTegic.value.DoubleValue
247.813

@<SCITEGIC>MOL_PROPERTY
U
SciTegic.value.DoubleValue
283.702

@<SCITEGIC>MOL_PROPERTY
W
SciTegic.value.DoubleValue
-35.889

@<SCITEGIC>MOL_PROPERTY
W(PB)
SciTegic.value.DoubleValue
-41.868

@<SCITEGIC>MOL_PROPERTY
W(SA)
SciTegic.value.DoubleValue
5.979

@<SCITEGIC>MOL_PROPERTY
Valence
SciTegic.value.DoubleValue
154.416

@<SCITEGIC>MOL_PROPERTY
Coulomb
SciTegic.value.DoubleValue
153.012

@<SCITEGIC>MOL_PROPERTY
VdW
SciTegic.value.DoubleValue
-23.726

@<SCITEGIC>MOL_PROPERTY
VdW6
SciTegic.value.DoubleValue
-169.166

@<SCITEGIC>MOL_PROPERTY
VdW12
SciTegic.value.DoubleValue
145.439

@<SCITEGIC>MOL_PROPERTY
Bond
SciTegic.value.DoubleValue
4.504

@<SCITEGIC>MOL_PROPERTY
Angle
SciTegic.value.DoubleValue
10.778

@<SCITEGIC>MOL_PROPERTY
Pdih
SciTegic.value.DoubleValue
139.134

@<SCITEGIC>MOL_PROPERTY
Idih
SciTegic.value.DoubleValue
0.000

@<SCITEGIC>MOL_PROPERTY
Tether
SciTegic.value.DoubleValue
0.000

@<TRIPOS>MOLECULE
CD_guest-s16_fast_vm2_rndm.mol2 : feprocess host+ligand conformer 61
         139         145           2
SMALL
USER_CHARGES
 
@<TRIPOS>ATOM
       1    C1      16.213102   15.070849   20.533693 C.3        1 MOL1         0.2972
       2    H1      15.164005   14.922494   20.250532 H          1 MOL1         0.0751
       3    O1      16.513786   16.473127   20.721813 O.3        1 MOL1        -0.3740
       4    C2      16.570323   14.251740   21.803073 C.3        1 MOL1         0.1003
       5    H2      16.448146   13.192813   21.539954 H          1 MOL1         0.0783
       6    O2      15.701213   14.549252   22.904766 O.3        1 MOL1        -0.5519
       7    H3      15.913850   15.473919   23.189287 H          1 MOL1         0.3769
       8    C3      18.051782   14.469633   22.196312 C.3        1 MOL1         0.1053
       9    H4      18.169806   15.513697   22.516931 H          1 MOL1         0.0783
      10    O3      18.380077   13.588547   23.275558 O.3        1 MOL1        -0.5519
      11    H5      17.599912   13.616241   23.874840 H          1 MOL1         0.3769
      12    C4      19.002382   14.217514   20.993602 C.3        1 MOL1         0.1018
      13    H6      19.111578   13.135116   20.848990 H          1 MOL1         0.0783
      14    C5      18.487990   14.850502   19.669387 C.3        1 MOL1         0.1043
      15    H7      18.626482   15.933516   19.734534 H          1 MOL1         0.0783
      16    O4      17.076293   14.578627   19.486535 O.3        1 MOL1        -0.3740
      17    C6      19.261528   14.381612   18.412491 C.3        1 MOL1         0.0138
      18    H8      20.257403   14.844615   18.422313 H          1 MOL1         0.0794
      19    H9      18.738794   14.758104   17.523230 H          1 MOL1         0.0794
      20    O5      19.392294   12.956730   18.338732 O.3        1 MOL1        -0.5486
      21    H10     20.090668   12.690354   18.974729 H          1 MOL1         0.3769
      22    C7      14.998537   20.203266   21.761460 C.3        1 MOL1         0.2972
      23    H11     14.373198   21.038008   22.102764 H          1 MOL1         0.0751
      24    O6      16.186960   20.673098   21.092731 O.3        1 MOL1        -0.3740
      25    C8      15.397260   19.304315   22.961032 C.3        1 MOL1         0.1003
      26    H12     14.463828   18.930297   23.401502 H          1 MOL1         0.0783
      27    O7      16.123697   20.034071   23.963221 O.3        1 MOL1        -0.5519
      28    H13     15.959368   20.994110   23.801376 H          1 MOL1         0.3769
      29    C9      16.224658   18.084879   22.493618 C.3        1 MOL1         0.1053
      30    H14     17.190671   18.453752   22.122898 H          1 MOL1         0.0783
      31    O8      16.427097   17.223301   23.617855 O.3        1 MOL1        -0.5519
      32    H15     16.772269   17.819621   24.319987 H          1 MOL1         0.3769
      33    C10     15.520399   17.318073   21.342830 C.3        1 MOL1         0.1018
      34    H16     14.689400   16.737847   21.762652 H          1 MOL1         0.0783
      35    C11     14.989976   18.277793   20.239809 C.3        1 MOL1         0.1043
      36    H17     15.854659   18.673757   19.691495 H          1 MOL1         0.0783
      37    O9      14.260239   19.381812   20.832746 O.3        1 MOL1        -0.3740
      38    C12     14.069071   17.584947   19.205897 C.3        1 MOL1         0.0138
      39    H18     14.660655   16.850838   18.642267 H          1 MOL1         0.0794
      40    H19     13.725760   18.341157   18.487540 H          1 MOL1         0.0794
      41    O10     12.939653   16.943975   19.814645 O.3        1 MOL1        -0.5486
      42    H20     13.264346   16.205599   20.369555 H          1 MOL1         0.3769
      43    C13     18.468522   24.112990   20.784519 C.3        1 MOL1         0.2972
      44    H21     18.889568   25.108431   20.593287 H          1 MOL1         0.0751
      45    O11     19.503354   23.146948   21.072911 O.3        1 MOL1        -0.3740
      46    C14     17.447867   24.148349   21.951187 C.3        1 MOL1         0.1003
      47    H22     16.617210   24.789538   21.628146 H          1 MOL1         0.0783
      48    O12     18.012320   24.701427   23.148980 O.3        1 MOL1        -0.5519
      49    H23     18.757173   24.107285   23.419876 H          1 MOL1         0.3769
      50    C15     16.875938   22.733702   22.216114 C.3        1 MOL1         0.1053
      51    H24     17.693086   22.095280   22.581145 H          1 MOL1         0.0783
      52    O13     15.853596   22.839025   23.213644 O.3        1 MOL1        -0.5519
      53    H25     16.196861   23.499159   23.858693 H          1 MOL1         0.3769
      54    C16     16.307308   22.100845   20.913223 C.3        1 MOL1         0.1018
      55    H26     15.334332   22.556994   20.691324 H          1 MOL1         0.0783
      56    C17     17.247753   22.295169   19.690209 C.3        1 MOL1         0.1043
      57    H27     18.100782   21.622539   19.813121 H          1 MOL1         0.0783
      58    O14     17.739383   23.656645   19.625118 O.3        1 MOL1        -0.3740
      59    C18     16.591483   21.931079   18.335830 C.3        1 MOL1         0.0138
      60    H28     16.473830   20.840020   18.287374 H          1 MOL1         0.0794
      61    H29     17.278823   22.218173   17.529092 H          1 MOL1         0.0794
      62    O15     15.320260   22.564825   18.146611 O.3        1 MOL1        -0.5486
      63    H30     14.669281   22.097172   18.712612 H          1 MOL1         0.3769
      64    C19     23.474092   22.676029   22.131868 C.3        1 MOL1         0.2972
      65    H31     24.516057   22.781729   22.460488 H          1 MOL1         0.0751
      66    O16     23.237651   21.396247   21.514619 O.3        1 MOL1        -0.3740
      67    C20     22.508968   22.840686   23.333583 C.3        1 MOL1         0.1003
      68    H32     22.655242   23.854876   23.727700 H          1 MOL1         0.0783
      69    O17     22.790258   21.889353   24.373026 O.3        1 MOL1        -0.5519
      70    H33     23.586552   21.375454   24.091807 H          1 MOL1         0.3769
      71    C21     21.035190   22.711959   22.881889 C.3        1 MOL1         0.1053
      72    H34     20.866263   21.673219   22.572727 H          1 MOL1         0.0783
      73    O18     20.186419   23.021077   23.990859 O.3        1 MOL1        -0.5519
      74    H35     20.564450   22.507535   24.740345 H          1 MOL1         0.3769
      75    C22     20.716038   23.641338   21.680411 C.3        1 MOL1         0.1018
      76    H36     20.599402   24.667183   22.054336 H          1 MOL1         0.0783
      77    C23     21.816011   23.601640   20.579798 C.3        1 MOL1         0.1043
      78    H37     21.727949   22.644142   20.050303 H          1 MOL1         0.0783
      79    O19     23.139734   23.696882   21.168374 O.3        1 MOL1        -0.3740
      80    C24     21.668185   24.720293   19.520890 C.3        1 MOL1         0.0138
      81    H38     20.786496   24.500494   18.903654 H          1 MOL1         0.0794
      82    H39     22.544266   24.694036   18.859108 H          1 MOL1         0.0794
      83    O20     21.532360   26.016345   20.117468 O.3        1 MOL1        -0.5486
      84    H40     21.523563   26.678738   19.392303 H          1 MOL1         0.3769
      85    C25     25.027324   17.712503   20.874489 C.3        1 MOL1         0.2972
      86    H41     25.685356   16.874752   20.610127 H          1 MOL1         0.0751
      87    O21     23.671291   17.267407   21.097400 O.3        1 MOL1        -0.3740
      88    C26     25.553067   18.469057   22.125191 C.3        1 MOL1         0.1003
      89    H42     26.530726   18.888894   21.854465 H          1 MOL1         0.0783
      90    O22     25.727203   17.600365   23.253832 O.3        1 MOL1        -0.5519
      91    H43     24.830030   17.256685   23.494494 H          1 MOL1         0.3769
      92    C27     24.616629   19.649941   22.482460 C.3        1 MOL1         0.1053
      93    H44     23.645436   19.237659   22.791104 H          1 MOL1         0.0783
      94    O23     25.194489   20.395866   23.558984 O.3        1 MOL1        -0.5519
      95    H45     25.560566   19.717551   24.171160 H          1 MOL1         0.3769
      96    C28     24.386934   20.569512   21.252998 C.3        1 MOL1         0.1018
      97    H46     25.287671   21.172256   21.080552 H          1 MOL1         0.0783
      98    C29     24.056442   19.765060   19.964578 C.3        1 MOL1         0.1043
      99    H47     23.047989   19.349051   20.071709 H          1 MOL1         0.0783
     100    O24     24.996261   18.674338   19.797429 O.3        1 MOL1        -0.3740
     101    C30     24.047858   20.625860   18.676912 C.3        1 MOL1         0.0138
     102    H48     23.137692   21.240142   18.674268 H          1 MOL1         0.0794
     103    H49     23.986670   19.954414   17.810223 H          1 MOL1         0.0794
     104    O25     25.199092   21.471165   18.564144 O.3        1 MOL1        -0.5486
     105    H50     25.080495   22.215517   19.192891 H          1 MOL1         0.3769
     106    C31     21.258846   14.013237   21.927024 C.3        1 MOL1         0.2972
     107    H51     20.840340   13.039024   22.211037 H          1 MOL1         0.0751
     108    O26     20.270000   14.845543   21.283773 O.3        1 MOL1        -0.3740
     109    C32     21.819840   14.735098   23.180070 C.3        1 MOL1         0.1003
     110    H52     22.599801   14.085345   23.598152 H          1 MOL1         0.0783
     111    O27     20.805902   14.945165   24.175588 O.3        1 MOL1        -0.5519
     112    H53     19.996900   14.459260   23.882445 H          1 MOL1         0.3769
     113    C33     22.476494   16.084329   22.809358 C.3        1 MOL1         0.1053
     114    H54     21.683581   16.771876   22.495667 H          1 MOL1         0.0783
     115    O28     23.126870   16.611275   23.969186 O.3        1 MOL1        -0.5519
     116    H55     22.454972   16.530269   24.683632 H          1 MOL1         0.3769
     117    C34     23.484974   15.943501   21.640094 C.3        1 MOL1         0.1018
     118    H56     24.420502   15.521586   22.030504 H          1 MOL1         0.0783
     119    C35     22.944533   15.054199   20.482792 C.3        1 MOL1         0.1043
     120    H57     22.173926   15.623955   19.947834 H          1 MOL1         0.0783
     121    O29     22.353033   13.836394   21.003870 O.3        1 MOL1        -0.3740
     122    C36     24.026390   14.669258   19.445410 C.3        1 MOL1         0.0138
     123    H58     24.291535   15.566547   18.869965 H          1 MOL1         0.0794
     124    H59     23.594296   13.945957   18.740898 H          1 MOL1         0.0794
     125    O30     25.199523   14.124410   20.062482 O.3        1 MOL1        -0.5486
     126    H60     25.803619   13.829738   19.346249 H          1 MOL1         0.3769
     127    C1      20.112171   19.760134   18.859258 C.3        1 MOL1        -0.1693
     128    H1      21.076972   19.629713   18.353308 H          1 MOL1         0.0829
     129    H2      19.568186   20.573551   18.366790 H          1 MOL1         0.0829
     130    C2      20.193302   19.823125   20.419604 C.3        1 MOL1        -0.1768
     131    H3      19.318550   20.241581   20.929952 H          1 MOL1         0.0829
     132    H4      21.089256   20.280078   20.838610 H          1 MOL1         0.0829
     133    C3      20.197267   18.271290   20.366053 C.3        1 MOL1         0.1211
     134    H5      21.187839   17.837244   20.179114 H          1 MOL1         0.0786
     135    C4      19.315337   18.435559   19.090000 C.3        1 MOL1        -0.1768
     136    H6      18.246447   18.570695   19.295524 H          1 MOL1         0.0829
     137    H7      19.434098   17.666358   18.320079 H          1 MOL1         0.0829
     138    O1      19.575447   17.654012   21.465831 O.3        1 MOL1        -0.5515
     139    H8      19.733899   16.688699   21.400267 H          1 MOL1         0.3773
@<TRIPOS>BOND
    1     1     2    1
    2     1     3    1
    3     1     4    1
    4     4     5    1
    5     4     6    1
    6     6     7    1
    7     4     8    1
    8     8     9    1
    9     8    10    1
   10    10    11    1
   11     8    12    1
   12    12    13    1
   13    12    14    1
   14    14    15    1
   15     1    16    1
   16    14    16    1
   17    14    17    1
   18    17    18    1
   19    17    19    1
   20    17    20    1
   21    20    21    1
   22    22    23    1
   23    22    24    1
   24    22    25    1
   25    25    26    1
   26    25    27    1
   27    27    28    1
   28    25    29    1
   29    29    30    1
   30    29    31    1
   31    31    32    1
   32     3    33    1
   33    29    33    1
   34    33    34    1
   35    33    35    1
   36    35    36    1
   37    22    37    1
   38    35    37    1
   39    35    38    1
   40    38    39    1
   41    38    40    1
   42    38    41    1
   43    41    42    1
   44    43    44    1
   45    43    45    1
   46    43    46    1
   47    46    47    1
   48    46    48    1
   49    48    49    1
   50    46    50    1
   51    50    51    1
   52    50    52    1
   53    52    53    1
   54    24    54    1
   55    50    54    1
   56    54    55    1
   57    54    56    1
   58    56    57    1
   59    43    58    1
   60    56    58    1
   61    56    59    1
   62    59    60    1
   63    59    61    1
   64    59    62    1
   65    62    63    1
   66    64    65    1
   67    64    66    1
   68    64    67    1
   69    67    68    1
   70    67    69    1
   71    69    70    1
   72    67    71    1
   73    71    72    1
   74    71    73    1
   75    73    74    1
   76    45    75    1
   77    71    75    1
   78    75    76    1
   79    75    77    1
   80    77    78    1
   81    64    79    1
   82    77    79    1
   83    77    80    1
   84    80    81    1
   85    80    82    1
   86    80    83    1
   87    83    84    1
   88    85    86    1
   89    85    87    1
   90    85    88    1
   91    88    89    1
   92    88    90    1
   93    90    91    1
   94    88    92    1
   95    92    93    1
   96    92    94    1
   97    94    95    1
   98    66    96    1
   99    92    96    1
  100    96    97    1
  101    96    98    1
  102    98    99    1
  103    85   100    1
  104    98   100    1
  105    98   101    1
  106   101   102    1
  107   101   103    1
  108   101   104    1
  109   104   105    1
  110   106   107    1
  111    12   108    1
  112   106   108    1
  113   106   109    1
  114   109   110    1
  115   109   111    1
  116   111   112    1
  117   109   113    1
  118   113   114    1
  119   113   115    1
  120   115   116    1
  121    87   117    1
  122   113   117    1
  123   117   118    1
  124   117   119    1
  125   119   120    1
  126   106   121    1
  127   119   121    1
  128   119   122    1
  129   122   123    1
  130   122   124    1
  131   122   125    1
  132   125   126    1
  133   127   128    1
  134   127   129    1
  135   127   130    1
  136   130   131    1
  137   130   132    1
  138   130   133    1
  139   133   134    1
  140   127   135    1
  141   133   135    1
  142   135   136    1
  143   135   137    1
  144   133   138    1
  145   138   139    1
@<TRIPOS>SUBSTRUCTURE
       1 MOL1            1 RESIDUE      1      MOL     
       2 MOL1          139 RESIDUE      1      MOL     
@<SCITEGIC>MOL_PROPERTY
feprocess Rank
SciTegic.value.IntegerValue
61

@<SCITEGIC>MOL_PROPERTY
Conf_Id
SciTegic.value.IntegerValue
407

@<SCITEGIC>MOL_PROPERTY
Probability
SciTegic.value.DoubleValue
0.11

@<SCITEGIC>MOL_PROPERTY
G
SciTegic.value.DoubleValue
548.092

@<SCITEGIC>MOL_PROPERTY
E
SciTegic.value.DoubleValue
369.554

@<SCITEGIC>MOL_PROPERTY
-TS
SciTegic.value.DoubleValue
178.537

@<SCITEGIC>MOL_PROPERTY
U+W
SciTegic.value.DoubleValue
247.043

@<SCITEGIC>MOL_PROPERTY
U
SciTegic.value.DoubleValue
286.015

@<SCITEGIC>MOL_PROPERTY
W
SciTegic.value.DoubleValue
-38.972

@<SCITEGIC>MOL_PROPERTY
W(PB)
SciTegic.value.DoubleValue
-45.052

@<SCITEGIC>MOL_PROPERTY
W(SA)
SciTegic.value.DoubleValue
6.080

@<SCITEGIC>MOL_PROPERTY
Valence
SciTegic.value.DoubleValue
150.887

@<SCITEGIC>MOL_PROPERTY
Coulomb
SciTegic.value.DoubleValue
153.248

@<SCITEGIC>MOL_PROPERTY
VdW
SciTegic.value.DoubleValue
-18.120

@<SCITEGIC>MOL_PROPERTY
VdW6
SciTegic.value.DoubleValue
-167.527

@<SCITEGIC>MOL_PROPERTY
VdW12
SciTegic.value.DoubleValue
149.407

@<SCITEGIC>MOL_PROPERTY
Bond
SciTegic.value.DoubleValue
4.893

@<SCITEGIC>MOL_PROPERTY
Angle
SciTegic.value.DoubleValue
13.530

@<SCITEGIC>MOL_PROPERTY
Pdih
SciTegic.value.DoubleValue
132.464

@<SCITEGIC>MOL_PROPERTY
Idih
SciTegic.value.DoubleValue
0.000

@<SCITEGIC>MOL_PROPERTY
Tether
SciTegic.value.DoubleValue
0.000

@<TRIPOS>MOLECULE
CD_guest-s16_fast_vm2_rndm.mol2 : feprocess host+ligand conformer 62
         139         145           2
SMALL
USER_CHARGES
 
@<TRIPOS>ATOM
       1    C1      16.125095   15.137611   21.133317 C.3        1 MOL1         0.2972
       2    H1      15.056166   14.964649   20.959020 H          1 MOL1         0.0751
       3    O1      16.407152   16.527699   21.390024 O.3        1 MOL1        -0.3740
       4    C2      16.623160   14.296024   22.336832 C.3        1 MOL1         0.1003
       5    H2      16.459249   13.239664   22.087076 H          1 MOL1         0.0783
       6    O2      15.891884   14.612164   23.531267 O.3        1 MOL1        -0.5519
       7    H3      15.856155   15.600045   23.606622 H          1 MOL1         0.3769
       8    C3      18.141159   14.500813   22.555206 C.3        1 MOL1         0.1053
       9    H4      18.298119   15.540695   22.864677 H          1 MOL1         0.0783
      10    O3      18.607083   13.616460   23.580402 O.3        1 MOL1        -0.5519
      11    H5      17.946253   13.694953   24.304084 H          1 MOL1         0.3769
      12    C4      18.932468   14.246323   21.248183 C.3        1 MOL1         0.1018
      13    H6      18.936024   13.164132   21.062994 H          1 MOL1         0.0783
      14    C5      18.311517   14.984180   20.026815 C.3        1 MOL1         0.1043
      15    H7      18.489583   16.061070   20.145974 H          1 MOL1         0.0783
      16    O4      16.883457   14.738038   19.974111 O.3        1 MOL1        -0.3740
      17    C6      18.912470   14.558020   18.665669 C.3        1 MOL1         0.0138
      18    H8      19.920563   14.981750   18.578243 H          1 MOL1         0.0794
      19    H9      18.307084   14.999477   17.862783 H          1 MOL1         0.0794
      20    O5      18.967056   13.132964   18.520006 O.3        1 MOL1        -0.5486
      21    H10     19.333563   12.939101   17.630000 H          1 MOL1         0.3769
      22    C7      14.774728   20.316586   21.550573 C.3        1 MOL1         0.2972
      23    H11     14.135565   21.207959   21.595640 H          1 MOL1         0.0751
      24    O6      16.159833   20.664514   21.373507 O.3        1 MOL1        -0.3740
      25    C8      14.643160   19.507941   22.862624 C.3        1 MOL1         0.1003
      26    H12     13.596620   19.188465   22.950522 H          1 MOL1         0.0783
      27    O7      14.984618   20.325426   23.993603 O.3        1 MOL1        -0.5519
      28    H13     15.513955   21.085216   23.647939 H          1 MOL1         0.3769
      29    C9      15.527831   18.240214   22.817537 C.3        1 MOL1         0.1053
      30    H14     16.577855   18.558006   22.825482 H          1 MOL1         0.0783
      31    O8      15.259296   17.438360   23.971439 O.3        1 MOL1        -0.5519
      32    H15     15.353289   18.055161   24.731187 H          1 MOL1         0.3769
      33    C10     15.275820   17.411883   21.531716 C.3        1 MOL1         0.1018
      34    H16     14.333581   16.863217   21.656699 H          1 MOL1         0.0783
      35    C11     15.215975   18.287867   20.245952 C.3        1 MOL1         0.1043
      36    H17     16.238701   18.608664   20.016744 H          1 MOL1         0.0783
      37    O9      14.389483   19.463092   20.453298 O.3        1 MOL1        -0.3740
      38    C12     14.689262   17.537143   18.998672 C.3        1 MOL1         0.0138
      39    H18     15.411184   16.756864   18.721875 H          1 MOL1         0.0794
      40    H19     14.646309   18.246953   18.161823 H          1 MOL1         0.0794
      41    O10     13.395447   16.957773   19.210888 O.3        1 MOL1        -0.5486
      42    H20     13.504267   16.160975   19.769308 H          1 MOL1         0.3769
      43    C13     18.604280   23.906011   20.438518 C.3        1 MOL1         0.2972
      44    H21     19.018769   24.846972   20.054505 H          1 MOL1         0.0751
      45    O11     19.643310   23.039376   20.941520 O.3        1 MOL1        -0.3740
      46    C14     17.554120   24.166564   21.555393 C.3        1 MOL1         0.1003
      47    H22     16.739625   24.744734   21.099876 H          1 MOL1         0.0783
      48    O12     18.099138   24.923209   22.646336 O.3        1 MOL1        -0.5519
      49    H23     18.821913   24.376577   23.046212 H          1 MOL1         0.3769
      50    C15     16.958419   22.830201   22.063201 C.3        1 MOL1         0.1053
      51    H24     17.759266   22.262627   22.556504 H          1 MOL1         0.0783
      52    O13     15.905460   23.092840   22.996349 O.3        1 MOL1        -0.5519
      53    H25     16.248301   23.808569   23.576979 H          1 MOL1         0.3769
      54    C16     16.418228   21.989690   20.879516 C.3        1 MOL1         0.1018
      55    H26     15.508759   22.469545   20.494549 H          1 MOL1         0.0783
      56    C17     17.451487   21.867818   19.726405 C.3        1 MOL1         0.1043
      57    H27     18.296707   21.265217   20.079934 H          1 MOL1         0.0783
      58    O14     17.926806   23.192643   19.377270 O.3        1 MOL1        -0.3740
      59    C18     16.911688   21.166300   18.452212 C.3        1 MOL1         0.0138
      60    H28     17.107086   20.090242   18.541938 H          1 MOL1         0.0794
      61    H29     17.486820   21.521290   17.586686 H          1 MOL1         0.0794
      62    O15     15.511102   21.378794   18.234252 O.3        1 MOL1        -0.5486
      63    H30     15.027180   20.846934   18.908106 H          1 MOL1         0.3769
      64    C19     23.553350   22.758279   22.170060 C.3        1 MOL1         0.2972
      65    H31     24.586803   22.895130   22.513831 H          1 MOL1         0.0751
      66    O16     23.313470   21.408263   21.726360 O.3        1 MOL1        -0.3740
      67    C20     22.559997   23.094598   23.309645 C.3        1 MOL1         0.1003
      68    H32     22.706967   24.151434   23.567967 H          1 MOL1         0.0783
      69    O17     22.802628   22.286291   24.472742 O.3        1 MOL1        -0.5519
      70    H33     23.585216   21.716380   24.273308 H          1 MOL1         0.3769
      71    C21     21.100195   22.914842   22.835049 C.3        1 MOL1         0.1053
      72    H34     20.933164   21.844617   22.668614 H          1 MOL1         0.0783
      73    O18     20.216834   23.379626   23.859819 O.3        1 MOL1        -0.5519
      74    H35     20.566681   22.978108   24.687114 H          1 MOL1         0.3769
      75    C22     20.819884   23.656961   21.502162 C.3        1 MOL1         0.1018
      76    H36     20.666237   24.722679   21.716972 H          1 MOL1         0.0783
      77    C23     21.958671   23.480964   20.454528 C.3        1 MOL1         0.1043
      78    H37     21.884037   22.465122   20.046453 H          1 MOL1         0.0783
      79    O19     23.263241   23.644223   21.069154 O.3        1 MOL1        -0.3740
      80    C24     21.853972   24.456548   19.258014 C.3        1 MOL1         0.0138
      81    H38     20.996510   24.158469   18.639661 H          1 MOL1         0.0794
      82    H39     22.754835   24.349308   18.638991 H          1 MOL1         0.0794
      83    O20     21.698561   25.817018   19.680474 O.3        1 MOL1        -0.5486
      84    H40     21.722119   26.383037   18.878058 H          1 MOL1         0.3769
      85    C25     25.172511   17.701188   21.511908 C.3        1 MOL1         0.2972
      86    H41     25.879026   16.872259   21.377026 H          1 MOL1         0.0751
      87    O21     23.838825   17.222154   21.774851 O.3        1 MOL1        -0.3740
      88    C26     25.604352   18.565917   22.722096 C.3        1 MOL1         0.1003
      89    H42     26.613522   18.944948   22.514460 H          1 MOL1         0.0783
      90    O22     25.631327   17.767108   23.915621 O.3        1 MOL1        -0.5519
      91    H43     24.923298   17.084735   23.815147 H          1 MOL1         0.3769
      92    C27     24.664744   19.782654   22.910626 C.3        1 MOL1         0.1053
      93    H44     23.686276   19.408238   23.234612 H          1 MOL1         0.0783
      94    O23     25.204779   20.641303   23.920092 O.3        1 MOL1        -0.5519
      95    H45     25.508298   20.034254   24.632839 H          1 MOL1         0.3769
      96    C28     24.469770   20.562294   21.583817 C.3        1 MOL1         0.1018
      97    H46     25.376219   21.142737   21.369073 H          1 MOL1         0.0783
      98    C29     24.169616   19.621694   20.386306 C.3        1 MOL1         0.1043
      99    H47     23.170480   19.197028   20.538035 H          1 MOL1         0.0783
     100    O24     25.138492   18.544557   20.340583 O.3        1 MOL1        -0.3740
     101    C30     24.148199   20.340361   19.013487 C.3        1 MOL1         0.0138
     102    H48     23.193566   20.873389   18.914701 H          1 MOL1         0.0794
     103    H49     24.177055   19.581939   18.219985 H          1 MOL1         0.0794
     104    O25     25.231393   21.262934   18.849416 O.3        1 MOL1        -0.5486
     105    H50     25.035512   22.046512   19.407940 H          1 MOL1         0.3769
     106    C31     21.351285   13.922249   21.020847 C.3        1 MOL1         0.2972
     107    H51     20.998003   12.933316   20.701897 H          1 MOL1         0.0751
     108    O26     20.263916   14.756973   21.469696 O.3        1 MOL1        -0.3740
     109    C32     22.344929   13.780837   22.203127 C.3        1 MOL1         0.1003
     110    H52     23.162150   13.127619   21.870748 H          1 MOL1         0.0783
     111    O27     21.693804   13.186575   23.338461 O.3        1 MOL1        -0.5519
     112    H53     20.769490   13.540547   23.362181 H          1 MOL1         0.3769
     113    C33     22.956744   15.151663   22.589078 C.3        1 MOL1         0.1053
     114    H54     22.156957   15.774526   23.012493 H          1 MOL1         0.0783
     115    O28     23.988457   14.960791   23.563359 O.3        1 MOL1        -0.5519
     116    H55     23.603454   14.345752   24.226573 H          1 MOL1         0.3769
     117    C34     23.530949   15.880591   21.348860 C.3        1 MOL1         0.1018
     118    H56     24.424605   15.341226   21.008216 H          1 MOL1         0.0783
     119    C35     22.483827   15.933326   20.201670 C.3        1 MOL1         0.1043
     120    H57     21.634454   16.540212   20.537154 H          1 MOL1         0.0783
     121    O29     22.029397   14.586810   19.933202 O.3        1 MOL1        -0.3740
     122    C36     22.983547   16.541704   18.866821 C.3        1 MOL1         0.0138
     123    H58     22.829275   17.626586   18.896962 H          1 MOL1         0.0794
     124    H59     22.355169   16.156940   18.052566 H          1 MOL1         0.0794
     125    O30     24.360343   16.258163   18.596455 O.3        1 MOL1        -0.5486
     126    H60     24.887674   16.934994   19.080617 H          1 MOL1         0.3769
     127    C1      20.494250   19.343617   21.232340 C.3        1 MOL1        -0.1693
     128    H1      20.761836   18.642649   20.433452 H          1 MOL1         0.0829
     129    H2      20.806959   20.349387   20.931965 H          1 MOL1         0.0829
     130    C2      20.895286   18.893122   22.677149 C.3        1 MOL1        -0.1768
     131    H3      20.920585   19.694577   23.425217 H          1 MOL1         0.0829
     132    H4      21.805016   18.298956   22.771004 H          1 MOL1         0.0829
     133    C3      19.575071   18.073982   22.656636 C.3        1 MOL1         0.1211
     134    H5      19.664484   17.108800   22.146730 H          1 MOL1         0.0786
     135    C4      19.026460   19.208762   21.746780 C.3        1 MOL1        -0.1768
     136    H6      18.649535   20.079218   22.296086 H          1 MOL1         0.0829
     137    H7      18.282513   18.901641   21.006929 H          1 MOL1         0.0829
     138    O1      18.935933   17.928528   23.902440 O.3        1 MOL1        -0.5515
     139    H8      19.489303   17.335468   24.448322 H          1 MOL1         0.3773
@<TRIPOS>BOND
    1     1     2    1
    2     1     3    1
    3     1     4    1
    4     4     5    1
    5     4     6    1
    6     6     7    1
    7     4     8    1
    8     8     9    1
    9     8    10    1
   10    10    11    1
   11     8    12    1
   12    12    13    1
   13    12    14    1
   14    14    15    1
   15     1    16    1
   16    14    16    1
   17    14    17    1
   18    17    18    1
   19    17    19    1
   20    17    20    1
   21    20    21    1
   22    22    23    1
   23    22    24    1
   24    22    25    1
   25    25    26    1
   26    25    27    1
   27    27    28    1
   28    25    29    1
   29    29    30    1
   30    29    31    1
   31    31    32    1
   32     3    33    1
   33    29    33    1
   34    33    34    1
   35    33    35    1
   36    35    36    1
   37    22    37    1
   38    35    37    1
   39    35    38    1
   40    38    39    1
   41    38    40    1
   42    38    41    1
   43    41    42    1
   44    43    44    1
   45    43    45    1
   46    43    46    1
   47    46    47    1
   48    46    48    1
   49    48    49    1
   50    46    50    1
   51    50    51    1
   52    50    52    1
   53    52    53    1
   54    24    54    1
   55    50    54    1
   56    54    55    1
   57    54    56    1
   58    56    57    1
   59    43    58    1
   60    56    58    1
   61    56    59    1
   62    59    60    1
   63    59    61    1
   64    59    62    1
   65    62    63    1
   66    64    65    1
   67    64    66    1
   68    64    67    1
   69    67    68    1
   70    67    69    1
   71    69    70    1
   72    67    71    1
   73    71    72    1
   74    71    73    1
   75    73    74    1
   76    45    75    1
   77    71    75    1
   78    75    76    1
   79    75    77    1
   80    77    78    1
   81    64    79    1
   82    77    79    1
   83    77    80    1
   84    80    81    1
   85    80    82    1
   86    80    83    1
   87    83    84    1
   88    85    86    1
   89    85    87    1
   90    85    88    1
   91    88    89    1
   92    88    90    1
   93    90    91    1
   94    88    92    1
   95    92    93    1
   96    92    94    1
   97    94    95    1
   98    66    96    1
   99    92    96    1
  100    96    97    1
  101    96    98    1
  102    98    99    1
  103    85   100    1
  104    98   100    1
  105    98   101    1
  106   101   102    1
  107   101   103    1
  108   101   104    1
  109   104   105    1
  110   106   107    1
  111    12   108    1
  112   106   108    1
  113   106   109    1
  114   109   110    1
  115   109   111    1
  116   111   112    1
  117   109   113    1
  118   113   114    1
  119   113   115    1
  120   115   116    1
  121    87   117    1
  122   113   117    1
  123   117   118    1
  124   117   119    1
  125   119   120    1
  126   106   121    1
  127   119   121    1
  128   119   122    1
  129   122   123    1
  130   122   124    1
  131   122   125    1
  132   125   126    1
  133   127   128    1
  134   127   129    1
  135   127   130    1
  136   130   131    1
  137   130   132    1
  138   130   133    1
  139   133   134    1
  140   127   135    1
  141   133   135    1
  142   135   136    1
  143   135   137    1
  144   133   138    1
  145   138   139    1
@<TRIPOS>SUBSTRUCTURE
       1 MOL1            1 RESIDUE      1      MOL     
       2 MOL1          139 RESIDUE      1      MOL     
@<SCITEGIC>MOL_PROPERTY
feprocess Rank
SciTegic.value.IntegerValue
62

@<SCITEGIC>MOL_PROPERTY
Conf_Id
SciTegic.value.IntegerValue
862

@<SCITEGIC>MOL_PROPERTY
Probability
SciTegic.value.DoubleValue
0.11

@<SCITEGIC>MOL_PROPERTY
G
SciTegic.value.DoubleValue
548.099

@<SCITEGIC>MOL_PROPERTY
E
SciTegic.value.DoubleValue
370.573

@<SCITEGIC>MOL_PROPERTY
-TS
SciTegic.value.DoubleValue
177.526

@<SCITEGIC>MOL_PROPERTY
U+W
SciTegic.value.DoubleValue
248.062

@<SCITEGIC>MOL_PROPERTY
U
SciTegic.value.DoubleValue
288.539

@<SCITEGIC>MOL_PROPERTY
W
SciTegic.value.DoubleValue
-40.478

@<SCITEGIC>MOL_PROPERTY
W(PB)
SciTegic.value.DoubleValue
-46.479

@<SCITEGIC>MOL_PROPERTY
W(SA)
SciTegic.value.DoubleValue
6.002

@<SCITEGIC>MOL_PROPERTY
Valence
SciTegic.value.DoubleValue
153.598

@<SCITEGIC>MOL_PROPERTY
Coulomb
SciTegic.value.DoubleValue
157.373

@<SCITEGIC>MOL_PROPERTY
VdW
SciTegic.value.DoubleValue
-22.432

@<SCITEGIC>MOL_PROPERTY
VdW6
SciTegic.value.DoubleValue
-167.887

@<SCITEGIC>MOL_PROPERTY
VdW12
SciTegic.value.DoubleValue
145.455

@<SCITEGIC>MOL_PROPERTY
Bond
SciTegic.value.DoubleValue
4.587

@<SCITEGIC>MOL_PROPERTY
Angle
SciTegic.value.DoubleValue
11.823

@<SCITEGIC>MOL_PROPERTY
Pdih
SciTegic.value.DoubleValue
137.188

@<SCITEGIC>MOL_PROPERTY
Idih
SciTegic.value.DoubleValue
0.000

@<SCITEGIC>MOL_PROPERTY
Tether
SciTegic.value.DoubleValue
0.000

@<TRIPOS>MOLECULE
CD_guest-s16_fast_vm2_rndm.mol2 : feprocess host+ligand conformer 63
         139         145           2
SMALL
USER_CHARGES
 
@<TRIPOS>ATOM
       1    C1      16.243415   15.297778   21.618345 C.3        1 MOL1         0.2972
       2    H1      15.169035   15.180660   21.808348 H          1 MOL1         0.0751
       3    O1      16.556757   16.611291   21.117670 O.3        1 MOL1        -0.3740
       4    C2      17.054766   15.059676   22.916749 C.3        1 MOL1         0.1003
       5    H2      16.848366   14.033057   23.246345 H          1 MOL1         0.0783
       6    O2      16.674455   15.979351   23.954198 O.3        1 MOL1        -0.5519
       7    H3      15.809872   16.374837   23.686263 H          1 MOL1         0.3769
       8    C3      18.570082   15.188612   22.645350 C.3        1 MOL1         0.1053
       9    H4      18.771178   16.239406   22.406324 H          1 MOL1         0.0783
      10    O3      19.282774   14.814585   23.828073 O.3        1 MOL1        -0.5519
      11    H5      18.790442   15.250539   24.559639 H          1 MOL1         0.3769
      12    C4      19.032584   14.332134   21.439258 C.3        1 MOL1         0.1018
      13    H6      19.114690   13.285170   21.759771 H          1 MOL1         0.0783
      14    C5      18.071198   14.445848   20.221046 C.3        1 MOL1         0.1043
      15    H7      18.221727   15.432428   19.763664 H          1 MOL1         0.0783
      16    O4      16.688382   14.329830   20.644349 O.3        1 MOL1        -0.3740
      17    C6      18.339336   13.389427   19.122452 C.3        1 MOL1         0.0138
      18    H8      19.285304   13.639181   18.623175 H          1 MOL1         0.0794
      19    H9      17.544368   13.459501   18.367938 H          1 MOL1         0.0794
      20    O5      18.406954   12.059998   19.653593 O.3        1 MOL1        -0.5486
      21    H10     18.496492   11.440767   18.896390 H          1 MOL1         0.3769
      22    C7      14.728242   20.338947   20.744011 C.3        1 MOL1         0.2972
      23    H11     14.075279   21.182444   20.485321 H          1 MOL1         0.0751
      24    O6      15.963893   20.778184   21.332079 O.3        1 MOL1        -0.3740
      25    C8      14.046372   19.401162   21.772404 C.3        1 MOL1         0.1003
      26    H12     13.118635   19.031477   21.316816 H          1 MOL1         0.0783
      27    O7      13.733203   20.117061   22.978748 O.3        1 MOL1        -0.5519
      28    H13     14.544894   20.626556   23.230538 H          1 MOL1         0.3769
      29    C9      14.944637   18.178799   22.097006 C.3        1 MOL1         0.1053
      30    H14     15.817058   18.544584   22.651347 H          1 MOL1         0.0783
      31    O8      14.204127   17.267377   22.917093 O.3        1 MOL1        -0.5519
      32    H15     13.728460   17.839059   23.561855 H          1 MOL1         0.3769
      33    C10     15.449076   17.478249   20.802685 C.3        1 MOL1         0.1018
      34    H16     14.620735   16.918514   20.350347 H          1 MOL1         0.0783
      35    C11     16.001963   18.496183   19.769741 C.3        1 MOL1         0.1043
      36    H17     16.934253   18.916870   20.170772 H          1 MOL1         0.0783
      37    O9      15.040073   19.559850   19.569116 O.3        1 MOL1        -0.3740
      38    C12     16.348636   17.868732   18.396462 C.3        1 MOL1         0.0138
      39    H18     17.285732   17.305593   18.499214 H          1 MOL1         0.0794
      40    H19     16.536412   18.679491   17.680232 H          1 MOL1         0.0794
      41    O10     15.318627   17.003338   17.902927 O.3        1 MOL1        -0.5486
      42    H20     15.328909   16.192519   18.455988 H          1 MOL1         0.3769
      43    C13     18.428639   24.014585   21.896162 C.3        1 MOL1         0.2972
      44    H21     18.883030   25.003328   22.042123 H          1 MOL1         0.0751
      45    O11     19.434481   22.989767   21.769896 O.3        1 MOL1        -0.3740
      46    C14     17.526918   23.674331   23.106956 C.3        1 MOL1         0.1003
      47    H22     16.741378   24.439227   23.161131 H          1 MOL1         0.0783
      48    O12     18.296370   23.694976   24.319526 O.3        1 MOL1        -0.5519
      49    H23     19.237270   23.562141   24.054877 H          1 MOL1         0.3769
      50    C15     16.844731   22.300153   22.919804 C.3        1 MOL1         0.1053
      51    H24     17.623516   21.528390   22.971318 H          1 MOL1         0.0783
      52    O13     15.889130   22.090124   23.966037 O.3        1 MOL1        -0.5519
      53    H25     16.373927   22.296023   24.795655 H          1 MOL1         0.3769
      54    C16     16.142415   22.187911   21.544658 C.3        1 MOL1         0.1018
      55    H26     15.186334   22.725700   21.591271 H          1 MOL1         0.0783
      56    C17     17.013184   22.718487   20.371112 C.3        1 MOL1         0.1043
      57    H27     17.805752   21.980773   20.200262 H          1 MOL1         0.0783
      58    O14     17.617287   23.995724   20.703720 O.3        1 MOL1        -0.3740
      59    C18     16.237847   22.879932   19.041441 C.3        1 MOL1         0.0138
      60    H28     16.007978   21.881754   18.645978 H          1 MOL1         0.0794
      61    H29     16.891839   23.374506   18.310723 H          1 MOL1         0.0794
      62    O15     15.026936   23.627039   19.211537 O.3        1 MOL1        -0.5486
      63    H30     14.623301   23.746073   18.324173 H          1 MOL1         0.3769
      64    C19     23.505759   22.598070   20.906050 C.3        1 MOL1         0.2972
      65    H31     24.528076   22.756090   20.538751 H          1 MOL1         0.0751
      66    O16     23.325919   21.268167   21.428196 O.3        1 MOL1        -0.3740
      67    C20     23.156208   23.604998   22.034062 C.3        1 MOL1         0.1003
      68    H32     23.256642   24.614403   21.614473 H          1 MOL1         0.0783
      69    O17     24.051974   23.467386   23.149033 O.3        1 MOL1        -0.5519
      70    H33     24.082544   22.506684   23.389806 H          1 MOL1         0.3769
      71    C21     21.688575   23.423755   22.496943 C.3        1 MOL1         0.1053
      72    H34     21.605654   22.446411   22.987936 H          1 MOL1         0.0783
      73    O18     21.343274   24.458625   23.423048 O.3        1 MOL1        -0.5519
      74    H35     22.107171   24.518098   24.039103 H          1 MOL1         0.3769
      75    C22     20.715667   23.441649   21.291594 C.3        1 MOL1         0.1018
      76    H36     20.667878   24.464881   20.895873 H          1 MOL1         0.0783
      77    C23     21.177260   22.484816   20.157861 C.3        1 MOL1         0.1043
      78    H37     21.103496   21.451622   20.520552 H          1 MOL1         0.0783
      79    O19     22.556794   22.782316   19.832434 O.3        1 MOL1        -0.3740
      80    C24     20.339499   22.568205   18.855050 C.3        1 MOL1         0.0138
      81    H38     19.518704   21.844089   18.921214 H          1 MOL1         0.0794
      82    H39     20.969884   22.249250   18.014275 H          1 MOL1         0.0794
      83    O20     19.811523   23.876468   18.601582 O.3        1 MOL1        -0.5486
      84    H40     19.111333   24.046972   19.274311 H          1 MOL1         0.3769
      85    C25     25.131521   17.617984   21.900628 C.3        1 MOL1         0.2972
      86    H41     25.795760   16.752923   22.023897 H          1 MOL1         0.0751
      87    O21     23.756189   17.216945   21.749187 O.3        1 MOL1        -0.3740
      88    C26     25.227716   18.532745   23.143884 C.3        1 MOL1         0.1003
      89    H42     26.263337   18.889363   23.217463 H          1 MOL1         0.0783
      90    O22     24.888987   17.796689   24.330404 O.3        1 MOL1        -0.5519
      91    H43     24.310581   17.046691   24.046576 H          1 MOL1         0.3769
      92    C27     24.304317   19.762476   22.988996 C.3        1 MOL1         0.1053
      93    H44     23.269204   19.407597   23.022797 H          1 MOL1         0.0783
      94    O23     24.528728   20.673972   24.069242 O.3        1 MOL1        -0.5519
      95    H45     24.533710   20.112619   24.876459 H          1 MOL1         0.3769
      96    C28     24.516587   20.485307   21.636223 C.3        1 MOL1         0.1018
      97    H46     25.416017   21.110676   21.713015 H          1 MOL1         0.0783
      98    C29     24.635316   19.510167   20.428295 C.3        1 MOL1         0.1043
      99    H47     23.629501   19.128571   20.212943 H          1 MOL1         0.0783
     100    O24     25.505360   18.391864   20.742747 O.3        1 MOL1        -0.3740
     101    C30     25.153383   20.182233   19.134268 C.3        1 MOL1         0.0138
     102    H48     24.367192   20.842665   18.744238 H          1 MOL1         0.0794
     103    H49     25.327423   19.403107   18.379924 H          1 MOL1         0.0794
     104    O25     26.352264   20.933867   19.359580 O.3        1 MOL1        -0.5486
     105    H50     26.665959   21.262919   18.488985 H          1 MOL1         0.3769
     106    C31     21.375444   13.943117   20.764402 C.3        1 MOL1         0.2972
     107    H51     20.991134   12.975193   20.417792 H          1 MOL1         0.0751
     108    O26     20.302444   14.874540   21.020016 O.3        1 MOL1        -0.3740
     109    C32     22.243373   13.779266   22.043662 C.3        1 MOL1         0.1003
     110    H52     23.097691   13.145115   21.773265 H          1 MOL1         0.0783
     111    O27     21.521073   13.146665   23.110213 O.3        1 MOL1        -0.5519
     112    H53     20.760778   13.739591   23.337573 H          1 MOL1         0.3769
     113    C33     22.797560   15.151476   22.498255 C.3        1 MOL1         0.1053
     114    H54     21.948146   15.778352   22.799375 H          1 MOL1         0.0783
     115    O28     23.688665   14.976919   23.605312 O.3        1 MOL1        -0.5519
     116    H55     23.235634   14.340949   24.202488 H          1 MOL1         0.3769
     117    C34     23.536823   15.856779   21.335009 C.3        1 MOL1         0.1018
     118    H56     24.478514   15.323486   21.150129 H          1 MOL1         0.0783
     119    C35     22.694562   15.874001   20.028327 C.3        1 MOL1         0.1043
     120    H57     21.831905   16.532981   20.182141 H          1 MOL1         0.0783
     121    O29     22.223802   14.530332   19.750620 O.3        1 MOL1        -0.3740
     122    C36     23.441912   16.408051   18.778017 C.3        1 MOL1         0.0138
     123    H58     23.281510   17.491303   18.713384 H          1 MOL1         0.0794
     124    H59     22.983013   15.967644   17.882779 H          1 MOL1         0.0794
     125    O30     24.848031   16.134709   18.793660 O.3        1 MOL1        -0.5486
     126    H60     25.259937   16.786291   19.407833 H          1 MOL1         0.3769
     127    C1      20.807283   18.185078   23.638418 C.3        1 MOL1        -0.1693
     128    H1      21.815338   17.936311   23.988519 H          1 MOL1         0.0829
     129    H2      20.113176   17.438615   24.040778 H          1 MOL1         0.0829
     130    C2      20.657334   18.474802   22.105767 C.3        1 MOL1        -0.1768
     131    H3      21.537970   18.920805   21.631443 H          1 MOL1         0.0829
     132    H4      20.313963   17.642040   21.485230 H          1 MOL1         0.0829
     133    C3      19.565243   19.508653   22.506098 C.3        1 MOL1         0.1211
     134    H5      19.526918   20.405684   21.878546 H          1 MOL1         0.0786
     135    C4      20.354925   19.668388   23.841170 C.3        1 MOL1        -0.1768
     136    H6      21.171524   20.396908   23.799398 H          1 MOL1         0.0829
     137    H7      19.749960   19.873172   24.731219 H          1 MOL1         0.0829
     138    O1      18.272953   18.968332   22.643456 O.3        1 MOL1        -0.5515
     139    H8      18.344900   18.194993   23.235072 H          1 MOL1         0.3773
@<TRIPOS>BOND
    1     1     2    1
    2     1     3    1
    3     1     4    1
    4     4     5    1
    5     4     6    1
    6     6     7    1
    7     4     8    1
    8     8     9    1
    9     8    10    1
   10    10    11    1
   11     8    12    1
   12    12    13    1
   13    12    14    1
   14    14    15    1
   15     1    16    1
   16    14    16    1
   17    14    17    1
   18    17    18    1
   19    17    19    1
   20    17    20    1
   21    20    21    1
   22    22    23    1
   23    22    24    1
   24    22    25    1
   25    25    26    1
   26    25    27    1
   27    27    28    1
   28    25    29    1
   29    29    30    1
   30    29    31    1
   31    31    32    1
   32     3    33    1
   33    29    33    1
   34    33    34    1
   35    33    35    1
   36    35    36    1
   37    22    37    1
   38    35    37    1
   39    35    38    1
   40    38    39    1
   41    38    40    1
   42    38    41    1
   43    41    42    1
   44    43    44    1
   45    43    45    1
   46    43    46    1
   47    46    47    1
   48    46    48    1
   49    48    49    1
   50    46    50    1
   51    50    51    1
   52    50    52    1
   53    52    53    1
   54    24    54    1
   55    50    54    1
   56    54    55    1
   57    54    56    1
   58    56    57    1
   59    43    58    1
   60    56    58    1
   61    56    59    1
   62    59    60    1
   63    59    61    1
   64    59    62    1
   65    62    63    1
   66    64    65    1
   67    64    66    1
   68    64    67    1
   69    67    68    1
   70    67    69    1
   71    69    70    1
   72    67    71    1
   73    71    72    1
   74    71    73    1
   75    73    74    1
   76    45    75    1
   77    71    75    1
   78    75    76    1
   79    75    77    1
   80    77    78    1
   81    64    79    1
   82    77    79    1
   83    77    80    1
   84    80    81    1
   85    80    82    1
   86    80    83    1
   87    83    84    1
   88    85    86    1
   89    85    87    1
   90    85    88    1
   91    88    89    1
   92    88    90    1
   93    90    91    1
   94    88    92    1
   95    92    93    1
   96    92    94    1
   97    94    95    1
   98    66    96    1
   99    92    96    1
  100    96    97    1
  101    96    98    1
  102    98    99    1
  103    85   100    1
  104    98   100    1
  105    98   101    1
  106   101   102    1
  107   101   103    1
  108   101   104    1
  109   104   105    1
  110   106   107    1
  111    12   108    1
  112   106   108    1
  113   106   109    1
  114   109   110    1
  115   109   111    1
  116   111   112    1
  117   109   113    1
  118   113   114    1
  119   113   115    1
  120   115   116    1
  121    87   117    1
  122   113   117    1
  123   117   118    1
  124   117   119    1
  125   119   120    1
  126   106   121    1
  127   119   121    1
  128   119   122    1
  129   122   123    1
  130   122   124    1
  131   122   125    1
  132   125   126    1
  133   127   128    1
  134   127   129    1
  135   127   130    1
  136   130   131    1
  137   130   132    1
  138   130   133    1
  139   133   134    1
  140   127   135    1
  141   133   135    1
  142   135   136    1
  143   135   137    1
  144   133   138    1
  145   138   139    1
@<TRIPOS>SUBSTRUCTURE
       1 MOL1            1 RESIDUE      1      MOL     
       2 MOL1          139 RESIDUE      1      MOL     
@<SCITEGIC>MOL_PROPERTY
feprocess Rank
SciTegic.value.IntegerValue
63

@<SCITEGIC>MOL_PROPERTY
Conf_Id
SciTegic.value.IntegerValue
885

@<SCITEGIC>MOL_PROPERTY
Probability
SciTegic.value.DoubleValue
0.11

@<SCITEGIC>MOL_PROPERTY
G
SciTegic.value.DoubleValue
548.129

@<SCITEGIC>MOL_PROPERTY
E
SciTegic.value.DoubleValue
370.481

@<SCITEGIC>MOL_PROPERTY
-TS
SciTegic.value.DoubleValue
177.648

@<SCITEGIC>MOL_PROPERTY
U+W
SciTegic.value.DoubleValue
247.969

@<SCITEGIC>MOL_PROPERTY
U
SciTegic.value.DoubleValue
284.069

@<SCITEGIC>MOL_PROPERTY
W
SciTegic.value.DoubleValue
-36.100

@<SCITEGIC>MOL_PROPERTY
W(PB)
SciTegic.value.DoubleValue
-42.091

@<SCITEGIC>MOL_PROPERTY
W(SA)
SciTegic.value.DoubleValue
5.991

@<SCITEGIC>MOL_PROPERTY
Valence
SciTegic.value.DoubleValue
152.609

@<SCITEGIC>MOL_PROPERTY
Coulomb
SciTegic.value.DoubleValue
152.809

@<SCITEGIC>MOL_PROPERTY
VdW
SciTegic.value.DoubleValue
-21.349

@<SCITEGIC>MOL_PROPERTY
VdW6
SciTegic.value.DoubleValue
-168.150

@<SCITEGIC>MOL_PROPERTY
VdW12
SciTegic.value.DoubleValue
146.801

@<SCITEGIC>MOL_PROPERTY
Bond
SciTegic.value.DoubleValue
4.557

@<SCITEGIC>MOL_PROPERTY
Angle
SciTegic.value.DoubleValue
11.860

@<SCITEGIC>MOL_PROPERTY
Pdih
SciTegic.value.DoubleValue
136.192

@<SCITEGIC>MOL_PROPERTY
Idih
SciTegic.value.DoubleValue
0.000

@<SCITEGIC>MOL_PROPERTY
Tether
SciTegic.value.DoubleValue
0.000

@<TRIPOS>MOLECULE
CD_guest-s16_fast_vm2_rndm.mol2 : feprocess host+ligand conformer 64
         139         145           2
SMALL
USER_CHARGES
 
@<TRIPOS>ATOM
       1    C1      16.168473   15.088658   21.539932 C.3        1 MOL1         0.2972
       2    H1      15.081132   14.972547   21.634986 H          1 MOL1         0.0751
       3    O1      16.565522   16.473139   21.593629 O.3        1 MOL1        -0.3740
       4    C2      16.879505   14.333531   22.687397 C.3        1 MOL1         0.1003
       5    H2      16.637417   13.267744   22.583982 H          1 MOL1         0.0783
       6    O2      16.419460   14.804098   23.964386 O.3        1 MOL1        -0.5519
       7    H3      16.056302   15.713981   23.823103 H          1 MOL1         0.3769
       8    C3      18.412461   14.490462   22.573919 C.3        1 MOL1         0.1053
       9    H4      18.655493   15.540359   22.775365 H          1 MOL1         0.0783
      10    O3      19.048622   13.661754   23.551262 O.3        1 MOL1        -0.5519
      11    H5      18.547498   13.823638   24.382066 H          1 MOL1         0.3769
      12    C4      18.927557   14.132116   21.155899 C.3        1 MOL1         0.1018
      13    H6      18.983258   13.038948   21.068438 H          1 MOL1         0.0783
      14    C5      18.049161   14.722898   20.015051 C.3        1 MOL1         0.1043
      15    H7      18.264311   15.797288   19.958934 H          1 MOL1         0.0783
      16    O4      16.635735   14.540100   20.290743 O.3        1 MOL1        -0.3740
      17    C6      18.360193   14.123908   18.622840 C.3        1 MOL1         0.0138
      18    H8      19.348739   14.480256   18.302854 H          1 MOL1         0.0794
      19    H9      17.625838   14.509354   17.902724 H          1 MOL1         0.0794
      20    O5      18.341402   12.691158   18.636184 O.3        1 MOL1        -0.5486
      21    H10     18.474105   12.382734   17.713229 H          1 MOL1         0.3769
      22    C7      14.808283   20.281628   21.311599 C.3        1 MOL1         0.2972
      23    H11     14.070903   21.072200   21.122795 H          1 MOL1         0.0751
      24    O6      16.078638   20.832276   21.705456 O.3        1 MOL1        -0.3740
      25    C8      14.316936   19.378467   22.472453 C.3        1 MOL1         0.1003
      26    H12     13.332677   18.982863   22.189930 H          1 MOL1         0.0783
      27    O7      14.191374   20.147287   23.679555 O.3        1 MOL1        -0.5519
      28    H13     14.881606   20.853552   23.636419 H          1 MOL1         0.3769
      29    C9      15.268961   18.177625   22.693883 C.3        1 MOL1         0.1053
      30    H14     16.230022   18.560702   23.064549 H          1 MOL1         0.0783
      31    O8      14.696650   17.283889   23.654502 O.3        1 MOL1        -0.5519
      32    H15     14.379921   17.863093   24.383431 H          1 MOL1         0.3769
      33    C10     15.523656   17.437031   21.360355 C.3        1 MOL1         0.1018
      34    H16     14.589564   16.960873   21.033728 H          1 MOL1         0.0783
      35    C11     15.998598   18.421554   20.259064 C.3        1 MOL1         0.1043
      36    H17     16.957645   18.857089   20.571267 H          1 MOL1         0.0783
      37    O9      15.006929   19.472388   20.129864 O.3        1 MOL1        -0.3740
      38    C12     16.222884   17.775451   18.867083 C.3        1 MOL1         0.0138
      39    H18     17.258334   17.416689   18.814662 H          1 MOL1         0.0794
      40    H19     16.118428   18.552661   18.098575 H          1 MOL1         0.0794
      41    O10     15.324724   16.693079   18.593674 O.3        1 MOL1        -0.5486
      42    H20     15.626028   15.923254   19.130491 H          1 MOL1         0.3769
      43    C13     18.453344   24.236569   21.190940 C.3        1 MOL1         0.2972
      44    H21     18.808267   25.246521   20.949259 H          1 MOL1         0.0751
      45    O11     19.526756   23.405630   21.675612 O.3        1 MOL1        -0.3740
      46    C14     17.385698   24.313482   22.310326 C.3        1 MOL1         0.1003
      47    H22     16.569329   24.952644   21.949612 H          1 MOL1         0.0783
      48    O12     17.956815   24.889041   23.495874 O.3        1 MOL1        -0.5519
      49    H23     18.891974   24.574520   23.534088 H          1 MOL1         0.3769
      50    C15     16.800981   22.914416   22.619929 C.3        1 MOL1         0.1053
      51    H24     17.593853   22.309653   23.079397 H          1 MOL1         0.0783
      52    O13     15.704119   23.043105   23.531296 O.3        1 MOL1        -0.5519
      53    H25     16.026900   23.644925   24.238238 H          1 MOL1         0.3769
      54    C16     16.332086   22.200308   21.328638 C.3        1 MOL1         0.1018
      55    H26     15.425705   22.703314   20.966944 H          1 MOL1         0.0783
      56    C17     17.426085   22.238291   20.222955 C.3        1 MOL1         0.1043
      57    H27     18.277094   21.635333   20.562419 H          1 MOL1         0.0783
      58    O14     17.859099   23.609768   20.033831 O.3        1 MOL1        -0.3740
      59    C18     16.998253   21.673053   18.844657 C.3        1 MOL1         0.0138
      60    H28     17.197054   20.594285   18.837793 H          1 MOL1         0.0794
      61    H29     17.636897   22.116240   18.069607 H          1 MOL1         0.0794
      62    O15     15.621889   21.914495   18.534496 O.3        1 MOL1        -0.5486
      63    H30     15.113669   21.171174   18.933154 H          1 MOL1         0.3769
      64    C19     23.613929   22.698512   21.143816 C.3        1 MOL1         0.2972
      65    H31     24.674784   22.777563   20.873437 H          1 MOL1         0.0751
      66    O16     23.287044   21.390276   21.647124 O.3        1 MOL1        -0.3740
      67    C20     23.243194   23.734549   22.235108 C.3        1 MOL1         0.1003
      68    H32     23.480859   24.729988   21.838115 H          1 MOL1         0.0783
      69    O17     24.002531   23.506060   23.434124 O.3        1 MOL1        -0.5519
      70    H33     23.921812   22.543534   23.654183 H          1 MOL1         0.3769
      71    C21     21.726697   23.691896   22.548297 C.3        1 MOL1         0.1053
      72    H34     21.516644   22.739061   23.051578 H          1 MOL1         0.0783
      73    O18     21.389252   24.778850   23.417252 O.3        1 MOL1        -0.5519
      74    H35     22.073785   24.767597   24.122372 H          1 MOL1         0.3769
      75    C22     20.863189   23.758184   21.261251 C.3        1 MOL1         0.1018
      76    H36     20.913668   24.781176   20.865998 H          1 MOL1         0.0783
      77    C23     21.363876   22.752229   20.182477 C.3        1 MOL1         0.1043
      78    H37     21.179710   21.735784   20.549695 H          1 MOL1         0.0783
      79    O19     22.785747   22.946489   19.990008 O.3        1 MOL1        -0.3740
      80    C24     20.691244   22.850109   18.791072 C.3        1 MOL1         0.0138
      81    H38     19.817829   22.188370   18.782425 H          1 MOL1         0.0794
      82    H39     21.387965   22.454996   18.039868 H          1 MOL1         0.0794
      83    O20     20.299663   24.181776   18.441146 O.3        1 MOL1        -0.5486
      84    H40     19.399165   24.311976   18.817401 H          1 MOL1         0.3769
      85    C25     24.861696   17.605791   22.096212 C.3        1 MOL1         0.2972
      86    H41     25.498697   16.723754   22.243891 H          1 MOL1         0.0751
      87    O21     23.502606   17.226463   21.801465 O.3        1 MOL1        -0.3740
      88    C26     24.864687   18.468746   23.381012 C.3        1 MOL1         0.1003
      89    H42     25.899662   18.782950   23.568924 H          1 MOL1         0.0783
      90    O22     24.388483   17.700796   24.497038 O.3        1 MOL1        -0.5519
      91    H43     23.878564   16.946449   24.118983 H          1 MOL1         0.3769
      92    C27     24.003484   19.737267   23.192981 C.3        1 MOL1         0.1053
      93    H44     22.957586   19.421464   23.099091 H          1 MOL1         0.0783
      94    O23     24.148407   20.594354   24.330755 O.3        1 MOL1        -0.5519
      95    H45     24.050431   20.001567   25.108937 H          1 MOL1         0.3769
      96    C28     24.391876   20.506602   21.908923 C.3        1 MOL1         0.1018
      97    H46     25.324303   21.055135   22.098410 H          1 MOL1         0.0783
      98    C29     24.550344   19.576808   20.671832 C.3        1 MOL1         0.1043
      99    H47     23.545405   19.253461   20.377494 H          1 MOL1         0.0783
     100    O24     25.347299   18.409563   21.001091 O.3        1 MOL1        -0.3740
     101    C30     25.189702   20.267504   19.443148 C.3        1 MOL1         0.0138
     102    H48     24.463022   20.973519   19.019460 H          1 MOL1         0.0794
     103    H49     25.387017   19.507300   18.675375 H          1 MOL1         0.0794
     104    O25     26.398779   20.957319   19.782575 O.3        1 MOL1        -0.5486
     105    H50     26.791484   21.298288   18.949455 H          1 MOL1         0.3769
     106    C31     21.290812   13.963085   20.487135 C.3        1 MOL1         0.2972
     107    H51     20.921096   13.041302   20.019582 H          1 MOL1         0.0751
     108    O26     20.219659   14.754805   21.036409 O.3        1 MOL1        -0.3740
     109    C32     22.290820   13.653651   21.631636 C.3        1 MOL1         0.1003
     110    H52     23.148578   13.133761   21.185424 H          1 MOL1         0.0783
     111    O27     21.699831   12.808807   22.631268 O.3        1 MOL1        -0.5519
     112    H53     20.837402   13.218652   22.896149 H          1 MOL1         0.3769
     113    C33     22.806698   14.969375   22.266752 C.3        1 MOL1         0.1053
     114    H54     21.963624   15.459284   22.771518 H          1 MOL1         0.0783
     115    O28     23.829623   14.674609   23.222951 O.3        1 MOL1        -0.5519
     116    H55     23.485721   13.912872   23.740853 H          1 MOL1         0.3769
     117    C34     23.355797   15.933509   21.183427 C.3        1 MOL1         0.1018
     118    H56     24.316262   15.537935   20.827510 H          1 MOL1         0.0783
     119    C35     22.396009   16.086970   19.968806 C.3        1 MOL1         0.1043
     120    H57     21.510198   16.645299   20.292223 H          1 MOL1         0.0783
     121    O29     21.987568   14.773314   19.514119 O.3        1 MOL1        -0.3740
     122    C36     22.992378   16.862413   18.764308 C.3        1 MOL1         0.0138
     123    H58     22.751220   17.925870   18.879987 H          1 MOL1         0.0794
     124    H59     22.488093   16.525854   17.848598 H          1 MOL1         0.0794
     125    O30     24.410230   16.702666   18.628201 O.3        1 MOL1        -0.5486
     126    H60     24.834605   17.179514   19.379204 H          1 MOL1         0.3769
     127    C1      19.915796   18.872695   23.555945 C.3        1 MOL1        -0.1693
     128    H1      20.920080   18.916685   23.994603 H          1 MOL1         0.0829
     129    H2      19.196763   18.640963   24.350373 H          1 MOL1         0.0829
     130    C2      19.801555   18.009968   22.259523 C.3        1 MOL1        -0.1768
     131    H3      18.784103   17.692878   22.012055 H          1 MOL1         0.0829
     132    H4      20.466451   17.144978   22.211891 H          1 MOL1         0.0829
     133    C3      20.270406   19.283367   21.498681 C.3        1 MOL1         0.1211
     134    H5      21.359065   19.419163   21.486736 H          1 MOL1         0.0786
     135    C4      19.547451   20.074285   22.629596 C.3        1 MOL1        -0.1768
     136    H6      18.472532   20.203830   22.473306 H          1 MOL1         0.0829
     137    H7      19.986137   21.039039   22.897467 H          1 MOL1         0.0829
     138    O1      19.730571   19.444879   20.205061 O.3        1 MOL1        -0.5515
     139    H8      20.100482   18.735672   19.646003 H          1 MOL1         0.3773
@<TRIPOS>BOND
    1     1     2    1
    2     1     3    1
    3     1     4    1
    4     4     5    1
    5     4     6    1
    6     6     7    1
    7     4     8    1
    8     8     9    1
    9     8    10    1
   10    10    11    1
   11     8    12    1
   12    12    13    1
   13    12    14    1
   14    14    15    1
   15     1    16    1
   16    14    16    1
   17    14    17    1
   18    17    18    1
   19    17    19    1
   20    17    20    1
   21    20    21    1
   22    22    23    1
   23    22    24    1
   24    22    25    1
   25    25    26    1
   26    25    27    1
   27    27    28    1
   28    25    29    1
   29    29    30    1
   30    29    31    1
   31    31    32    1
   32     3    33    1
   33    29    33    1
   34    33    34    1
   35    33    35    1
   36    35    36    1
   37    22    37    1
   38    35    37    1
   39    35    38    1
   40    38    39    1
   41    38    40    1
   42    38    41    1
   43    41    42    1
   44    43    44    1
   45    43    45    1
   46    43    46    1
   47    46    47    1
   48    46    48    1
   49    48    49    1
   50    46    50    1
   51    50    51    1
   52    50    52    1
   53    52    53    1
   54    24    54    1
   55    50    54    1
   56    54    55    1
   57    54    56    1
   58    56    57    1
   59    43    58    1
   60    56    58    1
   61    56    59    1
   62    59    60    1
   63    59    61    1
   64    59    62    1
   65    62    63    1
   66    64    65    1
   67    64    66    1
   68    64    67    1
   69    67    68    1
   70    67    69    1
   71    69    70    1
   72    67    71    1
   73    71    72    1
   74    71    73    1
   75    73    74    1
   76    45    75    1
   77    71    75    1
   78    75    76    1
   79    75    77    1
   80    77    78    1
   81    64    79    1
   82    77    79    1
   83    77    80    1
   84    80    81    1
   85    80    82    1
   86    80    83    1
   87    83    84    1
   88    85    86    1
   89    85    87    1
   90    85    88    1
   91    88    89    1
   92    88    90    1
   93    90    91    1
   94    88    92    1
   95    92    93    1
   96    92    94    1
   97    94    95    1
   98    66    96    1
   99    92    96    1
  100    96    97    1
  101    96    98    1
  102    98    99    1
  103    85   100    1
  104    98   100    1
  105    98   101    1
  106   101   102    1
  107   101   103    1
  108   101   104    1
  109   104   105    1
  110   106   107    1
  111    12   108    1
  112   106   108    1
  113   106   109    1
  114   109   110    1
  115   109   111    1
  116   111   112    1
  117   109   113    1
  118   113   114    1
  119   113   115    1
  120   115   116    1
  121    87   117    1
  122   113   117    1
  123   117   118    1
  124   117   119    1
  125   119   120    1
  126   106   121    1
  127   119   121    1
  128   119   122    1
  129   122   123    1
  130   122   124    1
  131   122   125    1
  132   125   126    1
  133   127   128    1
  134   127   129    1
  135   127   130    1
  136   130   131    1
  137   130   132    1
  138   130   133    1
  139   133   134    1
  140   127   135    1
  141   133   135    1
  142   135   136    1
  143   135   137    1
  144   133   138    1
  145   138   139    1
@<TRIPOS>SUBSTRUCTURE
       1 MOL1            1 RESIDUE      1      MOL     
       2 MOL1          139 RESIDUE      1      MOL     
@<SCITEGIC>MOL_PROPERTY
feprocess Rank
SciTegic.value.IntegerValue
64

@<SCITEGIC>MOL_PROPERTY
Conf_Id
SciTegic.value.IntegerValue
467

@<SCITEGIC>MOL_PROPERTY
Probability
SciTegic.value.DoubleValue
0.10

@<SCITEGIC>MOL_PROPERTY
G
SciTegic.value.DoubleValue
548.156

@<SCITEGIC>MOL_PROPERTY
E
SciTegic.value.DoubleValue
370.684

@<SCITEGIC>MOL_PROPERTY
-TS
SciTegic.value.DoubleValue
177.472

@<SCITEGIC>MOL_PROPERTY
U+W
SciTegic.value.DoubleValue
248.173

@<SCITEGIC>MOL_PROPERTY
U
SciTegic.value.DoubleValue
285.072

@<SCITEGIC>MOL_PROPERTY
W
SciTegic.value.DoubleValue
-36.899

@<SCITEGIC>MOL_PROPERTY
W(PB)
SciTegic.value.DoubleValue
-42.824

@<SCITEGIC>MOL_PROPERTY
W(SA)
SciTegic.value.DoubleValue
5.925

@<SCITEGIC>MOL_PROPERTY
Valence
SciTegic.value.DoubleValue
154.488

@<SCITEGIC>MOL_PROPERTY
Coulomb
SciTegic.value.DoubleValue
153.978

@<SCITEGIC>MOL_PROPERTY
VdW
SciTegic.value.DoubleValue
-23.395

@<SCITEGIC>MOL_PROPERTY
VdW6
SciTegic.value.DoubleValue
-169.910

@<SCITEGIC>MOL_PROPERTY
VdW12
SciTegic.value.DoubleValue
146.515

@<SCITEGIC>MOL_PROPERTY
Bond
SciTegic.value.DoubleValue
4.468

@<SCITEGIC>MOL_PROPERTY
Angle
SciTegic.value.DoubleValue
11.657

@<SCITEGIC>MOL_PROPERTY
Pdih
SciTegic.value.DoubleValue
138.364

@<SCITEGIC>MOL_PROPERTY
Idih
SciTegic.value.DoubleValue
0.000

@<SCITEGIC>MOL_PROPERTY
Tether
SciTegic.value.DoubleValue
0.000

@<TRIPOS>MOLECULE
CD_guest-s16_fast_vm2_rndm.mol2 : feprocess host+ligand conformer 65
         139         145           2
SMALL
USER_CHARGES
 
@<TRIPOS>ATOM
       1    C1      16.179948   15.161345   21.965143 C.3        1 MOL1         0.2972
       2    H1      15.132392   14.994383   22.247670 H          1 MOL1         0.0751
       3    O1      16.449272   16.552076   21.713294 O.3        1 MOL1        -0.3740
       4    C2      17.117405   14.694656   23.103249 C.3        1 MOL1         0.1003
       5    H2      16.961812   13.616640   23.240634 H          1 MOL1         0.0783
       6    O2      16.806602   15.380882   24.327186 O.3        1 MOL1        -0.5519
       7    H3      16.239895   16.154841   24.088030 H          1 MOL1         0.3769
       8    C3      18.597737   14.922658   22.718868 C.3        1 MOL1         0.1053
       9    H4      18.770282   16.004294   22.667646 H          1 MOL1         0.0783
      10    O3      19.436833   14.355353   23.728920 O.3        1 MOL1        -0.5519
      11    H5      19.041233   14.654214   24.578589 H          1 MOL1         0.3769
      12    C4      18.935776   14.316149   21.332128 C.3        1 MOL1         0.1018
      13    H6      19.056280   13.230062   21.440686 H          1 MOL1         0.0783
      14    C5      17.856490   14.634347   20.255256 C.3        1 MOL1         0.1043
      15    H7      17.965354   15.690859   19.980946 H          1 MOL1         0.0783
      16    O4      16.516991   14.420632   20.773795 O.3        1 MOL1        -0.3740
      17    C6      18.015991   13.809898   18.955765 C.3        1 MOL1         0.0138
      18    H8      18.909085   14.165691   18.424408 H          1 MOL1         0.0794
      19    H9      17.151383   14.006104   18.307415 H          1 MOL1         0.0794
      20    O5      18.133970   12.406307   19.218525 O.3        1 MOL1        -0.5486
      21    H10     18.147113   11.940969   18.353679 H          1 MOL1         0.3769
      22    C7      14.640700   20.240394   21.221163 C.3        1 MOL1         0.2972
      23    H11     13.953829   21.074136   21.027065 H          1 MOL1         0.0751
      24    O6      15.982587   20.706834   21.477343 O.3        1 MOL1        -0.3740
      25    C8      14.174272   19.457880   22.474095 C.3        1 MOL1         0.1003
      26    H12     13.167935   19.068595   22.271997 H          1 MOL1         0.0783
      27    O7      14.131393   20.331095   23.613650 O.3        1 MOL1        -0.5519
      28    H13     14.844805   21.001725   23.481179 H          1 MOL1         0.3769
      29    C9      15.111451   18.257932   22.749289 C.3        1 MOL1         0.1053
      30    H14     16.086357   18.663584   23.043105 H          1 MOL1         0.0783
      31    O8      14.586456   17.459993   23.814669 O.3        1 MOL1        -0.5519
      32    H15     14.303206   18.105179   24.500845 H          1 MOL1         0.3769
      33    C10     15.305405   17.391037   21.480111 C.3        1 MOL1         0.1018
      34    H16     14.391081   16.810320   21.300773 H          1 MOL1         0.0783
      35    C11     15.629497   18.243782   20.224884 C.3        1 MOL1         0.1043
      36    H17     16.626779   18.670548   20.368796 H          1 MOL1         0.0783
      37    O9      14.672356   19.325669   20.102301 O.3        1 MOL1        -0.3740
      38    C12     15.675087   17.444854   18.895412 C.3        1 MOL1         0.0138
      39    H18     16.703742   17.097581   18.735912 H          1 MOL1         0.0794
      40    H19     15.438631   18.126124   18.067117 H          1 MOL1         0.0794
      41    O10     14.786628   16.321157   18.876332 O.3        1 MOL1        -0.5486
      42    H20     15.174228   15.634173   19.466255 H          1 MOL1         0.3769
      43    C13     18.595464   23.856416   20.601997 C.3        1 MOL1         0.2972
      44    H21     19.034126   24.787740   20.221324 H          1 MOL1         0.0751
      45    O11     19.598729   22.995425   21.178617 O.3        1 MOL1        -0.3740
      46    C14     17.508948   24.150004   21.671634 C.3        1 MOL1         0.1003
      47    H22     16.738130   24.764870   21.189101 H          1 MOL1         0.0783
      48    O12     18.049336   24.873918   22.787850 O.3        1 MOL1        -0.5519
      49    H23     18.824837   24.358250   23.127278 H          1 MOL1         0.3769
      50    C15     16.837542   22.838000   22.148850 C.3        1 MOL1         0.1053
      51    H24     17.589648   22.246183   22.688783 H          1 MOL1         0.0783
      52    O13     15.744526   23.146012   23.021195 O.3        1 MOL1        -0.5519
      53    H25     16.091813   23.829487   23.636487 H          1 MOL1         0.3769
      54    C16     16.330453   22.001075   20.947577 C.3        1 MOL1         0.1018
      55    H26     15.463540   22.513386   20.510072 H          1 MOL1         0.0783
      56    C17     17.434302   21.830164   19.864473 C.3        1 MOL1         0.1043
      57    H27     18.238646   21.216542   20.287808 H          1 MOL1         0.0783
      58    O14     17.962693   23.134800   19.523417 O.3        1 MOL1        -0.3740
      59    C18     16.978312   21.143959   18.550943 C.3        1 MOL1         0.0138
      60    H28     17.109826   20.060979   18.655904 H          1 MOL1         0.0794
      61    H29     17.648176   21.463598   17.741513 H          1 MOL1         0.0794
      62    O15     15.619757   21.431783   18.202543 O.3        1 MOL1        -0.5486
      63    H30     15.056119   20.823051   18.733803 H          1 MOL1         0.3769
      64    C19     23.641073   22.812173   22.073586 C.3        1 MOL1         0.2972
      65    H31     24.695727   23.014625   22.297818 H          1 MOL1         0.0751
      66    O16     23.394225   21.405826   21.871216 O.3        1 MOL1        -0.3740
      67    C20     22.740265   23.321223   23.227906 C.3        1 MOL1         0.1003
      68    H32     22.876388   24.408685   23.291235 H          1 MOL1         0.0783
      69    O17     23.113632   22.734753   24.483329 O.3        1 MOL1        -0.5519
      70    H33     23.365165   21.793486   24.305377 H          1 MOL1         0.3769
      71    C21     21.248720   23.052857   22.920962 C.3        1 MOL1         0.1053
      72    H34     21.090112   21.967978   22.916336 H          1 MOL1         0.0783
      73    O18     20.442366   23.654507   23.939120 O.3        1 MOL1        -0.5519
      74    H35     20.845579   23.353665   24.784143 H          1 MOL1         0.3769
      75    C22     20.852633   23.613935   21.532370 C.3        1 MOL1         0.1018
      76    H36     20.760395   24.704991   21.616969 H          1 MOL1         0.0783
      77    C23     21.882772   23.252594   20.421407 C.3        1 MOL1         0.1043
      78    H37     21.778622   22.183496   20.195516 H          1 MOL1         0.0783
      79    O19     23.237380   23.508758   20.876204 O.3        1 MOL1        -0.3740
      80    C24     21.660799   24.022082   19.097132 C.3        1 MOL1         0.0138
      81    H38     20.750887   23.636182   18.617822 H          1 MOL1         0.0794
      82    H39     22.500409   23.807139   18.422623 H          1 MOL1         0.0794
      83    O20     21.538518   25.434795   19.305786 O.3        1 MOL1        -0.5486
      84    H40     21.483567   25.862574   18.423406 H          1 MOL1         0.3769
      85    C25     25.047707   17.633274   21.613167 C.3        1 MOL1         0.2972
      86    H41     25.691739   16.746638   21.549585 H          1 MOL1         0.0751
      87    O21     23.656672   17.294936   21.451659 O.3        1 MOL1        -0.3740
      88    C26     25.221685   18.311268   22.991942 C.3        1 MOL1         0.1003
      89    H42     26.267561   18.635270   23.071347 H          1 MOL1         0.0783
      90    O22     24.931345   17.388190   24.054055 O.3        1 MOL1        -0.5519
      91    H43     24.393927   16.656003   23.661988 H          1 MOL1         0.3769
      92    C27     24.323569   19.564474   23.099518 C.3        1 MOL1         0.1053
      93    H44     23.276991   19.234017   23.097160 H          1 MOL1         0.0783
      94    O23     24.615714   20.239329   24.325442 O.3        1 MOL1        -0.5519
      95    H45     24.615551   19.529850   25.006473 H          1 MOL1         0.3769
      96    C28     24.533669   20.522028   21.898521 C.3        1 MOL1         0.1018
      97    H46     25.477659   21.062639   22.042010 H          1 MOL1         0.0783
      98    C29     24.560770   19.779684   20.530442 C.3        1 MOL1         0.1043
      99    H47     23.536890   19.473415   20.295443 H          1 MOL1         0.0783
     100    O24     25.397415   18.594746   20.594235 O.3        1 MOL1        -0.3740
     101    C30     25.037420   20.662883   19.351731 C.3        1 MOL1         0.0138
     102    H48     24.265724   21.416082   19.142129 H          1 MOL1         0.0794
     103    H49     25.124087   20.030733   18.457968 H          1 MOL1         0.0794
     104    O25     26.287891   21.309874   19.616534 O.3        1 MOL1        -0.5486
     105    H50     26.101603   22.106126   20.157720 H          1 MOL1         0.3769
     106    C31     21.187315   14.123265   20.338742 C.3        1 MOL1         0.2972
     107    H51     20.771246   13.207004   19.900411 H          1 MOL1         0.0751
     108    O26     20.152948   14.957765   20.900202 O.3        1 MOL1        -0.3740
     109    C32     22.231556   13.797227   21.442509 C.3        1 MOL1         0.1003
     110    H52     23.043252   13.236096   20.961420 H          1 MOL1         0.0783
     111    O27     21.671676   12.991035   22.489826 O.3        1 MOL1        -0.5519
     112    H53     20.920997   13.503296   22.884068 H          1 MOL1         0.3769
     113    C33     22.835646   15.100822   22.022588 C.3        1 MOL1         0.1053
     114    H54     22.038631   15.649017   22.543908 H          1 MOL1         0.0783
     115    O28     23.884255   14.778166   22.941329 O.3        1 MOL1        -0.5519
     116    H55     23.534588   14.032068   23.478366 H          1 MOL1         0.3769
     117    C34     23.384625   16.000235   20.887490 C.3        1 MOL1         0.1018
     118    H56     24.287724   15.532558   20.473616 H          1 MOL1         0.0783
     119    C35     22.349700   16.195401   19.747550 C.3        1 MOL1         0.1043
     120    H57     21.510086   16.777584   20.142512 H          1 MOL1         0.0783
     121    O29     21.865594   14.897155   19.320989 O.3        1 MOL1        -0.3740
     122    C36     22.887704   16.973067   18.517708 C.3        1 MOL1         0.0138
     123    H58     22.706972   18.043356   18.680086 H          1 MOL1         0.0794
     124    H59     22.301767   16.682331   17.635625 H          1 MOL1         0.0794
     125    O30     24.283832   16.759189   18.275333 O.3        1 MOL1        -0.5486
     126    H60     24.778371   17.262926   18.962543 H          1 MOL1         0.3769
     127    C1      19.355587   18.566171   21.092474 C.3        1 MOL1        -0.1693
     128    H1      19.455206   17.492620   20.900864 H          1 MOL1         0.0829
     129    H2      18.792182   19.013901   20.269742 H          1 MOL1         0.0829
     130    C2      20.680701   19.297026   21.474027 C.3        1 MOL1        -0.1768
     131    H3      21.589733   18.917495   21.008265 H          1 MOL1         0.0829
     132    H4      20.651714   20.385271   21.357538 H          1 MOL1         0.0829
     133    C3      20.402747   18.789362   22.919016 C.3        1 MOL1         0.1211
     134    H5      20.727191   17.754423   23.093372 H          1 MOL1         0.0786
     135    C4      18.898448   18.928196   22.543887 C.3        1 MOL1        -0.1768
     136    H6      18.230744   18.216412   23.036162 H          1 MOL1         0.0829
     137    H7      18.490735   19.939600   22.660691 H          1 MOL1         0.0829
     138    O1      20.842911   19.631371   23.957793 O.3        1 MOL1        -0.5515
     139    H8      20.444915   19.303155   24.788249 H          1 MOL1         0.3773
@<TRIPOS>BOND
    1     1     2    1
    2     1     3    1
    3     1     4    1
    4     4     5    1
    5     4     6    1
    6     6     7    1
    7     4     8    1
    8     8     9    1
    9     8    10    1
   10    10    11    1
   11     8    12    1
   12    12    13    1
   13    12    14    1
   14    14    15    1
   15     1    16    1
   16    14    16    1
   17    14    17    1
   18    17    18    1
   19    17    19    1
   20    17    20    1
   21    20    21    1
   22    22    23    1
   23    22    24    1
   24    22    25    1
   25    25    26    1
   26    25    27    1
   27    27    28    1
   28    25    29    1
   29    29    30    1
   30    29    31    1
   31    31    32    1
   32     3    33    1
   33    29    33    1
   34    33    34    1
   35    33    35    1
   36    35    36    1
   37    22    37    1
   38    35    37    1
   39    35    38    1
   40    38    39    1
   41    38    40    1
   42    38    41    1
   43    41    42    1
   44    43    44    1
   45    43    45    1
   46    43    46    1
   47    46    47    1
   48    46    48    1
   49    48    49    1
   50    46    50    1
   51    50    51    1
   52    50    52    1
   53    52    53    1
   54    24    54    1
   55    50    54    1
   56    54    55    1
   57    54    56    1
   58    56    57    1
   59    43    58    1
   60    56    58    1
   61    56    59    1
   62    59    60    1
   63    59    61    1
   64    59    62    1
   65    62    63    1
   66    64    65    1
   67    64    66    1
   68    64    67    1
   69    67    68    1
   70    67    69    1
   71    69    70    1
   72    67    71    1
   73    71    72    1
   74    71    73    1
   75    73    74    1
   76    45    75    1
   77    71    75    1
   78    75    76    1
   79    75    77    1
   80    77    78    1
   81    64    79    1
   82    77    79    1
   83    77    80    1
   84    80    81    1
   85    80    82    1
   86    80    83    1
   87    83    84    1
   88    85    86    1
   89    85    87    1
   90    85    88    1
   91    88    89    1
   92    88    90    1
   93    90    91    1
   94    88    92    1
   95    92    93    1
   96    92    94    1
   97    94    95    1
   98    66    96    1
   99    92    96    1
  100    96    97    1
  101    96    98    1
  102    98    99    1
  103    85   100    1
  104    98   100    1
  105    98   101    1
  106   101   102    1
  107   101   103    1
  108   101   104    1
  109   104   105    1
  110   106   107    1
  111    12   108    1
  112   106   108    1
  113   106   109    1
  114   109   110    1
  115   109   111    1
  116   111   112    1
  117   109   113    1
  118   113   114    1
  119   113   115    1
  120   115   116    1
  121    87   117    1
  122   113   117    1
  123   117   118    1
  124   117   119    1
  125   119   120    1
  126   106   121    1
  127   119   121    1
  128   119   122    1
  129   122   123    1
  130   122   124    1
  131   122   125    1
  132   125   126    1
  133   127   128    1
  134   127   129    1
  135   127   130    1
  136   130   131    1
  137   130   132    1
  138   130   133    1
  139   133   134    1
  140   127   135    1
  141   133   135    1
  142   135   136    1
  143   135   137    1
  144   133   138    1
  145   138   139    1
@<TRIPOS>SUBSTRUCTURE
       1 MOL1            1 RESIDUE      1      MOL     
       2 MOL1          139 RESIDUE      1      MOL     
@<SCITEGIC>MOL_PROPERTY
feprocess Rank
SciTegic.value.IntegerValue
65

@<SCITEGIC>MOL_PROPERTY
Conf_Id
SciTegic.value.IntegerValue
381

@<SCITEGIC>MOL_PROPERTY
Probability
SciTegic.value.DoubleValue
0.10

@<SCITEGIC>MOL_PROPERTY
G
SciTegic.value.DoubleValue
548.162

@<SCITEGIC>MOL_PROPERTY
E
SciTegic.value.DoubleValue
370.506

@<SCITEGIC>MOL_PROPERTY
-TS
SciTegic.value.DoubleValue
177.656

@<SCITEGIC>MOL_PROPERTY
U+W
SciTegic.value.DoubleValue
247.995

@<SCITEGIC>MOL_PROPERTY
U
SciTegic.value.DoubleValue
286.894

@<SCITEGIC>MOL_PROPERTY
W
SciTegic.value.DoubleValue
-38.899

@<SCITEGIC>MOL_PROPERTY
W(PB)
SciTegic.value.DoubleValue
-44.854

@<SCITEGIC>MOL_PROPERTY
W(SA)
SciTegic.value.DoubleValue
5.955

@<SCITEGIC>MOL_PROPERTY
Valence
SciTegic.value.DoubleValue
154.826

@<SCITEGIC>MOL_PROPERTY
Coulomb
SciTegic.value.DoubleValue
154.261

@<SCITEGIC>MOL_PROPERTY
VdW
SciTegic.value.DoubleValue
-22.193

@<SCITEGIC>MOL_PROPERTY
VdW6
SciTegic.value.DoubleValue
-168.970

@<SCITEGIC>MOL_PROPERTY
VdW12
SciTegic.value.DoubleValue
146.778

@<SCITEGIC>MOL_PROPERTY
Bond
SciTegic.value.DoubleValue
4.677

@<SCITEGIC>MOL_PROPERTY
Angle
SciTegic.value.DoubleValue
12.068

@<SCITEGIC>MOL_PROPERTY
Pdih
SciTegic.value.DoubleValue
138.081

@<SCITEGIC>MOL_PROPERTY
Idih
SciTegic.value.DoubleValue
0.000

@<SCITEGIC>MOL_PROPERTY
Tether
SciTegic.value.DoubleValue
0.000

@<TRIPOS>MOLECULE
CD_guest-s16_fast_vm2_rndm.mol2 : feprocess host+ligand conformer 66
         139         145           2
SMALL
USER_CHARGES
 
@<TRIPOS>ATOM
       1    C1      16.216768   15.082808   21.393167 C.3        1 MOL1         0.2972
       2    H1      15.132290   14.959777   21.278161 H          1 MOL1         0.0751
       3    O1      16.591138   16.472163   21.502929 O.3        1 MOL1        -0.3740
       4    C2      16.693996   14.349455   22.669688 C.3        1 MOL1         0.1003
       5    H2      16.473123   13.281631   22.542834 H          1 MOL1         0.0783
       6    O2      16.003463   14.842811   23.828550 O.3        1 MOL1        -0.5519
       7    H3      15.736572   15.776254   23.633174 H          1 MOL1         0.3769
       8    C3      18.220716   14.506241   22.842996 C.3        1 MOL1         0.1053
       9    H4      18.425027   15.564066   23.042781 H          1 MOL1         0.0783
      10    O3      18.664499   13.715165   23.949054 O.3        1 MOL1        -0.5519
      11    H5      18.001544   13.878337   24.657286 H          1 MOL1         0.3769
      12    C4      18.984981   14.102531   21.558416 C.3        1 MOL1         0.1018
      13    H6      19.003901   13.007597   21.487256 H          1 MOL1         0.0783
      14    C5      18.356480   14.699471   20.266579 C.3        1 MOL1         0.1043
      15    H7      18.575184   15.772047   20.252500 H          1 MOL1         0.0783
      16    O4      16.916849   14.516579   20.264435 O.3        1 MOL1        -0.3740
      17    C6      18.937014   14.113959   18.955791 C.3        1 MOL1         0.0138
      18    H8      19.945059   14.522196   18.805155 H          1 MOL1         0.0794
      19    H9      18.319330   14.461267   18.116861 H          1 MOL1         0.0794
      20    O5      18.993396   12.682917   18.963557 O.3        1 MOL1        -0.5486
      21    H10     19.806964   12.423920   19.447336 H          1 MOL1         0.3769
      22    C7      14.936907   20.274937   20.826899 C.3        1 MOL1         0.2972
      23    H11     14.236970   21.064908   20.526671 H          1 MOL1         0.0751
      24    O6      16.185067   20.822794   21.292296 O.3        1 MOL1        -0.3740
      25    C8      14.328469   19.457241   21.995050 C.3        1 MOL1         0.1003
      26    H12     13.364750   19.058230   21.652797 H          1 MOL1         0.0783
      27    O7      14.113736   20.303068   23.136743 O.3        1 MOL1        -0.5519
      28    H13     14.833037   20.982265   23.129711 H          1 MOL1         0.3769
      29    C9      15.234096   18.259961   22.372874 C.3        1 MOL1         0.1053
      30    H14     16.166708   18.653285   22.799800 H          1 MOL1         0.0783
      31    O8      14.564220   17.440003   23.335789 O.3        1 MOL1        -0.5519
      32    H15     14.198487   18.070405   23.996012 H          1 MOL1         0.3769
      33    C10     15.586403   17.428437   21.117246 C.3        1 MOL1         0.1018
      34    H16     14.672917   16.941431   20.751081 H          1 MOL1         0.0783
      35    C11     16.163558   18.330039   19.993219 C.3        1 MOL1         0.1043
      36    H17     17.102138   18.772120   20.350434 H          1 MOL1         0.0783
      37    O9      15.211626   19.388735   19.717811 O.3        1 MOL1        -0.3740
      38    C12     16.486238   17.587917   18.670416 C.3        1 MOL1         0.0138
      39    H18     17.505052   17.185635   18.737765 H          1 MOL1         0.0794
      40    H19     16.484985   18.317475   17.849839 H          1 MOL1         0.0794
      41    O10     15.572657   16.523396   18.382015 O.3        1 MOL1        -0.5486
      42    H20     15.848419   15.752816   18.930579 H          1 MOL1         0.3769
      43    C13     18.614313   24.189677   20.888540 C.3        1 MOL1         0.2972
      44    H21     19.036965   25.175351   20.654926 H          1 MOL1         0.0751
      45    O11     19.625374   23.273271   21.346681 O.3        1 MOL1        -0.3740
      46    C14     17.500011   24.289698   21.965532 C.3        1 MOL1         0.1003
      47    H22     16.703587   24.919991   21.548906 H          1 MOL1         0.0783
      48    O12     17.981527   24.891207   23.177227 O.3        1 MOL1        -0.5519
      49    H23     18.730167   24.332894   23.507528 H          1 MOL1         0.3769
      50    C15     16.897693   22.891952   22.254812 C.3        1 MOL1         0.1053
      51    H24     17.674674   22.273663   22.725257 H          1 MOL1         0.0783
      52    O13     15.780304   23.021483   23.140807 O.3        1 MOL1        -0.5519
      53    H25     16.079786   23.638006   23.845422 H          1 MOL1         0.3769
      54    C16     16.446841   22.196628   20.945900 C.3        1 MOL1         0.1018
      55    H26     15.546298   22.709499   20.583574 H          1 MOL1         0.0783
      56    C17     17.548940   22.242055   19.848691 C.3        1 MOL1         0.1043
      57    H27     18.380941   21.603375   20.170209 H          1 MOL1         0.0783
      58    O14     18.019508   23.607285   19.706955 O.3        1 MOL1        -0.3740
      59    C18     17.113058   21.726219   18.454132 C.3        1 MOL1         0.0138
      60    H28     17.230431   20.635328   18.434884 H          1 MOL1         0.0794
      61    H29     17.801964   22.133019   17.701897 H          1 MOL1         0.0794
      62    O15     15.763658   22.069091   18.120610 O.3        1 MOL1        -0.5486
      63    H30     15.202046   21.318728   18.417337 H          1 MOL1         0.3769
      64    C19     23.446033   22.577954   22.463783 C.3        1 MOL1         0.2972
      65    H31     24.490005   22.546721   22.799117 H          1 MOL1         0.0751
      66    O16     23.038739   21.320656   21.884137 O.3        1 MOL1        -0.3740
      67    C20     22.518653   22.899522   23.660673 C.3        1 MOL1         0.1003
      68    H32     22.796389   23.892646   24.036744 H          1 MOL1         0.0783
      69    O17     22.674620   21.929747   24.708146 O.3        1 MOL1        -0.5519
      70    H33     22.435285   21.050377   24.319172 H          1 MOL1         0.3769
      71    C21     21.043013   22.944117   23.213290 C.3        1 MOL1         0.1053
      72    H34     20.757263   21.920536   22.957323 H          1 MOL1         0.0783
      73    O18     20.226036   23.403372   24.294531 O.3        1 MOL1        -0.5519
      74    H35     20.548913   22.912060   25.082791 H          1 MOL1         0.3769
      75    C22     20.810945   23.818911   21.956448 C.3        1 MOL1         0.1018
      76    H36     20.681091   24.864508   22.265534 H          1 MOL1         0.0783
      77    C23     21.934340   23.696135   20.885686 C.3        1 MOL1         0.1043
      78    H37     21.747757   22.768531   20.337631 H          1 MOL1         0.0783
      79    O19     23.255519   23.617660   21.480359 O.3        1 MOL1        -0.3740
      80    C24     21.925354   24.840580   19.844751 C.3        1 MOL1         0.0138
      81    H38     21.035695   24.728295   19.210443 H          1 MOL1         0.0794
      82    H39     22.803872   24.731724   19.194631 H          1 MOL1         0.0794
      83    O20     21.921475   26.132193   20.464400 O.3        1 MOL1        -0.5486
      84    H40     21.993880   26.805194   19.752498 H          1 MOL1         0.3769
      85    C25     24.620912   17.776067   20.438437 C.3        1 MOL1         0.2972
      86    H41     25.179303   16.990506   19.913537 H          1 MOL1         0.0751
      87    O21     23.442378   17.250795   21.082553 O.3        1 MOL1        -0.3740
      88    C26     25.508009   18.467155   21.504761 C.3        1 MOL1         0.1003
      89    H42     26.370397   18.894366   20.976623 H          1 MOL1         0.0783
      90    O22     25.977540   17.525184   22.483121 O.3        1 MOL1        -0.5519
      91    H43     25.180722   17.087655   22.877254 H          1 MOL1         0.3769
      92    C27     24.754801   19.629291   22.199871 C.3        1 MOL1         0.1053
      93    H44     23.983357   19.190011   22.844076 H          1 MOL1         0.0783
      94    O23     25.691348   20.359331   22.997986 O.3        1 MOL1        -0.5519
      95    H45     26.166307   19.680660   23.526181 H          1 MOL1         0.3769
      96    C28     24.056243   20.577544   21.182357 C.3        1 MOL1         0.1018
      97    H46     24.812460   21.242235   20.745737 H          1 MOL1         0.0783
      98    C29     23.326790   19.807147   20.044102 C.3        1 MOL1         0.1043
      99    H47     22.436573   19.328142   20.471043 H          1 MOL1         0.0783
     100    O24     24.202166   18.790676   19.503843 O.3        1 MOL1        -0.3740
     101    C30     22.831488   20.692933   18.872232 C.3        1 MOL1         0.0138
     102    H48     21.828862   21.063807   19.117735 H          1 MOL1         0.0794
     103    H49     22.718993   20.061797   17.980569 H          1 MOL1         0.0794
     104    O25     23.705528   21.792898   18.585796 O.3        1 MOL1        -0.5486
     105    H50     23.740082   22.360379   19.387041 H          1 MOL1         0.3769
     106    C31     21.401239   13.743440   21.792662 C.3        1 MOL1         0.2972
     107    H51     21.058401   12.714874   21.961948 H          1 MOL1         0.0751
     108    O26     20.301701   14.668376   21.688002 O.3        1 MOL1        -0.3740
     109    C32     22.309843   14.202018   22.960148 C.3        1 MOL1         0.1003
     110    H52     23.190230   13.546329   22.972362 H          1 MOL1         0.0783
     111    O27     21.622898   14.095131   24.217203 O.3        1 MOL1        -0.5519
     112    H53     20.653410   14.159942   24.028928 H          1 MOL1         0.3769
     113    C33     22.797038   15.651549   22.732293 C.3        1 MOL1         0.1053
     114    H54     21.925899   16.312497   22.808732 H          1 MOL1         0.0783
     115    O28     23.753219   16.003797   23.737266 O.3        1 MOL1        -0.5519
     116    H55     23.344220   15.720655   24.585499 H          1 MOL1         0.3769
     117    C34     23.425142   15.830961   21.328008 C.3        1 MOL1         0.1018
     118    H56     24.437335   15.405107   21.345847 H          1 MOL1         0.0783
     119    C35     22.587372   15.169228   20.193530 C.3        1 MOL1         0.1043
     120    H57     21.695753   15.787991   20.028293 H          1 MOL1         0.0783
     121    O29     22.171191   13.832877   20.577007 O.3        1 MOL1        -0.3740
     122    C36     23.331174   15.074737   18.839628 C.3        1 MOL1         0.0138
     123    H58     23.408905   16.083493   18.412097 H          1 MOL1         0.0794
     124    H59     22.724055   14.474864   18.148424 H          1 MOL1         0.0794
     125    O30     24.637749   14.502819   18.978584 O.3        1 MOL1        -0.5486
     126    H60     25.011608   14.390519   18.077318 H          1 MOL1         0.3769
     127    C1      19.776561   18.125617   21.835061 C.3        1 MOL1        -0.1693
     128    H1      19.030850   17.693287   21.164080 H          1 MOL1         0.0829
     129    H2      20.767422   17.780905   21.519874 H          1 MOL1         0.0829
     130    C2      19.476610   17.993659   23.365599 C.3        1 MOL1        -0.1768
     131    H3      18.409636   17.975683   23.617717 H          1 MOL1         0.0829
     132    H4      19.971661   17.168832   23.889671 H          1 MOL1         0.0829
     133    C3      20.142568   19.392355   23.524189 C.3        1 MOL1         0.1211
     134    H5      19.686002   20.036737   24.286004 H          1 MOL1         0.0786
     135    C4      19.661939   19.665202   22.064806 C.3        1 MOL1        -0.1768
     136    H6      20.314589   20.291810   21.447828 H          1 MOL1         0.0829
     137    H7      18.641131   20.056601   22.004802 H          1 MOL1         0.0829
     138    O1      21.541697   19.361121   23.696693 O.3        1 MOL1        -0.5515
     139    H8      21.879834   18.714558   23.046869 H          1 MOL1         0.3773
@<TRIPOS>BOND
    1     1     2    1
    2     1     3    1
    3     1     4    1
    4     4     5    1
    5     4     6    1
    6     6     7    1
    7     4     8    1
    8     8     9    1
    9     8    10    1
   10    10    11    1
   11     8    12    1
   12    12    13    1
   13    12    14    1
   14    14    15    1
   15     1    16    1
   16    14    16    1
   17    14    17    1
   18    17    18    1
   19    17    19    1
   20    17    20    1
   21    20    21    1
   22    22    23    1
   23    22    24    1
   24    22    25    1
   25    25    26    1
   26    25    27    1
   27    27    28    1
   28    25    29    1
   29    29    30    1
   30    29    31    1
   31    31    32    1
   32     3    33    1
   33    29    33    1
   34    33    34    1
   35    33    35    1
   36    35    36    1
   37    22    37    1
   38    35    37    1
   39    35    38    1
   40    38    39    1
   41    38    40    1
   42    38    41    1
   43    41    42    1
   44    43    44    1
   45    43    45    1
   46    43    46    1
   47    46    47    1
   48    46    48    1
   49    48    49    1
   50    46    50    1
   51    50    51    1
   52    50    52    1
   53    52    53    1
   54    24    54    1
   55    50    54    1
   56    54    55    1
   57    54    56    1
   58    56    57    1
   59    43    58    1
   60    56    58    1
   61    56    59    1
   62    59    60    1
   63    59    61    1
   64    59    62    1
   65    62    63    1
   66    64    65    1
   67    64    66    1
   68    64    67    1
   69    67    68    1
   70    67    69    1
   71    69    70    1
   72    67    71    1
   73    71    72    1
   74    71    73    1
   75    73    74    1
   76    45    75    1
   77    71    75    1
   78    75    76    1
   79    75    77    1
   80    77    78    1
   81    64    79    1
   82    77    79    1
   83    77    80    1
   84    80    81    1
   85    80    82    1
   86    80    83    1
   87    83    84    1
   88    85    86    1
   89    85    87    1
   90    85    88    1
   91    88    89    1
   92    88    90    1
   93    90    91    1
   94    88    92    1
   95    92    93    1
   96    92    94    1
   97    94    95    1
   98    66    96    1
   99    92    96    1
  100    96    97    1
  101    96    98    1
  102    98    99    1
  103    85   100    1
  104    98   100    1
  105    98   101    1
  106   101   102    1
  107   101   103    1
  108   101   104    1
  109   104   105    1
  110   106   107    1
  111    12   108    1
  112   106   108    1
  113   106   109    1
  114   109   110    1
  115   109   111    1
  116   111   112    1
  117   109   113    1
  118   113   114    1
  119   113   115    1
  120   115   116    1
  121    87   117    1
  122   113   117    1
  123   117   118    1
  124   117   119    1
  125   119   120    1
  126   106   121    1
  127   119   121    1
  128   119   122    1
  129   122   123    1
  130   122   124    1
  131   122   125    1
  132   125   126    1
  133   127   128    1
  134   127   129    1
  135   127   130    1
  136   130   131    1
  137   130   132    1
  138   130   133    1
  139   133   134    1
  140   127   135    1
  141   133   135    1
  142   135   136    1
  143   135   137    1
  144   133   138    1
  145   138   139    1
@<TRIPOS>SUBSTRUCTURE
       1 MOL1            1 RESIDUE      1      MOL     
       2 MOL1          139 RESIDUE      1      MOL     
@<SCITEGIC>MOL_PROPERTY
feprocess Rank
SciTegic.value.IntegerValue
66

@<SCITEGIC>MOL_PROPERTY
Conf_Id
SciTegic.value.IntegerValue
298

@<SCITEGIC>MOL_PROPERTY
Probability
SciTegic.value.DoubleValue
0.10

@<SCITEGIC>MOL_PROPERTY
G
SciTegic.value.DoubleValue
548.173

@<SCITEGIC>MOL_PROPERTY
E
SciTegic.value.DoubleValue
370.599

@<SCITEGIC>MOL_PROPERTY
-TS
SciTegic.value.DoubleValue
177.575

@<SCITEGIC>MOL_PROPERTY
U+W
SciTegic.value.DoubleValue
248.087

@<SCITEGIC>MOL_PROPERTY
U
SciTegic.value.DoubleValue
286.657

@<SCITEGIC>MOL_PROPERTY
W
SciTegic.value.DoubleValue
-38.570

@<SCITEGIC>MOL_PROPERTY
W(PB)
SciTegic.value.DoubleValue
-44.497

@<SCITEGIC>MOL_PROPERTY
W(SA)
SciTegic.value.DoubleValue
5.927

@<SCITEGIC>MOL_PROPERTY
Valence
SciTegic.value.DoubleValue
154.035

@<SCITEGIC>MOL_PROPERTY
Coulomb
SciTegic.value.DoubleValue
154.755

@<SCITEGIC>MOL_PROPERTY
VdW
SciTegic.value.DoubleValue
-22.133

@<SCITEGIC>MOL_PROPERTY
VdW6
SciTegic.value.DoubleValue
-169.082

@<SCITEGIC>MOL_PROPERTY
VdW12
SciTegic.value.DoubleValue
146.950

@<SCITEGIC>MOL_PROPERTY
Bond
SciTegic.value.DoubleValue
4.594

@<SCITEGIC>MOL_PROPERTY
Angle
SciTegic.value.DoubleValue
12.361

@<SCITEGIC>MOL_PROPERTY
Pdih
SciTegic.value.DoubleValue
137.080

@<SCITEGIC>MOL_PROPERTY
Idih
SciTegic.value.DoubleValue
0.000

@<SCITEGIC>MOL_PROPERTY
Tether
SciTegic.value.DoubleValue
0.000

@<TRIPOS>MOLECULE
CD_guest-s16_fast_vm2_rndm.mol2 : feprocess host+ligand conformer 67
         139         145           2
SMALL
USER_CHARGES
 
@<TRIPOS>ATOM
       1    C1      16.248132   15.228769   21.151855 C.3        1 MOL1         0.2972
       2    H1      15.206612   15.000897   20.891238 H          1 MOL1         0.0751
       3    O1      16.434157   16.638264   21.389159 O.3        1 MOL1        -0.3740
       4    C2      16.632416   14.477537   22.451985 C.3        1 MOL1         0.1003
       5    H2      16.481624   13.404886   22.273648 H          1 MOL1         0.0783
       6    O2      15.792155   14.903348   23.536263 O.3        1 MOL1        -0.5519
       7    H3      15.544320   15.840690   23.347669 H          1 MOL1         0.3769
       8    C3      18.122335   14.700795   22.803386 C.3        1 MOL1         0.1053
       9    H4      18.252449   15.758000   23.068426 H          1 MOL1         0.0783
      10    O3      18.487677   13.874606   23.913674 O.3        1 MOL1        -0.5519
      11    H5      17.758106   13.984280   24.563774 H          1 MOL1         0.3769
      12    C4      19.024879   14.385907   21.586743 C.3        1 MOL1         0.1018
      13    H6      19.002912   13.303672   21.402098 H          1 MOL1         0.0783
      14    C5      18.543286   15.128291   20.311362 C.3        1 MOL1         0.1043
      15    H7      18.659290   16.206913   20.480527 H          1 MOL1         0.0783
      16    O4      17.142524   14.822782   20.091744 O.3        1 MOL1        -0.3740
      17    C6      19.331550   14.780376   19.021034 C.3        1 MOL1         0.0138
      18    H8      20.181039   15.468812   18.934829 H          1 MOL1         0.0794
      19    H9      18.684455   14.967693   18.153778 H          1 MOL1         0.0794
      20    O5      19.805769   13.429067   18.992944 O.3        1 MOL1        -0.5486
      21    H10     20.581928   13.381698   19.598778 H          1 MOL1         0.3769
      22    C7      14.949021   20.374286   20.301992 C.3        1 MOL1         0.2972
      23    H11     14.389106   21.214019   19.870362 H          1 MOL1         0.0751
      24    O6      16.149065   20.817179   20.963999 O.3        1 MOL1        -0.3740
      25    C8      14.085998   19.585639   21.321928 C.3        1 MOL1         0.1003
      26    H12     13.219649   19.188552   20.777075 H          1 MOL1         0.0783
      27    O7      13.621584   20.431535   22.385541 O.3        1 MOL1        -0.5519
      28    H13     14.417840   20.854766   22.796301 H          1 MOL1         0.3769
      29    C9      14.882211   18.385611   21.892111 C.3        1 MOL1         0.1053
      30    H14     15.709649   18.781210   22.496671 H          1 MOL1         0.0783
      31    O8      14.025115   17.586346   22.714397 O.3        1 MOL1        -0.5519
      32    H15     13.538090   18.227267   23.278571 H          1 MOL1         0.3769
      33    C10     15.480425   17.515369   20.757376 C.3        1 MOL1         0.1018
      34    H16     14.658299   16.960854   20.286260 H          1 MOL1         0.0783
      35    C11     16.211057   18.368777   19.679042 C.3        1 MOL1         0.1043
      36    H17     17.120638   18.787500   20.126346 H          1 MOL1         0.0783
      37    O9      15.341567   19.451299   19.263073 O.3        1 MOL1        -0.3740
      38    C12     16.657652   17.597550   18.410592 C.3        1 MOL1         0.0138
      39    H18     17.663109   17.195921   18.583313 H          1 MOL1         0.0794
      40    H19     16.742866   18.312035   17.580965 H          1 MOL1         0.0794
      41    O10     15.770627   16.533239   18.050008 O.3        1 MOL1        -0.5486
      42    H20     16.021862   15.758097   18.603594 H          1 MOL1         0.3769
      43    C13     18.400451   24.054532   22.049574 C.3        1 MOL1         0.2972
      44    H21     18.826575   25.027762   22.325824 H          1 MOL1         0.0751
      45    O11     19.422364   23.049858   21.894318 O.3        1 MOL1        -0.3740
      46    C14     17.418567   23.583725   23.146968 C.3        1 MOL1         0.1003
      47    H22     16.605475   24.319116   23.203979 H          1 MOL1         0.0783
      48    O12     18.084005   23.508010   24.418333 O.3        1 MOL1        -0.5519
      49    H23     19.055574   23.491761   24.234570 H          1 MOL1         0.3769
      50    C15     16.804778   22.215339   22.776396 C.3        1 MOL1         0.1053
      51    H24     17.605900   21.469975   22.817455 H          1 MOL1         0.0783
      52    O13     15.789485   21.875796   23.725608 O.3        1 MOL1        -0.5519
      53    H25     16.194550   22.060869   24.602506 H          1 MOL1         0.3769
      54    C16     16.219974   22.204620   21.341752 C.3        1 MOL1         0.1018
      55    H26     15.231496   22.682711   21.359432 H          1 MOL1         0.0783
      56    C17     17.141926   22.897644   20.296498 C.3        1 MOL1         0.1043
      57    H27     17.975923   22.214583   20.094407 H          1 MOL1         0.0783
      58    O14     17.673078   24.147595   20.807939 O.3        1 MOL1        -0.3740
      59    C18     16.446348   23.177105   18.942948 C.3        1 MOL1         0.0138
      60    H28     16.282136   22.219523   18.430498 H          1 MOL1         0.0794
      61    H29     17.125203   23.770024   18.315201 H          1 MOL1         0.0794
      62    O15     15.197622   23.859566   19.109523 O.3        1 MOL1        -0.5486
      63    H30     14.854349   24.076054   18.215093 H          1 MOL1         0.3769
      64    C19     23.570745   22.746943   21.476818 C.3        1 MOL1         0.2972
      65    H31     24.629531   22.977906   21.302771 H          1 MOL1         0.0751
      66    O16     23.369212   21.338982   21.699654 O.3        1 MOL1        -0.3740
      67    C20     23.072350   23.492429   22.741739 C.3        1 MOL1         0.1003
      68    H32     23.222897   24.567130   22.576072 H          1 MOL1         0.0783
      69    O17     23.826952   23.076732   23.890594 O.3        1 MOL1        -0.5519
      70    H33     24.069213   22.131221   23.739410 H          1 MOL1         0.3769
      71    C21     21.561349   23.248657   22.972993 C.3        1 MOL1         0.1053
      72    H34     21.421887   22.190609   23.228722 H          1 MOL1         0.0783
      73    O18     21.095725   24.069540   24.049067 O.3        1 MOL1        -0.5519
      74    H35     21.772998   23.971789   24.755373 H          1 MOL1         0.3769
      75    C22     20.755108   23.549725   21.687558 C.3        1 MOL1         0.1018
      76    H36     20.767773   24.632938   21.507532 H          1 MOL1         0.0783
      77    C23     21.350479   22.824848   20.451855 C.3        1 MOL1         0.1043
      78    H37     21.233239   21.744337   20.605356 H          1 MOL1         0.0783
      79    O19     22.761080   23.147786   20.348392 O.3        1 MOL1        -0.3740
      80    C24     20.661744   23.171593   19.105253 C.3        1 MOL1         0.0138
      81    H38     19.838199   22.465358   18.943364 H          1 MOL1         0.0794
      82    H39     21.380859   23.009180   18.291255 H          1 MOL1         0.0794
      83    O20     20.159437   24.512355   19.053329 O.3        1 MOL1        -0.5486
      84    H40     19.356385   24.545671   19.623921 H          1 MOL1         0.3769
      85    C25     24.919844   17.579586   20.765940 C.3        1 MOL1         0.2972
      86    H41     25.520748   16.747435   20.376870 H          1 MOL1         0.0751
      87    O21     23.690997   17.118741   21.356419 O.3        1 MOL1        -0.3740
      88    C26     25.702925   18.380557   21.839017 C.3        1 MOL1         0.1003
      89    H42     26.614620   18.761693   21.361023 H          1 MOL1         0.0783
      90    O22     26.068011   17.542987   22.947683 O.3        1 MOL1        -0.5519
      91    H43     25.242253   17.094172   23.263129 H          1 MOL1         0.3769
      92    C27     24.877955   19.596465   22.330492 C.3        1 MOL1         0.1053
      93    H44     24.011918   19.215612   22.888366 H          1 MOL1         0.0783
      94    O23     25.686569   20.408887   23.188495 O.3        1 MOL1        -0.5519
      95    H45     26.101782   19.780752   23.819985 H          1 MOL1         0.3769
      96    C28     24.354482   20.446480   21.144555 C.3        1 MOL1         0.1018
      97    H46     25.202695   20.988328   20.706073 H          1 MOL1         0.0783
      98    C29     23.678039   19.566449   20.053960 C.3        1 MOL1         0.1043
      99    H47     22.754246   19.147725   20.473871 H          1 MOL1         0.0783
     100    O24     24.577331   18.488041   19.697781 O.3        1 MOL1        -0.3740
     101    C30     23.284403   20.306025   18.749428 C.3        1 MOL1         0.0138
     102    H48     22.265443   20.694159   18.860973 H          1 MOL1         0.0794
     103    H49     23.252659   19.574283   17.931134 H          1 MOL1         0.0794
     104    O25     24.173566   21.376341   18.412387 O.3        1 MOL1        -0.5486
     105    H50     23.904470   22.150408   18.959371 H          1 MOL1         0.3769
     106    C31     21.353401   13.834509   22.061347 C.3        1 MOL1         0.2972
     107    H51     20.907713   12.847770   22.241740 H          1 MOL1         0.0751
     108    O26     20.346546   14.854189   21.908957 O.3        1 MOL1        -0.3740
     109    C32     22.260604   14.222828   23.252065 C.3        1 MOL1         0.1003
     110    H52     23.060079   13.473534   23.318981 H          1 MOL1         0.0783
     111    O27     21.505901   14.226466   24.474978 O.3        1 MOL1        -0.5519
     112    H53     20.554775   14.333789   24.225580 H          1 MOL1         0.3769
     113    C33     22.915326   15.602930   23.017536 C.3        1 MOL1         0.1053
     114    H54     22.124858   16.360000   23.071589 H          1 MOL1         0.0783
     115    O28     23.887224   15.849947   24.038914 O.3        1 MOL1        -0.5519
     116    H55     23.417361   15.674601   24.883880 H          1 MOL1         0.3769
     117    C34     23.583132   15.708398   21.624101 C.3        1 MOL1         0.1018
     118    H56     24.564625   15.217908   21.668742 H          1 MOL1         0.0783
     119    C35     22.723769   15.100776   20.477811 C.3        1 MOL1         0.1043
     120    H57     21.905950   15.803184   20.275532 H          1 MOL1         0.0783
     121    O29     22.160564   13.821306   20.866808 O.3        1 MOL1        -0.3740
     122    C36     23.498187   14.911341   19.151583 C.3        1 MOL1         0.0138
     123    H58     23.694587   15.900800   18.717044 H          1 MOL1         0.0794
     124    H59     22.856441   14.367540   18.445278 H          1 MOL1         0.0794
     125    O30     24.733243   14.210798   19.343424 O.3        1 MOL1        -0.5486
     126    H60     25.129069   14.056111   18.457972 H          1 MOL1         0.3769
     127    C1      19.120204   19.298644   22.276796 C.3        1 MOL1        -0.1693
     128    H1      19.281069   20.035376   21.479068 H          1 MOL1         0.0829
     129    H2      18.087715   18.937997   22.222128 H          1 MOL1         0.0829
     130    C2      19.603183   19.751852   23.693861 C.3        1 MOL1        -0.1768
     131    H3      19.537931   20.822758   23.912512 H          1 MOL1         0.0829
     132    H4      19.156668   19.196215   24.527314 H          1 MOL1         0.0829
     133    C3      21.002860   19.242350   23.243207 C.3        1 MOL1         0.1211
     134    H5      21.564027   19.965107   22.642612 H          1 MOL1         0.0786
     135    C4      20.223442   18.197866   22.392001 C.3        1 MOL1        -0.1768
     136    H6      19.917631   17.303328   22.944389 H          1 MOL1         0.0829
     137    H7      20.704087   17.889377   21.457647 H          1 MOL1         0.0829
     138    O1      21.810024   18.719019   24.268877 O.3        1 MOL1        -0.5515
     139    H8      21.260757   18.086346   24.770924 H          1 MOL1         0.3773
@<TRIPOS>BOND
    1     1     2    1
    2     1     3    1
    3     1     4    1
    4     4     5    1
    5     4     6    1
    6     6     7    1
    7     4     8    1
    8     8     9    1
    9     8    10    1
   10    10    11    1
   11     8    12    1
   12    12    13    1
   13    12    14    1
   14    14    15    1
   15     1    16    1
   16    14    16    1
   17    14    17    1
   18    17    18    1
   19    17    19    1
   20    17    20    1
   21    20    21    1
   22    22    23    1
   23    22    24    1
   24    22    25    1
   25    25    26    1
   26    25    27    1
   27    27    28    1
   28    25    29    1
   29    29    30    1
   30    29    31    1
   31    31    32    1
   32     3    33    1
   33    29    33    1
   34    33    34    1
   35    33    35    1
   36    35    36    1
   37    22    37    1
   38    35    37    1
   39    35    38    1
   40    38    39    1
   41    38    40    1
   42    38    41    1
   43    41    42    1
   44    43    44    1
   45    43    45    1
   46    43    46    1
   47    46    47    1
   48    46    48    1
   49    48    49    1
   50    46    50    1
   51    50    51    1
   52    50    52    1
   53    52    53    1
   54    24    54    1
   55    50    54    1
   56    54    55    1
   57    54    56    1
   58    56    57    1
   59    43    58    1
   60    56    58    1
   61    56    59    1
   62    59    60    1
   63    59    61    1
   64    59    62    1
   65    62    63    1
   66    64    65    1
   67    64    66    1
   68    64    67    1
   69    67    68    1
   70    67    69    1
   71    69    70    1
   72    67    71    1
   73    71    72    1
   74    71    73    1
   75    73    74    1
   76    45    75    1
   77    71    75    1
   78    75    76    1
   79    75    77    1
   80    77    78    1
   81    64    79    1
   82    77    79    1
   83    77    80    1
   84    80    81    1
   85    80    82    1
   86    80    83    1
   87    83    84    1
   88    85    86    1
   89    85    87    1
   90    85    88    1
   91    88    89    1
   92    88    90    1
   93    90    91    1
   94    88    92    1
   95    92    93    1
   96    92    94    1
   97    94    95    1
   98    66    96    1
   99    92    96    1
  100    96    97    1
  101    96    98    1
  102    98    99    1
  103    85   100    1
  104    98   100    1
  105    98   101    1
  106   101   102    1
  107   101   103    1
  108   101   104    1
  109   104   105    1
  110   106   107    1
  111    12   108    1
  112   106   108    1
  113   106   109    1
  114   109   110    1
  115   109   111    1
  116   111   112    1
  117   109   113    1
  118   113   114    1
  119   113   115    1
  120   115   116    1
  121    87   117    1
  122   113   117    1
  123   117   118    1
  124   117   119    1
  125   119   120    1
  126   106   121    1
  127   119   121    1
  128   119   122    1
  129   122   123    1
  130   122   124    1
  131   122   125    1
  132   125   126    1
  133   127   128    1
  134   127   129    1
  135   127   130    1
  136   130   131    1
  137   130   132    1
  138   130   133    1
  139   133   134    1
  140   127   135    1
  141   133   135    1
  142   135   136    1
  143   135   137    1
  144   133   138    1
  145   138   139    1
@<TRIPOS>SUBSTRUCTURE
       1 MOL1            1 RESIDUE      1      MOL     
       2 MOL1          139 RESIDUE      1      MOL     
@<SCITEGIC>MOL_PROPERTY
feprocess Rank
SciTegic.value.IntegerValue
67

@<SCITEGIC>MOL_PROPERTY
Conf_Id
SciTegic.value.IntegerValue
154

@<SCITEGIC>MOL_PROPERTY
Probability
SciTegic.value.DoubleValue
0.09

@<SCITEGIC>MOL_PROPERTY
G
SciTegic.value.DoubleValue
548.246

@<SCITEGIC>MOL_PROPERTY
E
SciTegic.value.DoubleValue
371.036

@<SCITEGIC>MOL_PROPERTY
-TS
SciTegic.value.DoubleValue
177.210

@<SCITEGIC>MOL_PROPERTY
U+W
SciTegic.value.DoubleValue
248.525

@<SCITEGIC>MOL_PROPERTY
U
SciTegic.value.DoubleValue
287.029

@<SCITEGIC>MOL_PROPERTY
W
SciTegic.value.DoubleValue
-38.504

@<SCITEGIC>MOL_PROPERTY
W(PB)
SciTegic.value.DoubleValue
-44.437

@<SCITEGIC>MOL_PROPERTY
W(SA)
SciTegic.value.DoubleValue
5.933

@<SCITEGIC>MOL_PROPERTY
Valence
SciTegic.value.DoubleValue
155.094

@<SCITEGIC>MOL_PROPERTY
Coulomb
SciTegic.value.DoubleValue
154.438

@<SCITEGIC>MOL_PROPERTY
VdW
SciTegic.value.DoubleValue
-22.503

@<SCITEGIC>MOL_PROPERTY
VdW6
SciTegic.value.DoubleValue
-168.039

@<SCITEGIC>MOL_PROPERTY
VdW12
SciTegic.value.DoubleValue
145.536

@<SCITEGIC>MOL_PROPERTY
Bond
SciTegic.value.DoubleValue
4.483

@<SCITEGIC>MOL_PROPERTY
Angle
SciTegic.value.DoubleValue
11.581

@<SCITEGIC>MOL_PROPERTY
Pdih
SciTegic.value.DoubleValue
139.030

@<SCITEGIC>MOL_PROPERTY
Idih
SciTegic.value.DoubleValue
0.000

@<SCITEGIC>MOL_PROPERTY
Tether
SciTegic.value.DoubleValue
0.000

@<TRIPOS>MOLECULE
CD_guest-s16_fast_vm2_rndm.mol2 : feprocess host+ligand conformer 68
         139         145           2
SMALL
USER_CHARGES
 
@<TRIPOS>ATOM
       1    C1      16.273654   15.467276   22.039849 C.3        1 MOL1         0.2972
       2    H1      15.195229   15.485031   22.239547 H          1 MOL1         0.0751
       3    O1      16.721866   16.700203   21.443662 O.3        1 MOL1        -0.3740
       4    C2      17.050877   15.254022   23.361182 C.3        1 MOL1         0.1003
       5    H2      16.730008   14.293048   23.783459 H          1 MOL1         0.0783
       6    O2      16.771842   16.309290   24.295007 O.3        1 MOL1        -0.5519
       7    H3      17.091639   17.147213   23.875485 H          1 MOL1         0.3769
       8    C3      18.570986   15.193489   23.105712 C.3        1 MOL1         0.1053
       9    H4      18.877029   16.198949   22.811804 H          1 MOL1         0.0783
      10    O3      19.235928   14.831007   24.318759 O.3        1 MOL1        -0.5519
      11    H5      18.819055   15.390269   25.012023 H          1 MOL1         0.3769
      12    C4      18.963891   14.229308   21.957585 C.3        1 MOL1         0.1018
      13    H6      19.001502   13.204876   22.350859 H          1 MOL1         0.0783
      14    C5      18.002279   14.307988   20.737014 C.3        1 MOL1         0.1043
      15    H7      18.252405   15.221210   20.186766 H          1 MOL1         0.0783
      16    O4      16.612668   14.381770   21.149287 O.3        1 MOL1        -0.3740
      17    C6      18.166644   13.127196   19.751015 C.3        1 MOL1         0.0138
      18    H8      19.142012   13.222130   19.254518 H          1 MOL1         0.0794
      19    H9      17.395366   13.208099   18.973359 H          1 MOL1         0.0794
      20    O5      18.079037   11.857983   20.410396 O.3        1 MOL1        -0.5486
      21    H10     18.123957   11.160021   19.720730 H          1 MOL1         0.3769
      22    C7      15.293949   20.216236   19.819255 C.3        1 MOL1         0.2972
      23    H11     14.806398   21.011633   19.241201 H          1 MOL1         0.0751
      24    O6      16.413798   20.722824   20.574841 O.3        1 MOL1        -0.3740
      25    C8      14.291223   19.527860   20.781678 C.3        1 MOL1         0.1003
      26    H12     13.499323   19.092249   20.158547 H          1 MOL1         0.0783
      27    O7      13.700719   20.466739   21.694288 O.3        1 MOL1        -0.5519
      28    H13     14.437812   20.845763   22.236416 H          1 MOL1         0.3769
      29    C9      14.966069   18.373334   21.564228 C.3        1 MOL1         0.1053
      30    H14     15.669362   18.817790   22.278972 H          1 MOL1         0.0783
      31    O8      13.950758   17.652205   22.269003 O.3        1 MOL1        -0.5519
      32    H15     13.419201   18.337024   22.731075 H          1 MOL1         0.3769
      33    C10     15.765243   17.414165   20.635888 C.3        1 MOL1         0.1018
      34    H16     15.061463   16.731098   20.143865 H          1 MOL1         0.0783
      35    C11     16.597533   18.167146   19.559486 C.3        1 MOL1         0.1043
      36    H17     17.447920   18.640968   20.063519 H          1 MOL1         0.0783
      37    O9      15.789151   19.191384   18.931344 O.3        1 MOL1        -0.3740
      38    C12     17.198384   17.258049   18.456703 C.3        1 MOL1         0.0138
      39    H18     18.159179   16.868812   18.815717 H          1 MOL1         0.0794
      40    H19     17.419977   17.876243   17.576557 H          1 MOL1         0.0794
      41    O10     16.340655   16.169808   18.089384 O.3        1 MOL1        -0.5486
      42    H20     16.244649   15.591437   18.877574 H          1 MOL1         0.3769
      43    C13     18.312963   24.128575   21.896469 C.3        1 MOL1         0.2972
      44    H21     18.630782   25.130043   22.212662 H          1 MOL1         0.0751
      45    O11     19.419265   23.205940   21.820881 O.3        1 MOL1        -0.3740
      46    C14     17.272030   23.553063   22.888615 C.3        1 MOL1         0.1003
      47    H22     16.381526   24.193927   22.849487 H          1 MOL1         0.0783
      48    O12     17.784757   23.536705   24.230013 O.3        1 MOL1        -0.5519
      49    H23     18.767650   23.432879   24.171387 H          1 MOL1         0.3769
      50    C15     16.859750   22.130261   22.450674 C.3        1 MOL1         0.1053
      51    H24     17.749639   21.497990   22.522145 H          1 MOL1         0.0783
      52    O13     15.846453   21.623588   23.324368 O.3        1 MOL1        -0.5519
      53    H25     16.127909   21.904987   24.224646 H          1 MOL1         0.3769
      54    C16     16.372554   22.105023   20.980489 C.3        1 MOL1         0.1018
      55    H26     15.356247   22.518546   20.938349 H          1 MOL1         0.0783
      56    C17     17.315736   22.894588   20.023846 C.3        1 MOL1         0.1043
      57    H27     18.225664   22.297490   19.879724 H          1 MOL1         0.0783
      58    O14     17.683767   24.176751   20.598726 O.3        1 MOL1        -0.3740
      59    C18     16.709864   23.143185   18.621957 C.3        1 MOL1         0.0138
      60    H28     16.680068   22.187935   18.080607 H          1 MOL1         0.0794
      61    H29     17.379240   23.812492   18.065045 H          1 MOL1         0.0794
      62    O15     15.392605   23.702793   18.693393 O.3        1 MOL1        -0.5486
      63    H30     15.107166   23.911854   17.777142 H          1 MOL1         0.3769
      64    C19     23.518610   22.752800   22.034727 C.3        1 MOL1         0.2972
      65    H31     24.606993   22.882324   22.096579 H          1 MOL1         0.0751
      66    O16     23.159312   21.369975   21.849609 O.3        1 MOL1        -0.3740
      67    C20     22.857292   23.244682   23.344026 C.3        1 MOL1         0.1003
      68    H32     23.089249   24.312051   23.454044 H          1 MOL1         0.0783
      69    O17     23.381548   22.523840   24.470787 O.3        1 MOL1        -0.5519
      70    H33     23.789625   21.697029   24.114948 H          1 MOL1         0.3769
      71    C21     21.320777   23.089980   23.270574 C.3        1 MOL1         0.1053
      72    H34     21.091840   22.016844   23.245659 H          1 MOL1         0.0783
      73    O18     20.727179   23.678351   24.430693 O.3        1 MOL1        -0.5519
      74    H35     21.285706   23.373911   25.181243 H          1 MOL1         0.3769
      75    C22     20.744847   23.741385   21.987723 C.3        1 MOL1         0.1018
      76    H36     20.744397   24.831955   22.110503 H          1 MOL1         0.0783
      77    C23     21.545847   23.355979   20.712250 C.3        1 MOL1         0.1043
      78    H37     21.333878   22.303907   20.493474 H          1 MOL1         0.0783
      79    O19     22.971520   23.511301   20.934254 O.3        1 MOL1        -0.3740
      80    C24     21.145656   24.161744   19.452011 C.3        1 MOL1         0.0138
      81    H38     20.157552   23.820372   19.115561 H          1 MOL1         0.0794
      82    H39     21.858325   23.928980   18.649545 H          1 MOL1         0.0794
      83    O20     21.114701   25.574461   19.685601 O.3        1 MOL1        -0.5486
      84    H40     20.249230   25.786339   20.096022 H          1 MOL1         0.3769
      85    C25     24.803080   17.711321   20.701682 C.3        1 MOL1         0.2972
      86    H41     25.442285   16.929635   20.271335 H          1 MOL1         0.0751
      87    O21     23.562796   17.170205   21.203677 O.3        1 MOL1        -0.3740
      88    C26     25.522327   18.425710   21.876889 C.3        1 MOL1         0.1003
      89    H42     26.444178   18.867657   21.477006 H          1 MOL1         0.0783
      90    O22     25.860809   17.497333   22.919520 O.3        1 MOL1        -0.5519
      91    H43     25.063319   16.932838   23.085973 H          1 MOL1         0.3769
      92    C27     24.647342   19.574872   22.437383 C.3        1 MOL1         0.1053
      93    H44     23.755182   19.129666   22.896135 H          1 MOL1         0.0783
      94    O23     25.380578   20.308504   23.423692 O.3        1 MOL1        -0.5519
      95    H45     25.815052   19.624015   23.980297 H          1 MOL1         0.3769
      96    C28     24.188488   20.525223   21.303945 C.3        1 MOL1         0.1018
      97    H46     25.055217   21.101583   20.954232 H          1 MOL1         0.0783
      98    C29     23.578059   19.748714   20.107150 C.3        1 MOL1         0.1043
      99    H47     22.643080   19.292101   20.443463 H          1 MOL1         0.0783
     100    O24     24.496283   18.706610   19.698896 O.3        1 MOL1        -0.3740
     101    C30     23.232254   20.621492   18.872259 C.3        1 MOL1         0.0138
     102    H48     22.197418   20.971028   18.972466 H          1 MOL1         0.0794
     103    H49     23.264193   19.987061   17.976461 H          1 MOL1         0.0794
     104    O25     24.104793   21.746320   18.708008 O.3        1 MOL1        -0.5486
     105    H50     23.871437   22.401439   19.406529 H          1 MOL1         0.3769
     106    C31     21.298489   13.700653   21.345947 C.3        1 MOL1         0.2972
     107    H51     20.897342   12.679709   21.306702 H          1 MOL1         0.0751
     108    O26     20.248687   14.681432   21.477382 O.3        1 MOL1        -0.3740
     109    C32     22.300702   13.869539   22.517605 C.3        1 MOL1         0.1003
     110    H52     23.151338   13.206175   22.313415 H          1 MOL1         0.0783
     111    O27     21.721471   13.498031   23.776834 O.3        1 MOL1        -0.5519
     112    H53     20.890324   14.024976   23.889030 H          1 MOL1         0.3769
     113    C33     22.835209   15.322516   22.559374 C.3        1 MOL1         0.1053
     114    H54     21.995649   15.992546   22.784144 H          1 MOL1         0.0783
     115    O28     23.832522   15.435576   23.579794 O.3        1 MOL1        -0.5519
     116    H55     23.458954   14.959414   24.354821 H          1 MOL1         0.3769
     117    C34     23.435170   15.732928   21.190836 C.3        1 MOL1         0.1018
     118    H56     24.409424   15.237317   21.086663 H          1 MOL1         0.0783
     119    C35     22.516960   15.350643   19.992787 C.3        1 MOL1         0.1043
     120    H57     21.659189   16.034189   19.985652 H          1 MOL1         0.0783
     121    O29     22.028838   13.991308   20.134640 O.3        1 MOL1        -0.3740
     122    C36     23.215310   15.477810   18.617560 C.3        1 MOL1         0.0138
     123    H58     23.357295   16.544119   18.395934 H          1 MOL1         0.0794
     124    H59     22.547197   15.071209   17.846620 H          1 MOL1         0.0794
     125    O30     24.479641   14.803006   18.587890 O.3        1 MOL1        -0.5486
     126    H60     24.832958   14.873425   17.674258 H          1 MOL1         0.3769
     127    C1      20.152752   18.270122   21.526504 C.3        1 MOL1        -0.1693
     128    H1      20.976100   18.038049   20.848271 H          1 MOL1         0.0829
     129    H2      19.321771   17.597401   21.290442 H          1 MOL1         0.0829
     130    C2      19.740663   19.771363   21.642178 C.3        1 MOL1        -0.1768
     131    H3      20.572382   20.473490   21.535571 H          1 MOL1         0.0829
     132    H4      18.925407   20.099371   20.993169 H          1 MOL1         0.0829
     133    C3      19.365478   19.445735   23.124295 C.3        1 MOL1         0.1211
     134    H5      19.541141   20.264199   23.833707 H          1 MOL1         0.0786
     135    C4      20.517546   18.398569   23.045803 C.3        1 MOL1        -0.1768
     136    H6      20.393249   17.507001   23.666877 H          1 MOL1         0.0829
     137    H7      21.512482   18.814056   23.240051 H          1 MOL1         0.0829
     138    O1      18.071193   18.904760   23.324245 O.3        1 MOL1        -0.5515
     139    H8      17.429094   19.627028   23.165078 H          1 MOL1         0.3773
@<TRIPOS>BOND
    1     1     2    1
    2     1     3    1
    3     1     4    1
    4     4     5    1
    5     4     6    1
    6     6     7    1
    7     4     8    1
    8     8     9    1
    9     8    10    1
   10    10    11    1
   11     8    12    1
   12    12    13    1
   13    12    14    1
   14    14    15    1
   15     1    16    1
   16    14    16    1
   17    14    17    1
   18    17    18    1
   19    17    19    1
   20    17    20    1
   21    20    21    1
   22    22    23    1
   23    22    24    1
   24    22    25    1
   25    25    26    1
   26    25    27    1
   27    27    28    1
   28    25    29    1
   29    29    30    1
   30    29    31    1
   31    31    32    1
   32     3    33    1
   33    29    33    1
   34    33    34    1
   35    33    35    1
   36    35    36    1
   37    22    37    1
   38    35    37    1
   39    35    38    1
   40    38    39    1
   41    38    40    1
   42    38    41    1
   43    41    42    1
   44    43    44    1
   45    43    45    1
   46    43    46    1
   47    46    47    1
   48    46    48    1
   49    48    49    1
   50    46    50    1
   51    50    51    1
   52    50    52    1
   53    52    53    1
   54    24    54    1
   55    50    54    1
   56    54    55    1
   57    54    56    1
   58    56    57    1
   59    43    58    1
   60    56    58    1
   61    56    59    1
   62    59    60    1
   63    59    61    1
   64    59    62    1
   65    62    63    1
   66    64    65    1
   67    64    66    1
   68    64    67    1
   69    67    68    1
   70    67    69    1
   71    69    70    1
   72    67    71    1
   73    71    72    1
   74    71    73    1
   75    73    74    1
   76    45    75    1
   77    71    75    1
   78    75    76    1
   79    75    77    1
   80    77    78    1
   81    64    79    1
   82    77    79    1
   83    77    80    1
   84    80    81    1
   85    80    82    1
   86    80    83    1
   87    83    84    1
   88    85    86    1
   89    85    87    1
   90    85    88    1
   91    88    89    1
   92    88    90    1
   93    90    91    1
   94    88    92    1
   95    92    93    1
   96    92    94    1
   97    94    95    1
   98    66    96    1
   99    92    96    1
  100    96    97    1
  101    96    98    1
  102    98    99    1
  103    85   100    1
  104    98   100    1
  105    98   101    1
  106   101   102    1
  107   101   103    1
  108   101   104    1
  109   104   105    1
  110   106   107    1
  111    12   108    1
  112   106   108    1
  113   106   109    1
  114   109   110    1
  115   109   111    1
  116   111   112    1
  117   109   113    1
  118   113   114    1
  119   113   115    1
  120   115   116    1
  121    87   117    1
  122   113   117    1
  123   117   118    1
  124   117   119    1
  125   119   120    1
  126   106   121    1
  127   119   121    1
  128   119   122    1
  129   122   123    1
  130   122   124    1
  131   122   125    1
  132   125   126    1
  133   127   128    1
  134   127   129    1
  135   127   130    1
  136   130   131    1
  137   130   132    1
  138   130   133    1
  139   133   134    1
  140   127   135    1
  141   133   135    1
  142   135   136    1
  143   135   137    1
  144   133   138    1
  145   138   139    1
@<TRIPOS>SUBSTRUCTURE
       1 MOL1            1 RESIDUE      1      MOL     
       2 MOL1          139 RESIDUE      1      MOL     
@<SCITEGIC>MOL_PROPERTY
feprocess Rank
SciTegic.value.IntegerValue
68

@<SCITEGIC>MOL_PROPERTY
Conf_Id
SciTegic.value.IntegerValue
638

@<SCITEGIC>MOL_PROPERTY
Probability
SciTegic.value.DoubleValue
0.08

@<SCITEGIC>MOL_PROPERTY
G
SciTegic.value.DoubleValue
548.309

@<SCITEGIC>MOL_PROPERTY
E
SciTegic.value.DoubleValue
369.332

@<SCITEGIC>MOL_PROPERTY
-TS
SciTegic.value.DoubleValue
178.977

@<SCITEGIC>MOL_PROPERTY
U+W
SciTegic.value.DoubleValue
246.821

@<SCITEGIC>MOL_PROPERTY
U
SciTegic.value.DoubleValue
285.062

@<SCITEGIC>MOL_PROPERTY
W
SciTegic.value.DoubleValue
-38.241

@<SCITEGIC>MOL_PROPERTY
W(PB)
SciTegic.value.DoubleValue
-44.242

@<SCITEGIC>MOL_PROPERTY
W(SA)
SciTegic.value.DoubleValue
6.001

@<SCITEGIC>MOL_PROPERTY
Valence
SciTegic.value.DoubleValue
152.359

@<SCITEGIC>MOL_PROPERTY
Coulomb
SciTegic.value.DoubleValue
154.171

@<SCITEGIC>MOL_PROPERTY
VdW
SciTegic.value.DoubleValue
-21.469

@<SCITEGIC>MOL_PROPERTY
VdW6
SciTegic.value.DoubleValue
-170.388

@<SCITEGIC>MOL_PROPERTY
VdW12
SciTegic.value.DoubleValue
148.919

@<SCITEGIC>MOL_PROPERTY
Bond
SciTegic.value.DoubleValue
4.724

@<SCITEGIC>MOL_PROPERTY
Angle
SciTegic.value.DoubleValue
12.924

@<SCITEGIC>MOL_PROPERTY
Pdih
SciTegic.value.DoubleValue
134.711

@<SCITEGIC>MOL_PROPERTY
Idih
SciTegic.value.DoubleValue
0.000

@<SCITEGIC>MOL_PROPERTY
Tether
SciTegic.value.DoubleValue
0.000

@<TRIPOS>MOLECULE
CD_guest-s16_fast_vm2_rndm.mol2 : feprocess host+ligand conformer 69
         139         145           2
SMALL
USER_CHARGES
 
@<TRIPOS>ATOM
       1    C1      16.188987   15.340713   22.002937 C.3        1 MOL1         0.2972
       2    H1      15.123975   15.282817   22.262755 H          1 MOL1         0.0751
       3    O1      16.549540   16.666601   21.567851 O.3        1 MOL1        -0.3740
       4    C2      17.049639   14.961986   23.232243 C.3        1 MOL1         0.1003
       5    H2      16.799740   13.927885   23.502672 H          1 MOL1         0.0783
       6    O2      16.770874   15.826492   24.345998 O.3        1 MOL1        -0.5519
       7    H3      16.918189   16.757116   24.044762 H          1 MOL1         0.3769
       8    C3      18.552501   15.020774   22.891353 C.3        1 MOL1         0.1053
       9    H4      18.800637   16.070796   22.727927 H          1 MOL1         0.0783
      10    O3      19.313581   14.517165   23.993270 O.3        1 MOL1        -0.5519
      11    H5      18.900097   14.916026   24.791583 H          1 MOL1         0.3769
      12    C4      18.917010   14.265564   21.591112 C.3        1 MOL1         0.1018
      13    H6      19.043852   13.198312   21.816089 H          1 MOL1         0.0783
      14    C5      17.879515   14.469947   20.449298 C.3        1 MOL1         0.1043
      15    H7      18.062259   15.465231   20.031190 H          1 MOL1         0.0783
      16    O4      16.513115   14.418250   20.939642 O.3        1 MOL1        -0.3740
      17    C6      18.028986   13.457403   19.289032 C.3        1 MOL1         0.0138
      18    H8      18.957968   13.681783   18.747670 H          1 MOL1         0.0794
      19    H9      17.199059   13.603193   18.584572 H          1 MOL1         0.0794
      20    O5      18.053408   12.103489   19.756364 O.3        1 MOL1        -0.5486
      21    H10     18.068661   11.516045   18.969237 H          1 MOL1         0.3769
      22    C7      14.971520   20.230837   20.227830 C.3        1 MOL1         0.2972
      23    H11     14.423106   21.055579   19.754839 H          1 MOL1         0.0751
      24    O6      16.222652   20.679389   20.789427 O.3        1 MOL1        -0.3740
      25    C8      14.121938   19.549790   21.332087 C.3        1 MOL1         0.1003
      26    H12     13.230197   19.137291   20.842418 H          1 MOL1         0.0783
      27    O7      13.708368   20.485522   22.339799 O.3        1 MOL1        -0.5519
      28    H13     14.531243   20.822917   22.775419 H          1 MOL1         0.3769
      29    C9      14.897213   18.374247   21.975716 C.3        1 MOL1         0.1053
      30    H14     15.723855   18.798442   22.557519 H          1 MOL1         0.0783
      31    O8      14.012990   17.653824   22.839891 O.3        1 MOL1        -0.5519
      32    H15     13.594296   18.334401   23.410809 H          1 MOL1         0.3769
      33    C10     15.501687   17.413193   20.915962 C.3        1 MOL1         0.1018
      34    H16     14.700258   16.758742   20.549816 H          1 MOL1         0.0783
      35    C11     16.150850   18.152755   19.709178 C.3        1 MOL1         0.1043
      36    H17     17.096817   18.593213   20.047124 H          1 MOL1         0.0783
      37    O9      15.272543   19.210505   19.252035 O.3        1 MOL1        -0.3740
      38    C12     16.497139   17.246563   18.497460 C.3        1 MOL1         0.0138
      39    H18     17.540382   16.922313   18.592543 H          1 MOL1         0.0794
      40    H19     16.444611   17.851822   17.582548 H          1 MOL1         0.0794
      41    O10     15.642390   16.101910   18.374126 O.3        1 MOL1        -0.5486
      42    H20     15.792797   15.532603   19.163470 H          1 MOL1         0.3769
      43    C13     18.453085   23.938240   21.915530 C.3        1 MOL1         0.2972
      44    H21     18.862599   24.911363   22.216547 H          1 MOL1         0.0751
      45    O11     19.494436   22.980659   21.642549 O.3        1 MOL1        -0.3740
      46    C14     17.558877   23.367306   23.040655 C.3        1 MOL1         0.1003
      47    H22     16.712713   24.053221   23.177595 H          1 MOL1         0.0783
      48    O12     18.292277   23.259658   24.271624 O.3        1 MOL1        -0.5519
      49    H23     19.241131   23.440704   24.060157 H          1 MOL1         0.3769
      50    C15     17.005358   21.987621   22.624188 C.3        1 MOL1         0.1053
      51    H24     17.857346   21.308730   22.529268 H          1 MOL1         0.0783
      52    O13     16.121400   21.498333   23.636792 O.3        1 MOL1        -0.5519
      53    H25     16.531911   21.784416   24.485234 H          1 MOL1         0.3769
      54    C16     16.297571   22.043220   21.247307 C.3        1 MOL1         0.1018
      55    H26     15.305455   22.496648   21.372960 H          1 MOL1         0.0783
      56    C17     17.121496   22.825373   20.181596 C.3        1 MOL1         0.1043
      57    H27     17.962771   22.187454   19.883243 H          1 MOL1         0.0783
      58    O14     17.645662   24.065469   20.726310 O.3        1 MOL1        -0.3740
      59    C18     16.322802   23.152725   18.897617 C.3        1 MOL1         0.0138
      60    H28     16.155268   22.219262   18.343526 H          1 MOL1         0.0794
      61    H29     16.935245   23.804391   18.259909 H          1 MOL1         0.0794
      62    O15     15.066611   23.777384   19.188676 O.3        1 MOL1        -0.5486
      63    H30     14.654661   24.031532   18.334012 H          1 MOL1         0.3769
      64    C19     23.636166   22.777657   21.259108 C.3        1 MOL1         0.2972
      65    H31     24.693693   22.984218   21.050007 H          1 MOL1         0.0751
      66    O16     23.413562   21.394981   21.596443 O.3        1 MOL1        -0.3740
      67    C20     23.126703   23.628461   22.452636 C.3        1 MOL1         0.1003
      68    H32     23.231965   24.684818   22.173177 H          1 MOL1         0.0783
      69    O17     23.899160   23.376347   23.637237 O.3        1 MOL1        -0.5519
      70    H33     24.016152   22.395356   23.713535 H          1 MOL1         0.3769
      71    C21     21.624796   23.349819   22.714983 C.3        1 MOL1         0.1053
      72    H34     21.521085   22.308219   23.048145 H          1 MOL1         0.0783
      73    O18     21.139033   24.231630   23.732478 O.3        1 MOL1        -0.5519
      74    H35     21.841703   24.236089   24.420965 H          1 MOL1         0.3769
      75    C22     20.802578   23.528459   21.414366 C.3        1 MOL1         0.1018
      76    H36     20.762142   24.597102   21.165370 H          1 MOL1         0.0783
      77    C23     21.419245   22.753897   20.218982 C.3        1 MOL1         0.1043
      78    H37     21.326387   21.679555   20.416989 H          1 MOL1         0.0783
      79    O19     22.822013   23.098044   20.106701 O.3        1 MOL1        -0.3740
      80    C24     20.718692   23.015366   18.859463 C.3        1 MOL1         0.0138
      81    H38     19.913169   22.279642   18.740077 H          1 MOL1         0.0794
      82    H39     21.439340   22.830168   18.051810 H          1 MOL1         0.0794
      83    O20     20.176289   24.337247   18.743539 O.3        1 MOL1        -0.5486
      84    H40     19.406501   24.391600   19.355389 H          1 MOL1         0.3769
      85    C25     25.052593   17.634361   21.738633 C.3        1 MOL1         0.2972
      86    H41     25.686493   16.738652   21.768006 H          1 MOL1         0.0751
      87    O21     23.655562   17.293873   21.640240 O.3        1 MOL1        -0.3740
      88    C26     25.262236   18.463881   23.027350 C.3        1 MOL1         0.1003
      89    H42     26.315588   18.771721   23.056595 H          1 MOL1         0.0783
      90    O22     24.964766   17.671417   24.188359 O.3        1 MOL1        -0.5519
      91    H43     24.394913   16.921593   23.886204 H          1 MOL1         0.3769
      92    C27     24.389866   19.739282   23.005128 C.3        1 MOL1         0.1053
      93    H44     23.341811   19.428021   23.078688 H          1 MOL1         0.0783
      94    O23     24.718126   20.563442   24.127602 O.3        1 MOL1        -0.5519
      95    H45     24.750442   19.946070   24.892421 H          1 MOL1         0.3769
      96    C28     24.567682   20.539864   21.690306 C.3        1 MOL1         0.1018
      97    H46     25.504689   21.109016   21.750399 H          1 MOL1         0.0783
      98    C29     24.561815   19.640633   20.420836 C.3        1 MOL1         0.1043
      99    H47     23.526066   19.322962   20.248102 H          1 MOL1         0.0783
     100    O24     25.390950   18.464006   20.608440 O.3        1 MOL1        -0.3740
     101    C30     25.035010   20.374721   19.143675 C.3        1 MOL1         0.0138
     102    H48     24.271009   21.111340   18.860936 H          1 MOL1         0.0794
     103    H49     25.104100   19.646105   18.324722 H          1 MOL1         0.0794
     104    O25     26.294595   21.030669   19.335144 O.3        1 MOL1        -0.5486
     105    H50     26.559457   21.423755   18.475019 H          1 MOL1         0.3769
     106    C31     21.206652   14.029858   20.690771 C.3        1 MOL1         0.2972
     107    H51     20.823319   13.075368   20.307654 H          1 MOL1         0.0751
     108    O26     20.138320   14.884971   21.139250 O.3        1 MOL1        -0.3740
     109    C32     22.210590   13.809642   21.857844 C.3        1 MOL1         0.1003
     110    H52     23.043308   13.217301   21.456784 H          1 MOL1         0.0783
     111    O27     21.616534   13.089274   22.948269 O.3        1 MOL1        -0.5519
     112    H53     20.847143   13.623843   23.269890 H          1 MOL1         0.3769
     113    C33     22.786299   15.162101   22.349170 C.3        1 MOL1         0.1053
     114    H54     21.967732   15.745221   22.793663 H          1 MOL1         0.0783
     115    O28     23.804349   14.928729   23.328232 O.3        1 MOL1        -0.5519
     116    H55     23.438097   14.233566   23.919454 H          1 MOL1         0.3769
     117    C34     23.370616   15.966591   21.162417 C.3        1 MOL1         0.1018
     118    H56     24.274441   15.455570   20.804968 H          1 MOL1         0.0783
     119    C35     22.359411   16.077185   19.989746 C.3        1 MOL1         0.1043
     120    H57     21.505571   16.681268   20.324074 H          1 MOL1         0.0783
     121    O29     21.905344   14.743045   19.643805 O.3        1 MOL1        -0.3740
     122    C36     22.920041   16.759599   18.714408 C.3        1 MOL1         0.0138
     123    H58     22.739476   17.838985   18.790425 H          1 MOL1         0.0794
     124    H59     22.346970   16.404148   17.847699 H          1 MOL1         0.0794
     125    O30     24.318384   16.522039   18.509984 O.3        1 MOL1        -0.5486
     126    H60     24.805679   17.077314   19.162672 H          1 MOL1         0.3769
     127    C1      20.721038   19.156580   22.430188 C.3        1 MOL1        -0.1693
     128    H1      21.413630   18.320586   22.584971 H          1 MOL1         0.0829
     129    H2      21.191820   19.884580   21.763554 H          1 MOL1         0.0829
     130    C2      20.083967   19.726398   23.741321 C.3        1 MOL1        -0.1768
     131    H3      20.719324   19.699967   24.633151 H          1 MOL1         0.0829
     132    H4      19.655707   20.729770   23.649307 H          1 MOL1         0.0829
     133    C3      19.073375   18.549377   23.597274 C.3        1 MOL1         0.1211
     134    H5      19.468166   17.608294   24.000672 H          1 MOL1         0.0786
     135    C4      19.270121   18.721036   22.058071 C.3        1 MOL1        -0.1768
     136    H6      18.663113   19.504551   21.593724 H          1 MOL1         0.0829
     137    H7      19.185647   17.814670   21.450562 H          1 MOL1         0.0829
     138    O1      17.766512   18.766453   24.075703 O.3        1 MOL1        -0.5515
     139    H8      17.474948   19.649581   23.766496 H          1 MOL1         0.3773
@<TRIPOS>BOND
    1     1     2    1
    2     1     3    1
    3     1     4    1
    4     4     5    1
    5     4     6    1
    6     6     7    1
    7     4     8    1
    8     8     9    1
    9     8    10    1
   10    10    11    1
   11     8    12    1
   12    12    13    1
   13    12    14    1
   14    14    15    1
   15     1    16    1
   16    14    16    1
   17    14    17    1
   18    17    18    1
   19    17    19    1
   20    17    20    1
   21    20    21    1
   22    22    23    1
   23    22    24    1
   24    22    25    1
   25    25    26    1
   26    25    27    1
   27    27    28    1
   28    25    29    1
   29    29    30    1
   30    29    31    1
   31    31    32    1
   32     3    33    1
   33    29    33    1
   34    33    34    1
   35    33    35    1
   36    35    36    1
   37    22    37    1
   38    35    37    1
   39    35    38    1
   40    38    39    1
   41    38    40    1
   42    38    41    1
   43    41    42    1
   44    43    44    1
   45    43    45    1
   46    43    46    1
   47    46    47    1
   48    46    48    1
   49    48    49    1
   50    46    50    1
   51    50    51    1
   52    50    52    1
   53    52    53    1
   54    24    54    1
   55    50    54    1
   56    54    55    1
   57    54    56    1
   58    56    57    1
   59    43    58    1
   60    56    58    1
   61    56    59    1
   62    59    60    1
   63    59    61    1
   64    59    62    1
   65    62    63    1
   66    64    65    1
   67    64    66    1
   68    64    67    1
   69    67    68    1
   70    67    69    1
   71    69    70    1
   72    67    71    1
   73    71    72    1
   74    71    73    1
   75    73    74    1
   76    45    75    1
   77    71    75    1
   78    75    76    1
   79    75    77    1
   80    77    78    1
   81    64    79    1
   82    77    79    1
   83    77    80    1
   84    80    81    1
   85    80    82    1
   86    80    83    1
   87    83    84    1
   88    85    86    1
   89    85    87    1
   90    85    88    1
   91    88    89    1
   92    88    90    1
   93    90    91    1
   94    88    92    1
   95    92    93    1
   96    92    94    1
   97    94    95    1
   98    66    96    1
   99    92    96    1
  100    96    97    1
  101    96    98    1
  102    98    99    1
  103    85   100    1
  104    98   100    1
  105    98   101    1
  106   101   102    1
  107   101   103    1
  108   101   104    1
  109   104   105    1
  110   106   107    1
  111    12   108    1
  112   106   108    1
  113   106   109    1
  114   109   110    1
  115   109   111    1
  116   111   112    1
  117   109   113    1
  118   113   114    1
  119   113   115    1
  120   115   116    1
  121    87   117    1
  122   113   117    1
  123   117   118    1
  124   117   119    1
  125   119   120    1
  126   106   121    1
  127   119   121    1
  128   119   122    1
  129   122   123    1
  130   122   124    1
  131   122   125    1
  132   125   126    1
  133   127   128    1
  134   127   129    1
  135   127   130    1
  136   130   131    1
  137   130   132    1
  138   130   133    1
  139   133   134    1
  140   127   135    1
  141   133   135    1
  142   135   136    1
  143   135   137    1
  144   133   138    1
  145   138   139    1
@<TRIPOS>SUBSTRUCTURE
       1 MOL1            1 RESIDUE      1      MOL     
       2 MOL1          139 RESIDUE      1      MOL     
@<SCITEGIC>MOL_PROPERTY
feprocess Rank
SciTegic.value.IntegerValue
69

@<SCITEGIC>MOL_PROPERTY
Conf_Id
SciTegic.value.IntegerValue
264

@<SCITEGIC>MOL_PROPERTY
Probability
SciTegic.value.DoubleValue
0.08

@<SCITEGIC>MOL_PROPERTY
G
SciTegic.value.DoubleValue
548.310

@<SCITEGIC>MOL_PROPERTY
E
SciTegic.value.DoubleValue
369.116

@<SCITEGIC>MOL_PROPERTY
-TS
SciTegic.value.DoubleValue
179.194

@<SCITEGIC>MOL_PROPERTY
U+W
SciTegic.value.DoubleValue
246.605

@<SCITEGIC>MOL_PROPERTY
U
SciTegic.value.DoubleValue
283.117

@<SCITEGIC>MOL_PROPERTY
W
SciTegic.value.DoubleValue
-36.512

@<SCITEGIC>MOL_PROPERTY
W(PB)
SciTegic.value.DoubleValue
-42.507

@<SCITEGIC>MOL_PROPERTY
W(SA)
SciTegic.value.DoubleValue
5.995

@<SCITEGIC>MOL_PROPERTY
Valence
SciTegic.value.DoubleValue
153.372

@<SCITEGIC>MOL_PROPERTY
Coulomb
SciTegic.value.DoubleValue
150.485

@<SCITEGIC>MOL_PROPERTY
VdW
SciTegic.value.DoubleValue
-20.740

@<SCITEGIC>MOL_PROPERTY
VdW6
SciTegic.value.DoubleValue
-168.853

@<SCITEGIC>MOL_PROPERTY
VdW12
SciTegic.value.DoubleValue
148.113

@<SCITEGIC>MOL_PROPERTY
Bond
SciTegic.value.DoubleValue
4.716

@<SCITEGIC>MOL_PROPERTY
Angle
SciTegic.value.DoubleValue
13.092

@<SCITEGIC>MOL_PROPERTY
Pdih
SciTegic.value.DoubleValue
135.564

@<SCITEGIC>MOL_PROPERTY
Idih
SciTegic.value.DoubleValue
0.000

@<SCITEGIC>MOL_PROPERTY
Tether
SciTegic.value.DoubleValue
0.000

@<TRIPOS>MOLECULE
CD_guest-s16_fast_vm2_rndm.mol2 : feprocess host+ligand conformer 70
         139         145           2
SMALL
USER_CHARGES
 
@<TRIPOS>ATOM
       1    C1      16.043793   15.065109   21.420340 C.3        1 MOL1         0.2972
       2    H1      14.960588   14.933708   21.300656 H          1 MOL1         0.0751
       3    O1      16.401105   16.457291   21.495081 O.3        1 MOL1        -0.3740
       4    C2      16.512154   14.373558   22.721438 C.3        1 MOL1         0.1003
       5    H2      16.277840   13.304615   22.634112 H          1 MOL1         0.0783
       6    O2      15.817565   14.925316   23.851250 O.3        1 MOL1        -0.5519
       7    H3      15.564498   15.846660   23.602221 H          1 MOL1         0.3769
       8    C3      18.040567   14.517686   22.902567 C.3        1 MOL1         0.1053
       9    H4      18.253215   15.575238   23.101114 H          1 MOL1         0.0783
      10    O3      18.465539   13.728026   24.019024 O.3        1 MOL1        -0.5519
      11    H5      17.833929   13.944891   24.740160 H          1 MOL1         0.3769
      12    C4      18.822629   14.092128   21.633235 C.3        1 MOL1         0.1018
      13    H6      18.845729   12.994992   21.600649 H          1 MOL1         0.0783
      14    C5      18.198537   14.655739   20.319189 C.3        1 MOL1         0.1043
      15    H7      18.432993   15.726876   20.277966 H          1 MOL1         0.0783
      16    O4      16.757594   14.476567   20.317315 O.3        1 MOL1        -0.3740
      17    C6      18.728561   14.007069   19.016356 C.3        1 MOL1         0.0138
      18    H8      19.723443   14.408341   18.793320 H          1 MOL1         0.0794
      19    H9      18.075553   14.309561   18.186619 H          1 MOL1         0.0794
      20    O5      18.781797   12.577691   19.105092 O.3        1 MOL1        -0.5486
      21    H10     19.066757   12.235830   18.229794 H          1 MOL1         0.3769
      22    C7      15.043409   20.248812   20.405450 C.3        1 MOL1         0.2972
      23    H11     14.494644   21.091362   19.965382 H          1 MOL1         0.0751
      24    O6      16.257128   20.682578   21.049497 O.3        1 MOL1        -0.3740
      25    C8      14.173099   19.501807   21.451013 C.3        1 MOL1         0.1003
      26    H12     13.276866   19.139809   20.930677 H          1 MOL1         0.0783
      27    O7      13.775849   20.375302   22.520211 O.3        1 MOL1        -0.5519
      28    H13     14.599831   20.782177   22.890949 H          1 MOL1         0.3769
      29    C9      14.927818   18.272491   22.014616 C.3        1 MOL1         0.1053
      30    H14     15.774848   18.641175   22.607995 H          1 MOL1         0.0783
      31    O8      14.051730   17.509162   22.850820 O.3        1 MOL1        -0.5519
      32    H15     13.595133   18.170189   23.417323 H          1 MOL1         0.3769
      33    C10     15.482524   17.378196   20.876505 C.3        1 MOL1         0.1018
      34    H16     14.639916   16.862113   20.397745 H          1 MOL1         0.0783
      35    C11     16.249415   18.205239   19.805219 C.3        1 MOL1         0.1043
      36    H17     17.162645   18.603464   20.262637 H          1 MOL1         0.0783
      37    O9      15.407578   19.303502   19.376653 O.3        1 MOL1        -0.3740
      38    C12     16.691192   17.415820   18.545922 C.3        1 MOL1         0.0138
      39    H18     17.699898   17.021376   18.717466 H          1 MOL1         0.0794
      40    H19     16.772010   18.118827   17.706234 H          1 MOL1         0.0794
      41    O10     15.801756   16.345992   18.203909 O.3        1 MOL1        -0.5486
      42    H20     15.968268   15.617293   18.846652 H          1 MOL1         0.3769
      43    C13     18.514172   24.018833   21.895701 C.3        1 MOL1         0.2972
      44    H21     18.906747   25.021230   22.111301 H          1 MOL1         0.0751
      45    O11     19.574907   23.055395   21.748209 O.3        1 MOL1        -0.3740
      46    C14     17.594293   23.559728   23.051650 C.3        1 MOL1         0.1003
      47    H22     16.761294   24.271960   23.115317 H          1 MOL1         0.0783
      48    O12     18.314718   23.555590   24.294896 O.3        1 MOL1        -0.5519
      49    H23     19.272958   23.641787   24.070076 H          1 MOL1         0.3769
      50    C15     17.009314   22.159078   22.762841 C.3        1 MOL1         0.1053
      51    H24     17.834398   21.437789   22.800707 H          1 MOL1         0.0783
      52    O13     16.040276   21.829979   23.763405 O.3        1 MOL1        -0.5519
      53    H25     16.471588   22.059948   24.616740 H          1 MOL1         0.3769
      54    C16     16.361873   22.084849   21.357764 C.3        1 MOL1         0.1018
      55    H26     15.379081   22.573309   21.399433 H          1 MOL1         0.0783
      56    C17     17.239559   22.731895   20.247066 C.3        1 MOL1         0.1043
      57    H27     18.084937   22.058606   20.061350 H          1 MOL1         0.0783
      58    O14     17.747521   24.022183   20.674235 O.3        1 MOL1        -0.3740
      59    C18     16.504093   22.920754   18.898736 C.3        1 MOL1         0.0138
      60    H28     16.354112   21.933685   18.440792 H          1 MOL1         0.0794
      61    H29     17.151230   23.496804   18.223594 H          1 MOL1         0.0794
      62    O15     15.241816   23.579012   19.061113 O.3        1 MOL1        -0.5486
      63    H30     14.873296   23.742511   18.165522 H          1 MOL1         0.3769
      64    C19     23.699667   22.886664   21.260981 C.3        1 MOL1         0.2972
      65    H31     24.752846   23.090264   21.030500 H          1 MOL1         0.0751
      66    O16     23.496288   21.529850   21.695222 O.3        1 MOL1        -0.3740
      67    C20     23.214734   23.799839   22.415648 C.3        1 MOL1         0.1003
      68    H32     23.326068   24.841375   22.087195 H          1 MOL1         0.0783
      69    O17     24.009670   23.581435   23.592673 O.3        1 MOL1        -0.5519
      70    H33     24.196389   22.610509   23.639769 H          1 MOL1         0.3769
      71    C21     21.717569   23.547474   22.724002 C.3        1 MOL1         0.1053
      72    H34     21.622761   22.541405   23.151580 H          1 MOL1         0.0783
      73    O18     21.247448   24.510845   23.672298 O.3        1 MOL1        -0.5519
      74    H35     21.946548   24.552570   24.362723 H          1 MOL1         0.3769
      75    C22     20.863415   23.611607   21.433160 C.3        1 MOL1         0.1018
      76    H36     20.793289   24.659862   21.113769 H          1 MOL1         0.0783
      77    C23     21.466454   22.773281   20.272840 C.3        1 MOL1         0.1043
      78    H37     21.393649   21.711911   20.537404 H          1 MOL1         0.0783
      79    O19     22.862008   23.128068   20.108321 O.3        1 MOL1        -0.3740
      80    C24     20.738519   22.940920   18.912791 C.3        1 MOL1         0.0138
      81    H38     19.943908   22.187231   18.849172 H          1 MOL1         0.0794
      82    H39     21.449172   22.719839   18.105285 H          1 MOL1         0.0794
      83    O20     20.173491   24.244554   18.725928 O.3        1 MOL1        -0.5486
      84    H40     19.401278   24.319864   19.333429 H          1 MOL1         0.3769
      85    C25     25.058619   17.693802   21.548526 C.3        1 MOL1         0.2972
      86    H41     25.710461   16.816252   21.449728 H          1 MOL1         0.0751
      87    O21     23.689685   17.310976   21.787870 O.3        1 MOL1        -0.3740
      88    C26     25.534611   18.561201   22.739360 C.3        1 MOL1         0.1003
      89    H42     26.569544   18.865387   22.535694 H          1 MOL1         0.0783
      90    O22     25.492626   17.801162   23.957738 O.3        1 MOL1        -0.5519
      91    H43     24.824732   17.083875   23.823473 H          1 MOL1         0.3769
      92    C27     24.676294   19.840593   22.869443 C.3        1 MOL1         0.1053
      93    H44     23.664117   19.538013   23.168799 H          1 MOL1         0.0783
      94    O23     25.235151   20.698967   23.869955 O.3        1 MOL1        -0.5519
      95    H45     25.425483   20.108870   24.633022 H          1 MOL1         0.3769
      96    C28     24.578971   20.599824   21.523387 C.3        1 MOL1         0.1018
      97    H46     25.535786   21.103493   21.333994 H          1 MOL1         0.0783
      98    C29     24.222195   19.654467   20.341609 C.3        1 MOL1         0.1043
      99    H47     23.186031   19.324051   20.483017 H          1 MOL1         0.0783
     100    O24     25.097392   18.497320   20.350202 O.3        1 MOL1        -0.3740
     101    C30     24.300518   20.310716   18.941244 C.3        1 MOL1         0.0138
     102    H48     23.416338   20.944496   18.796991 H          1 MOL1         0.0794
     103    H49     24.250719   19.517341   18.183502 H          1 MOL1         0.0794
     104    O25     25.490648   21.086050   18.758772 O.3        1 MOL1        -0.5486
     105    H50     25.271899   22.015605   18.982770 H          1 MOL1         0.3769
     106    C31     21.239817   13.915482   21.225713 C.3        1 MOL1         0.2972
     107    H51     20.926199   12.913107   20.906660 H          1 MOL1         0.0751
     108    O26     20.144361   14.646929   21.807550 O.3        1 MOL1        -0.3740
     109    C32     22.344644   13.811395   22.311290 C.3        1 MOL1         0.1003
     110    H52     23.156957   13.199467   21.898116 H          1 MOL1         0.0783
     111    O27     21.822380   13.178347   23.490730 O.3        1 MOL1        -0.5519
     112    H53     20.916806   13.548390   23.627940 H          1 MOL1         0.3769
     113    C33     22.926936   15.203871   22.667469 C.3        1 MOL1         0.1053
     114    H54     22.146465   15.783499   23.179879 H          1 MOL1         0.0783
     115    O28     24.060337   15.045076   23.528172 O.3        1 MOL1        -0.5519
     116    H55     23.774092   14.401573   24.214036 H          1 MOL1         0.3769
     117    C34     23.335906   15.972796   21.389108 C.3        1 MOL1         0.1018
     118    H56     24.179031   15.449744   20.918507 H          1 MOL1         0.0783
     119    C35     22.155733   16.027923   20.384066 C.3        1 MOL1         0.1043
     120    H57     21.320783   16.571698   20.844589 H          1 MOL1         0.0783
     121    O29     21.756244   14.666156   20.104276 O.3        1 MOL1        -0.3740
     122    C36     22.470717   16.725140   19.036698 C.3        1 MOL1         0.0138
     123    H58     22.304924   17.802304   19.155166 H          1 MOL1         0.0794
     124    H59     21.747250   16.376572   18.287913 H          1 MOL1         0.0794
     125    O30     23.807066   16.488894   18.577641 O.3        1 MOL1        -0.5486
     126    H60     24.399794   17.073032   19.105710 H          1 MOL1         0.3769
     127    C1      19.837486   19.095607   23.526534 C.3        1 MOL1        -0.1693
     128    H1      19.265360   19.942805   23.925362 H          1 MOL1         0.0829
     129    H2      20.260680   18.531243   24.365668 H          1 MOL1         0.0829
     130    C2      20.828372   19.457451   22.376733 C.3        1 MOL1        -0.1768
     131    H3      21.615961   18.717119   22.212262 H          1 MOL1         0.0829
     132    H4      21.278950   20.448490   22.440932 H          1 MOL1         0.0829
     133    C3      19.604575   19.318371   21.424718 C.3        1 MOL1         0.1211
     134    H5      18.975728   20.215179   21.370480 H          1 MOL1         0.0786
     135    C4      19.096271   18.253973   22.440402 C.3        1 MOL1        -0.1768
     136    H6      19.505765   17.251381   22.279521 H          1 MOL1         0.0829
     137    H7      18.013120   18.182729   22.558528 H          1 MOL1         0.0829
     138    O1      19.890497   18.830696   20.132638 O.3        1 MOL1        -0.5515
     139    H8      20.263813   19.569576   19.617183 H          1 MOL1         0.3773
@<TRIPOS>BOND
    1     1     2    1
    2     1     3    1
    3     1     4    1
    4     4     5    1
    5     4     6    1
    6     6     7    1
    7     4     8    1
    8     8     9    1
    9     8    10    1
   10    10    11    1
   11     8    12    1
   12    12    13    1
   13    12    14    1
   14    14    15    1
   15     1    16    1
   16    14    16    1
   17    14    17    1
   18    17    18    1
   19    17    19    1
   20    17    20    1
   21    20    21    1
   22    22    23    1
   23    22    24    1
   24    22    25    1
   25    25    26    1
   26    25    27    1
   27    27    28    1
   28    25    29    1
   29    29    30    1
   30    29    31    1
   31    31    32    1
   32     3    33    1
   33    29    33    1
   34    33    34    1
   35    33    35    1
   36    35    36    1
   37    22    37    1
   38    35    37    1
   39    35    38    1
   40    38    39    1
   41    38    40    1
   42    38    41    1
   43    41    42    1
   44    43    44    1
   45    43    45    1
   46    43    46    1
   47    46    47    1
   48    46    48    1
   49    48    49    1
   50    46    50    1
   51    50    51    1
   52    50    52    1
   53    52    53    1
   54    24    54    1
   55    50    54    1
   56    54    55    1
   57    54    56    1
   58    56    57    1
   59    43    58    1
   60    56    58    1
   61    56    59    1
   62    59    60    1
   63    59    61    1
   64    59    62    1
   65    62    63    1
   66    64    65    1
   67    64    66    1
   68    64    67    1
   69    67    68    1
   70    67    69    1
   71    69    70    1
   72    67    71    1
   73    71    72    1
   74    71    73    1
   75    73    74    1
   76    45    75    1
   77    71    75    1
   78    75    76    1
   79    75    77    1
   80    77    78    1
   81    64    79    1
   82    77    79    1
   83    77    80    1
   84    80    81    1
   85    80    82    1
   86    80    83    1
   87    83    84    1
   88    85    86    1
   89    85    87    1
   90    85    88    1
   91    88    89    1
   92    88    90    1
   93    90    91    1
   94    88    92    1
   95    92    93    1
   96    92    94    1
   97    94    95    1
   98    66    96    1
   99    92    96    1
  100    96    97    1
  101    96    98    1
  102    98    99    1
  103    85   100    1
  104    98   100    1
  105    98   101    1
  106   101   102    1
  107   101   103    1
  108   101   104    1
  109   104   105    1
  110   106   107    1
  111    12   108    1
  112   106   108    1
  113   106   109    1
  114   109   110    1
  115   109   111    1
  116   111   112    1
  117   109   113    1
  118   113   114    1
  119   113   115    1
  120   115   116    1
  121    87   117    1
  122   113   117    1
  123   117   118    1
  124   117   119    1
  125   119   120    1
  126   106   121    1
  127   119   121    1
  128   119   122    1
  129   122   123    1
  130   122   124    1
  131   122   125    1
  132   125   126    1
  133   127   128    1
  134   127   129    1
  135   127   130    1
  136   130   131    1
  137   130   132    1
  138   130   133    1
  139   133   134    1
  140   127   135    1
  141   133   135    1
  142   135   136    1
  143   135   137    1
  144   133   138    1
  145   138   139    1
@<TRIPOS>SUBSTRUCTURE
       1 MOL1            1 RESIDUE      1      MOL     
       2 MOL1          139 RESIDUE      1      MOL     
@<SCITEGIC>MOL_PROPERTY
feprocess Rank
SciTegic.value.IntegerValue
70

@<SCITEGIC>MOL_PROPERTY
Conf_Id
SciTegic.value.IntegerValue
57

@<SCITEGIC>MOL_PROPERTY
Probability
SciTegic.value.DoubleValue
0.08

@<SCITEGIC>MOL_PROPERTY
G
SciTegic.value.DoubleValue
548.338

@<SCITEGIC>MOL_PROPERTY
E
SciTegic.value.DoubleValue
371.872

@<SCITEGIC>MOL_PROPERTY
-TS
SciTegic.value.DoubleValue
176.466

@<SCITEGIC>MOL_PROPERTY
U+W
SciTegic.value.DoubleValue
249.361

@<SCITEGIC>MOL_PROPERTY
U
SciTegic.value.DoubleValue
286.701

@<SCITEGIC>MOL_PROPERTY
W
SciTegic.value.DoubleValue
-37.341

@<SCITEGIC>MOL_PROPERTY
W(PB)
SciTegic.value.DoubleValue
-43.280

@<SCITEGIC>MOL_PROPERTY
W(SA)
SciTegic.value.DoubleValue
5.940

@<SCITEGIC>MOL_PROPERTY
Valence
SciTegic.value.DoubleValue
153.974

@<SCITEGIC>MOL_PROPERTY
Coulomb
SciTegic.value.DoubleValue
156.702

@<SCITEGIC>MOL_PROPERTY
VdW
SciTegic.value.DoubleValue
-23.975

@<SCITEGIC>MOL_PROPERTY
VdW6
SciTegic.value.DoubleValue
-168.598

@<SCITEGIC>MOL_PROPERTY
VdW12
SciTegic.value.DoubleValue
144.623

@<SCITEGIC>MOL_PROPERTY
Bond
SciTegic.value.DoubleValue
4.424

@<SCITEGIC>MOL_PROPERTY
Angle
SciTegic.value.DoubleValue
11.499

@<SCITEGIC>MOL_PROPERTY
Pdih
SciTegic.value.DoubleValue
138.052

@<SCITEGIC>MOL_PROPERTY
Idih
SciTegic.value.DoubleValue
0.000

@<SCITEGIC>MOL_PROPERTY
Tether
SciTegic.value.DoubleValue
0.000

@<TRIPOS>MOLECULE
CD_guest-s16_fast_vm2_rndm.mol2 : feprocess host+ligand conformer 71
         139         145           2
SMALL
USER_CHARGES
 
@<TRIPOS>ATOM
       1    C1      16.248817   15.195815   21.847221 C.3        1 MOL1         0.2972
       2    H1      15.169687   15.117120   22.033084 H          1 MOL1         0.0751
       3    O1      16.651614   16.555117   21.597945 O.3        1 MOL1        -0.3740
       4    C2      17.037959   14.675257   23.070245 C.3        1 MOL1         0.1003
       5    H2      16.799059   13.610693   23.192102 H          1 MOL1         0.0783
       6    O2      16.663029   15.387635   24.260340 O.3        1 MOL1        -0.5519
       7    H3      16.117696   16.161723   23.973734 H          1 MOL1         0.3769
       8    C3      18.557185   14.806143   22.824169 C.3        1 MOL1         0.1053
       9    H4      18.795269   15.873263   22.794310 H          1 MOL1         0.0783
      10    O3      19.262378   14.195999   23.907171 O.3        1 MOL1        -0.5519
      11    H5      18.800743   14.514359   24.715708 H          1 MOL1         0.3769
      12    C4      18.986542   14.174393   21.474064 C.3        1 MOL1         0.1018
      13    H6      19.045414   13.086755   21.609743 H          1 MOL1         0.0783
      14    C5      18.022093   14.514025   20.298068 C.3        1 MOL1         0.1043
      15    H7      18.221039   15.549257   19.996845 H          1 MOL1         0.0783
      16    O4      16.633299   14.405640   20.704292 O.3        1 MOL1        -0.3740
      17    C6      18.231634   13.633645   19.042117 C.3        1 MOL1         0.0138
      18    H8      19.229115   13.835513   18.628594 H          1 MOL1         0.0794
      19    H9      17.501120   13.939106   18.281088 H          1 MOL1         0.0794
      20    O5      18.086080   12.234670   19.320493 O.3        1 MOL1        -0.5486
      21    H10     18.846725   11.944804   19.864239 H          1 MOL1         0.3769
      22    C7      14.863508   20.282434   20.923826 C.3        1 MOL1         0.2972
      23    H11     14.140427   21.054663   20.631944 H          1 MOL1         0.0751
      24    O6      16.108649   20.862777   21.357096 O.3        1 MOL1        -0.3740
      25    C8      14.299054   19.465817   22.114541 C.3        1 MOL1         0.1003
      26    H12     13.341064   19.034037   21.796797 H          1 MOL1         0.0783
      27    O7      14.082749   20.323890   23.246248 O.3        1 MOL1        -0.5519
      28    H13     14.775186   21.027729   23.203023 H          1 MOL1         0.3769
      29    C9      15.247405   18.302746   22.493112 C.3        1 MOL1         0.1053
      30    H14     16.176157   18.731978   22.893210 H          1 MOL1         0.0783
      31    O8      14.624957   17.480808   23.485973 O.3        1 MOL1        -0.5519
      32    H15     14.237845   18.113096   24.132587 H          1 MOL1         0.3769
      33    C10     15.598548   17.464496   21.240797 C.3        1 MOL1         0.1018
      34    H16     14.699416   16.934058   20.899839 H          1 MOL1         0.0783
      35    C11     16.120614   18.361101   20.087724 C.3        1 MOL1         0.1043
      36    H17     17.059212   18.830996   20.410458 H          1 MOL1         0.0783
      37    O9      15.132808   19.388498   19.819513 O.3        1 MOL1        -0.3740
      38    C12     16.427332   17.596237   18.773639 C.3        1 MOL1         0.0138
      39    H18     17.473515   17.265664   18.805456 H          1 MOL1         0.0794
      40    H19     16.341649   18.294545   17.930757 H          1 MOL1         0.0794
      41    O10     15.571680   16.465212   18.563835 O.3        1 MOL1        -0.5486
      42    H20     15.805324   15.791714   19.243768 H          1 MOL1         0.3769
      43    C13     18.563162   24.168295   20.776796 C.3        1 MOL1         0.2972
      44    H21     19.010900   25.128140   20.488290 H          1 MOL1         0.0751
      45    O11     19.528390   23.282618   21.372017 O.3        1 MOL1        -0.3740
      46    C14     17.414743   24.366810   21.798840 C.3        1 MOL1         0.1003
      47    H22     16.646539   24.984170   21.315342 H          1 MOL1         0.0783
      48    O12     17.882365   25.034303   22.982231 O.3        1 MOL1        -0.5519
      49    H23     18.676465   24.539068   23.307822 H          1 MOL1         0.3769
      50    C15     16.776184   23.004005   22.165875 C.3        1 MOL1         0.1053
      51    H24     17.519390   22.418434   22.724221 H          1 MOL1         0.0783
      52    O13     15.621227   23.218665   22.984489 O.3        1 MOL1        -0.5519
      53    H25     15.902013   23.876982   23.658312 H          1 MOL1         0.3769
      54    C16     16.379676   22.201817   20.900237 C.3        1 MOL1         0.1018
      55    H26     15.491890   22.677055   20.462950 H          1 MOL1         0.0783
      56    C17     17.521507   22.157777   19.841957 C.3        1 MOL1         0.1043
      57    H27     18.336167   21.538438   20.235177 H          1 MOL1         0.0783
      58    O14     18.011179   23.503562   19.619321 O.3        1 MOL1        -0.3740
      59    C18     17.136108   21.549162   18.469770 C.3        1 MOL1         0.0138
      60    H28     17.298550   20.465166   18.513503 H          1 MOL1         0.0794
      61    H29     17.824961   21.940695   17.709426 H          1 MOL1         0.0794
      62    O15     15.782328   21.816877   18.089034 O.3        1 MOL1        -0.5486
      63    H30     15.236007   21.097771   18.480318 H          1 MOL1         0.3769
      64    C19     23.464654   22.734980   22.303967 C.3        1 MOL1         0.2972
      65    H31     24.531033   22.796290   22.557946 H          1 MOL1         0.0751
      66    O16     23.061548   21.374652   22.044814 O.3        1 MOL1        -0.3740
      67    C20     22.618913   23.284746   23.475767 C.3        1 MOL1         0.1003
      68    H32     22.892835   24.338196   23.618402 H          1 MOL1         0.0783
      69    O17     22.896986   22.550784   24.679155 O.3        1 MOL1        -0.5519
      70    H33     23.385819   21.736518   24.407192 H          1 MOL1         0.3769
      71    C21     21.113012   23.219272   23.138317 C.3        1 MOL1         0.1053
      72    H34     20.828617   22.162382   23.101108 H          1 MOL1         0.0783
      73    O18     20.360042   23.878490   24.161404 O.3        1 MOL1        -0.5519
      74    H35     20.729537   23.535486   25.005687 H          1 MOL1         0.3769
      75    C22     20.792733   23.847495   21.759561 C.3        1 MOL1         0.1018
      76    H36     20.746290   24.939029   21.870339 H          1 MOL1         0.0783
      77    C23     21.806883   23.451781   20.648831 C.3        1 MOL1         0.1043
      78    H37     21.584319   22.417334   20.363845 H          1 MOL1         0.0783
      79    O19     23.173452   23.521518   21.130689 O.3        1 MOL1        -0.3740
      80    C24     21.692635   24.311098   19.366990 C.3        1 MOL1         0.0138
      81    H38     20.756381   24.051615   18.854615 H          1 MOL1         0.0794
      82    H39     22.516777   24.045975   18.691024 H          1 MOL1         0.0794
      83    O20     21.716346   25.714323   19.655512 O.3        1 MOL1        -0.5486
      84    H40     21.719799   26.194858   18.798904 H          1 MOL1         0.3769
      85    C25     24.961429   17.712318   21.194391 C.3        1 MOL1         0.2972
      86    H41     25.714150   16.987586   20.858713 H          1 MOL1         0.0751
      87    O21     23.739414   17.059294   21.587600 O.3        1 MOL1        -0.3740
      88    C26     25.477501   18.481790   22.440074 C.3        1 MOL1         0.1003
      89    H42     26.430887   18.952362   22.166867 H          1 MOL1         0.0783
      90    O22     25.690336   17.571951   23.531520 O.3        1 MOL1        -0.5519
      91    H43     24.970719   16.896783   23.478010 H          1 MOL1         0.3769
      92    C27     24.492424   19.603344   22.861486 C.3        1 MOL1         0.1053
      93    H44     23.572798   19.132905   23.233330 H          1 MOL1         0.0783
      94    O23     25.079919   20.397876   23.897462 O.3        1 MOL1        -0.5519
      95    H45     25.461537   19.750253   24.531297 H          1 MOL1         0.3769
      96    C28     24.125784   20.491093   21.647782 C.3        1 MOL1         0.1018
      97    H46     25.018895   21.048153   21.334162 H          1 MOL1         0.0783
      98    C29     23.635641   19.631303   20.454452 C.3        1 MOL1         0.1043
      99    H47     22.715650   19.107647   20.746139 H          1 MOL1         0.0783
     100    O24     24.670083   18.667187   20.150167 O.3        1 MOL1        -0.3740
     101    C30     23.319314   20.433107   19.165769 C.3        1 MOL1         0.0138
     102    H48     22.269760   20.749412   19.203350 H          1 MOL1         0.0794
     103    H49     23.412809   19.760313   18.303118 H          1 MOL1         0.0794
     104    O25     24.166293   21.576370   18.989365 O.3        1 MOL1        -0.5486
     105    H50     23.948568   22.219090   19.703987 H          1 MOL1         0.3769
     106    C31     21.296887   13.825571   20.724435 C.3        1 MOL1         0.2972
     107    H51     20.870174   12.870337   20.395053 H          1 MOL1         0.0751
     108    O26     20.267457   14.751812   21.136797 O.3        1 MOL1        -0.3740
     109    C32     22.300276   13.606456   21.884827 C.3        1 MOL1         0.1003
     110    H52     23.113999   12.980605   21.495547 H          1 MOL1         0.0783
     111    O27     21.690092   12.931743   22.995106 O.3        1 MOL1        -0.5519
     112    H53     20.899214   13.461412   23.269253 H          1 MOL1         0.3769
     113    C33     22.912784   14.956151   22.324376 C.3        1 MOL1         0.1053
     114    H54     22.108276   15.574715   22.743355 H          1 MOL1         0.0783
     115    O28     23.914972   14.727976   23.321467 O.3        1 MOL1        -0.5519
     116    H55     23.516817   14.078270   23.942366 H          1 MOL1         0.3769
     117    C34     23.534438   15.710428   21.121272 C.3        1 MOL1         0.1018
     118    H56     24.482767   15.219221   20.867382 H          1 MOL1         0.0783
     119    C35     22.596286   15.735798   19.875370 C.3        1 MOL1         0.1043
     120    H57     21.785604   16.447421   20.071052 H          1 MOL1         0.0783
     121    O29     22.029682   14.422439   19.638664 O.3        1 MOL1        -0.3740
     122    C36     23.290534   16.168529   18.561162 C.3        1 MOL1         0.0138
     123    H58     23.445005   17.252862   18.579916 H          1 MOL1         0.0794
     124    H59     22.610038   15.960961   17.724521 H          1 MOL1         0.0794
     125    O30     24.540446   15.496078   18.359454 O.3        1 MOL1        -0.5486
     126    H60     24.908210   15.803795   17.502667 H          1 MOL1         0.3769
     127    C1      20.267381   19.485557   23.664699 C.3        1 MOL1        -0.1693
     128    H1      19.454809   19.483081   24.402603 H          1 MOL1         0.0829
     129    H2      21.107334   20.062213   24.069350 H          1 MOL1         0.0829
     130    C2      19.823008   19.838720   22.206815 C.3        1 MOL1        -0.1768
     131    H3      18.981134   20.531631   22.125907 H          1 MOL1         0.0829
     132    H4      20.628084   20.176728   21.544827 H          1 MOL1         0.0829
     133    C3      19.467886   18.330609   22.074190 C.3        1 MOL1         0.1211
     134    H5      18.476143   18.082424   22.471003 H          1 MOL1         0.0786
     135    C4      20.626089   18.081553   23.083914 C.3        1 MOL1        -0.1768
     136    H6      20.499446   17.233527   23.765239 H          1 MOL1         0.0829
     137    H7      21.616823   18.021094   22.626175 H          1 MOL1         0.0829
     138    O1      19.657739   17.764697   20.797368 O.3        1 MOL1        -0.5515
     139    H8      19.779923   16.800339   20.929212 H          1 MOL1         0.3773
@<TRIPOS>BOND
    1     1     2    1
    2     1     3    1
    3     1     4    1
    4     4     5    1
    5     4     6    1
    6     6     7    1
    7     4     8    1
    8     8     9    1
    9     8    10    1
   10    10    11    1
   11     8    12    1
   12    12    13    1
   13    12    14    1
   14    14    15    1
   15     1    16    1
   16    14    16    1
   17    14    17    1
   18    17    18    1
   19    17    19    1
   20    17    20    1
   21    20    21    1
   22    22    23    1
   23    22    24    1
   24    22    25    1
   25    25    26    1
   26    25    27    1
   27    27    28    1
   28    25    29    1
   29    29    30    1
   30    29    31    1
   31    31    32    1
   32     3    33    1
   33    29    33    1
   34    33    34    1
   35    33    35    1
   36    35    36    1
   37    22    37    1
   38    35    37    1
   39    35    38    1
   40    38    39    1
   41    38    40    1
   42    38    41    1
   43    41    42    1
   44    43    44    1
   45    43    45    1
   46    43    46    1
   47    46    47    1
   48    46    48    1
   49    48    49    1
   50    46    50    1
   51    50    51    1
   52    50    52    1
   53    52    53    1
   54    24    54    1
   55    50    54    1
   56    54    55    1
   57    54    56    1
   58    56    57    1
   59    43    58    1
   60    56    58    1
   61    56    59    1
   62    59    60    1
   63    59    61    1
   64    59    62    1
   65    62    63    1
   66    64    65    1
   67    64    66    1
   68    64    67    1
   69    67    68    1
   70    67    69    1
   71    69    70    1
   72    67    71    1
   73    71    72    1
   74    71    73    1
   75    73    74    1
   76    45    75    1
   77    71    75    1
   78    75    76    1
   79    75    77    1
   80    77    78    1
   81    64    79    1
   82    77    79    1
   83    77    80    1
   84    80    81    1
   85    80    82    1
   86    80    83    1
   87    83    84    1
   88    85    86    1
   89    85    87    1
   90    85    88    1
   91    88    89    1
   92    88    90    1
   93    90    91    1
   94    88    92    1
   95    92    93    1
   96    92    94    1
   97    94    95    1
   98    66    96    1
   99    92    96    1
  100    96    97    1
  101    96    98    1
  102    98    99    1
  103    85   100    1
  104    98   100    1
  105    98   101    1
  106   101   102    1
  107   101   103    1
  108   101   104    1
  109   104   105    1
  110   106   107    1
  111    12   108    1
  112   106   108    1
  113   106   109    1
  114   109   110    1
  115   109   111    1
  116   111   112    1
  117   109   113    1
  118   113   114    1
  119   113   115    1
  120   115   116    1
  121    87   117    1
  122   113   117    1
  123   117   118    1
  124   117   119    1
  125   119   120    1
  126   106   121    1
  127   119   121    1
  128   119   122    1
  129   122   123    1
  130   122   124    1
  131   122   125    1
  132   125   126    1
  133   127   128    1
  134   127   129    1
  135   127   130    1
  136   130   131    1
  137   130   132    1
  138   130   133    1
  139   133   134    1
  140   127   135    1
  141   133   135    1
  142   135   136    1
  143   135   137    1
  144   133   138    1
  145   138   139    1
@<TRIPOS>SUBSTRUCTURE
       1 MOL1            1 RESIDUE      1      MOL     
       2 MOL1          139 RESIDUE      1      MOL     
@<SCITEGIC>MOL_PROPERTY
feprocess Rank
SciTegic.value.IntegerValue
71

@<SCITEGIC>MOL_PROPERTY
Conf_Id
SciTegic.value.IntegerValue
431

@<SCITEGIC>MOL_PROPERTY
Probability
SciTegic.value.DoubleValue
0.07

@<SCITEGIC>MOL_PROPERTY
G
SciTegic.value.DoubleValue
548.373

@<SCITEGIC>MOL_PROPERTY
E
SciTegic.value.DoubleValue
370.745

@<SCITEGIC>MOL_PROPERTY
-TS
SciTegic.value.DoubleValue
177.627

@<SCITEGIC>MOL_PROPERTY
U+W
SciTegic.value.DoubleValue
248.234

@<SCITEGIC>MOL_PROPERTY
U
SciTegic.value.DoubleValue
284.611

@<SCITEGIC>MOL_PROPERTY
W
SciTegic.value.DoubleValue
-36.376

@<SCITEGIC>MOL_PROPERTY
W(PB)
SciTegic.value.DoubleValue
-42.337

@<SCITEGIC>MOL_PROPERTY
W(SA)
SciTegic.value.DoubleValue
5.960

@<SCITEGIC>MOL_PROPERTY
Valence
SciTegic.value.DoubleValue
153.960

@<SCITEGIC>MOL_PROPERTY
Coulomb
SciTegic.value.DoubleValue
154.106

@<SCITEGIC>MOL_PROPERTY
VdW
SciTegic.value.DoubleValue
-23.456

@<SCITEGIC>MOL_PROPERTY
VdW6
SciTegic.value.DoubleValue
-169.687

@<SCITEGIC>MOL_PROPERTY
VdW12
SciTegic.value.DoubleValue
146.231

@<SCITEGIC>MOL_PROPERTY
Bond
SciTegic.value.DoubleValue
4.481

@<SCITEGIC>MOL_PROPERTY
Angle
SciTegic.value.DoubleValue
11.782

@<SCITEGIC>MOL_PROPERTY
Pdih
SciTegic.value.DoubleValue
137.698

@<SCITEGIC>MOL_PROPERTY
Idih
SciTegic.value.DoubleValue
0.000

@<SCITEGIC>MOL_PROPERTY
Tether
SciTegic.value.DoubleValue
0.000

@<TRIPOS>MOLECULE
CD_guest-s16_fast_vm2_rndm.mol2 : feprocess host+ligand conformer 72
         139         145           2
SMALL
USER_CHARGES
 
@<TRIPOS>ATOM
       1    C1      16.316554   15.496224   20.352323 C.3        1 MOL1         0.2972
       2    H1      15.324770   15.405188   19.890808 H          1 MOL1         0.0751
       3    O1      16.469271   16.752127   21.039038 O.3        1 MOL1        -0.3740
       4    C2      16.567551   14.350882   21.370069 C.3        1 MOL1         0.1003
       5    H2      16.490260   13.404244   20.819670 H          1 MOL1         0.0783
       6    O2      15.590148   14.360581   22.422755 O.3        1 MOL1        -0.5519
       7    H3      15.583035   15.271464   22.812861 H          1 MOL1         0.3769
       8    C3      17.997610   14.443213   21.959328 C.3        1 MOL1         0.1053
       9    H4      18.062079   15.356702   22.567081 H          1 MOL1         0.0783
      10    O3      18.256558   13.296698   22.776850 O.3        1 MOL1        -0.5519
      11    H5      17.449926   13.186759   23.327945 H          1 MOL1         0.3769
      12    C4      19.055167   14.535836   20.832168 C.3        1 MOL1         0.1018
      13    H6      19.102573   13.566182   20.319250 H          1 MOL1         0.0783
      14    C5      18.699897   15.643708   19.802077 C.3        1 MOL1         0.1043
      15    H7      18.763107   16.616629   20.305583 H          1 MOL1         0.0783
      16    O4      17.344052   15.426719   19.338809 O.3        1 MOL1        -0.3740
      17    C6      19.630350   15.715906   18.563662 C.3        1 MOL1         0.0138
      18    H8      20.467455   16.385757   18.793841 H          1 MOL1         0.0794
      19    H9      19.074682   16.179758   17.737795 H          1 MOL1         0.0794
      20    O5      20.134897   14.438639   18.157400 O.3        1 MOL1        -0.5486
      21    H10     20.875726   14.216665   18.767874 H          1 MOL1         0.3769
      22    C7      14.638328   20.287836   21.968976 C.3        1 MOL1         0.2972
      23    H11     13.982613   21.138092   22.196151 H          1 MOL1         0.0751
      24    O6      16.021608   20.680286   21.890112 O.3        1 MOL1        -0.3740
      25    C8      14.518915   19.217514   23.077836 C.3        1 MOL1         0.1003
      26    H12     13.484092   18.851102   23.081752 H          1 MOL1         0.0783
      27    O7      14.831086   19.788697   24.358852 O.3        1 MOL1        -0.5519
      28    H13     15.470945   20.525652   24.197314 H          1 MOL1         0.3769
      29    C9      15.453802   18.024334   22.776780 C.3        1 MOL1         0.1053
      30    H14     16.486090   18.379440   22.871520 H          1 MOL1         0.0783
      31    O8      15.219727   16.980452   23.727272 O.3        1 MOL1        -0.5519
      32    H15     15.197388   17.433746   24.599564 H          1 MOL1         0.3769
      33    C10     15.264945   17.483500   21.337103 C.3        1 MOL1         0.1018
      34    H16     14.374798   16.840608   21.320152 H          1 MOL1         0.0783
      35    C11     15.143841   18.606266   20.263907 C.3        1 MOL1         0.1043
      36    H17     16.148767   19.015421   20.099512 H          1 MOL1         0.0783
      37    O9      14.271719   19.674658   20.716738 O.3        1 MOL1        -0.3740
      38    C12     14.630156   18.104194   18.893329 C.3        1 MOL1         0.0138
      39    H18     15.419318   17.501552   18.423729 H          1 MOL1         0.0794
      40    H19     14.455004   18.973229   18.244957 H          1 MOL1         0.0794
      41    O10     13.433197   17.326478   19.017323 O.3        1 MOL1        -0.5486
      42    H20     13.120479   17.113548   18.110939 H          1 MOL1         0.3769
      43    C13     18.508558   23.967033   21.403808 C.3        1 MOL1         0.2972
      44    H21     18.916240   24.975335   21.255018 H          1 MOL1         0.0751
      45    O11     19.553380   22.974971   21.447513 O.3        1 MOL1        -0.3740
      46    C14     17.741448   23.908896   22.748007 C.3        1 MOL1         0.1003
      47    H22     16.929749   24.646432   22.700074 H          1 MOL1         0.0783
      48    O12     18.618444   24.235781   23.837863 O.3        1 MOL1        -0.5519
      49    H23     19.539963   24.067728   23.522058 H          1 MOL1         0.3769
      50    C15     17.110680   22.513267   22.960546 C.3        1 MOL1         0.1053
      51    H24     17.925302   21.790948   23.099012 H          1 MOL1         0.0783
      52    O13     16.281270   22.527798   24.126904 O.3        1 MOL1        -0.5519
      53    H25     16.815120   22.988936   24.811882 H          1 MOL1         0.3769
      54    C16     16.281204   22.083797   21.726231 C.3        1 MOL1         0.1018
      55    H26     15.359645   22.679862   21.697869 H          1 MOL1         0.0783
      56    C17     17.063648   22.269910   20.396206 C.3        1 MOL1         0.1043
      57    H27     17.891738   21.552330   20.392451 H          1 MOL1         0.0783
      58    O14     17.601178   23.615845   20.334877 O.3        1 MOL1        -0.3740
      59    C18     16.240343   22.000891   19.109454 C.3        1 MOL1         0.0138
      60    H28     16.326990   20.936724   18.856858 H          1 MOL1         0.0794
      61    H29     16.692992   22.560704   18.280043 H          1 MOL1         0.0794
      62    O15     14.857029   22.346979   19.238304 O.3        1 MOL1        -0.5486
      63    H30     14.418759   21.598622   19.705036 H          1 MOL1         0.3769
      64    C19     23.532915   22.398933   20.318552 C.3        1 MOL1         0.2972
      65    H31     24.528658   22.479600   19.863932 H          1 MOL1         0.0751
      66    O16     23.351184   21.125270   20.967158 O.3        1 MOL1        -0.3740
      67    C20     23.278173   23.547534   21.335408 C.3        1 MOL1         0.1003
      68    H32     23.328370   24.489141   20.773241 H          1 MOL1         0.0783
      69    O17     24.267653   23.580779   22.374383 O.3        1 MOL1        -0.5519
      70    H33     24.191743   22.729940   22.875521 H          1 MOL1         0.3769
      71    C21     21.856298   23.433075   21.939328 C.3        1 MOL1         0.1053
      72    H34     21.806726   22.510534   22.534462 H          1 MOL1         0.0783
      73    O18     21.589974   24.564753   22.774863 O.3        1 MOL1        -0.5519
      74    H35     22.406311   24.689627   23.308312 H          1 MOL1         0.3769
      75    C22     20.792593   23.347275   20.817699 C.3        1 MOL1         0.1018
      76    H36     20.727658   24.326794   20.325756 H          1 MOL1         0.0783
      77    C23     21.150526   22.270063   19.756337 C.3        1 MOL1         0.1043
      78    H37     21.082391   21.282439   20.230811 H          1 MOL1         0.0783
      79    O19     22.510003   22.496624   19.300969 O.3        1 MOL1        -0.3740
      80    C24     20.214951   22.236279   18.519682 C.3        1 MOL1         0.0138
      81    H38     19.382343   21.554400   18.731180 H          1 MOL1         0.0794
      82    H39     20.768822   21.804234   17.675548 H          1 MOL1         0.0794
      83    O20     19.700230   23.524027   18.160561 O.3        1 MOL1        -0.5486
      84    H40     18.992385   23.743824   18.810106 H          1 MOL1         0.3769
      85    C25     24.984733   17.717866   22.477149 C.3        1 MOL1         0.2972
      86    H41     25.576526   16.892720   22.894209 H          1 MOL1         0.0751
      87    O21     23.658966   17.284965   22.114762 O.3        1 MOL1        -0.3740
      88    C26     24.874920   18.860596   23.514601 C.3        1 MOL1         0.1003
      89    H42     25.890592   19.227089   23.712061 H          1 MOL1         0.0783
      90    O22     24.291235   18.389533   24.738216 O.3        1 MOL1        -0.5519
      91    H43     23.400511   18.026808   24.504475 H          1 MOL1         0.3769
      92    C27     24.038257   20.028834   22.954568 C.3        1 MOL1         0.1053
      93    H44     23.009699   19.670679   22.856407 H          1 MOL1         0.0783
      94    O23     24.075085   21.123208   23.875518 O.3        1 MOL1        -0.5519
      95    H45     23.918696   20.715608   24.756856 H          1 MOL1         0.3769
      96    C28     24.503094   20.483539   21.549198 C.3        1 MOL1         0.1018
      97    H46     25.357592   21.165114   21.652986 H          1 MOL1         0.0783
      98    C29     24.859742   19.297548   20.605872 C.3        1 MOL1         0.1043
      99    H47     23.911498   18.870662   20.260151 H          1 MOL1         0.0783
     100    O24     25.610968   18.262755   21.296004 O.3        1 MOL1        -0.3740
     101    C30     25.649055   19.724784   19.345869 C.3        1 MOL1         0.0138
     102    H48     24.978448   20.298615   18.692128 H          1 MOL1         0.0794
     103    H49     25.947495   18.822559   18.795057 H          1 MOL1         0.0794
     104    O25     26.800034   20.512364   19.673108 O.3        1 MOL1        -0.5486
     105    H50     27.294359   20.679115   18.840856 H          1 MOL1         0.3769
     106    C31     21.376266   13.929299   21.299215 C.3        1 MOL1         0.2972
     107    H51     20.999312   12.930610   21.043834 H          1 MOL1         0.0751
     108    O26     20.302172   14.875569   21.465410 O.3        1 MOL1        -0.3740
     109    C32     22.159294   13.864273   22.630719 C.3        1 MOL1         0.1003
     110    H52     22.994783   13.166515   22.488664 H          1 MOL1         0.0783
     111    O27     21.308582   13.378858   23.681834 O.3        1 MOL1        -0.5519
     112    H53     20.387357   13.651663   23.449329 H          1 MOL1         0.3769
     113    C33     22.749422   15.245943   23.000957 C.3        1 MOL1         0.1053
     114    H54     21.918729   15.911880   23.271689 H          1 MOL1         0.0783
     115    O28     23.629821   15.086705   24.117461 O.3        1 MOL1        -0.5519
     116    H55     23.102017   14.610923   24.795138 H          1 MOL1         0.3769
     117    C34     23.514963   15.883431   21.811744 C.3        1 MOL1         0.1018
     118    H56     24.485506   15.380049   21.712863 H          1 MOL1         0.0783
     119    C35     22.742095   15.776510   20.465039 C.3        1 MOL1         0.1043
     120    H57     21.882039   16.452975   20.519175 H          1 MOL1         0.0783
     121    O29     22.266022   14.420420   20.274215 O.3        1 MOL1        -0.3740
     122    C36     23.553430   16.189389   19.207664 C.3        1 MOL1         0.0138
     123    H58     23.354201   17.246190   18.994174 H          1 MOL1         0.0794
     124    H59     23.175623   15.623017   18.345797 H          1 MOL1         0.0794
     125    O30     24.964783   15.983083   19.344510 O.3        1 MOL1        -0.5486
     126    H60     25.296359   16.642240   19.998285 H          1 MOL1         0.3769
     127    C1      19.126605   19.230459   22.024484 C.3        1 MOL1        -0.1693
     128    H1      19.147830   20.304471   21.811357 H          1 MOL1         0.0829
     129    H2      18.391482   18.754789   21.366528 H          1 MOL1         0.0829
     130    C2      19.034293   18.864917   23.543455 C.3        1 MOL1        -0.1768
     131    H3      18.718404   17.834448   23.749707 H          1 MOL1         0.0829
     132    H4      18.448226   19.546704   24.169153 H          1 MOL1         0.0829
     133    C3      20.575948   19.082467   23.555472 C.3        1 MOL1         0.1211
     134    H5      20.871991   20.136595   23.646517 H          1 MOL1         0.0786
     135    C4      20.535406   18.561501   22.087259 C.3        1 MOL1        -0.1768
     136    H6      20.525261   17.470350   22.003444 H          1 MOL1         0.0829
     137    H7      21.296313   18.964630   21.411125 H          1 MOL1         0.0829
     138    O1      21.302453   18.280562   24.458980 O.3        1 MOL1        -0.5515
     139    H8      21.012084   18.530006   25.359697 H          1 MOL1         0.3773
@<TRIPOS>BOND
    1     1     2    1
    2     1     3    1
    3     1     4    1
    4     4     5    1
    5     4     6    1
    6     6     7    1
    7     4     8    1
    8     8     9    1
    9     8    10    1
   10    10    11    1
   11     8    12    1
   12    12    13    1
   13    12    14    1
   14    14    15    1
   15     1    16    1
   16    14    16    1
   17    14    17    1
   18    17    18    1
   19    17    19    1
   20    17    20    1
   21    20    21    1
   22    22    23    1
   23    22    24    1
   24    22    25    1
   25    25    26    1
   26    25    27    1
   27    27    28    1
   28    25    29    1
   29    29    30    1
   30    29    31    1
   31    31    32    1
   32     3    33    1
   33    29    33    1
   34    33    34    1
   35    33    35    1
   36    35    36    1
   37    22    37    1
   38    35    37    1
   39    35    38    1
   40    38    39    1
   41    38    40    1
   42    38    41    1
   43    41    42    1
   44    43    44    1
   45    43    45    1
   46    43    46    1
   47    46    47    1
   48    46    48    1
   49    48    49    1
   50    46    50    1
   51    50    51    1
   52    50    52    1
   53    52    53    1
   54    24    54    1
   55    50    54    1
   56    54    55    1
   57    54    56    1
   58    56    57    1
   59    43    58    1
   60    56    58    1
   61    56    59    1
   62    59    60    1
   63    59    61    1
   64    59    62    1
   65    62    63    1
   66    64    65    1
   67    64    66    1
   68    64    67    1
   69    67    68    1
   70    67    69    1
   71    69    70    1
   72    67    71    1
   73    71    72    1
   74    71    73    1
   75    73    74    1
   76    45    75    1
   77    71    75    1
   78    75    76    1
   79    75    77    1
   80    77    78    1
   81    64    79    1
   82    77    79    1
   83    77    80    1
   84    80    81    1
   85    80    82    1
   86    80    83    1
   87    83    84    1
   88    85    86    1
   89    85    87    1
   90    85    88    1
   91    88    89    1
   92    88    90    1
   93    90    91    1
   94    88    92    1
   95    92    93    1
   96    92    94    1
   97    94    95    1
   98    66    96    1
   99    92    96    1
  100    96    97    1
  101    96    98    1
  102    98    99    1
  103    85   100    1
  104    98   100    1
  105    98   101    1
  106   101   102    1
  107   101   103    1
  108   101   104    1
  109   104   105    1
  110   106   107    1
  111    12   108    1
  112   106   108    1
  113   106   109    1
  114   109   110    1
  115   109   111    1
  116   111   112    1
  117   109   113    1
  118   113   114    1
  119   113   115    1
  120   115   116    1
  121    87   117    1
  122   113   117    1
  123   117   118    1
  124   117   119    1
  125   119   120    1
  126   106   121    1
  127   119   121    1
  128   119   122    1
  129   122   123    1
  130   122   124    1
  131   122   125    1
  132   125   126    1
  133   127   128    1
  134   127   129    1
  135   127   130    1
  136   130   131    1
  137   130   132    1
  138   130   133    1
  139   133   134    1
  140   127   135    1
  141   133   135    1
  142   135   136    1
  143   135   137    1
  144   133   138    1
  145   138   139    1
@<TRIPOS>SUBSTRUCTURE
       1 MOL1            1 RESIDUE      1      MOL     
       2 MOL1          139 RESIDUE      1      MOL     
@<SCITEGIC>MOL_PROPERTY
feprocess Rank
SciTegic.value.IntegerValue
72

@<SCITEGIC>MOL_PROPERTY
Conf_Id
SciTegic.value.IntegerValue
902

@<SCITEGIC>MOL_PROPERTY
Probability
SciTegic.value.DoubleValue
0.07

@<SCITEGIC>MOL_PROPERTY
G
SciTegic.value.DoubleValue
548.401

@<SCITEGIC>MOL_PROPERTY
E
SciTegic.value.DoubleValue
369.843

@<SCITEGIC>MOL_PROPERTY
-TS
SciTegic.value.DoubleValue
178.558

@<SCITEGIC>MOL_PROPERTY
U+W
SciTegic.value.DoubleValue
247.331

@<SCITEGIC>MOL_PROPERTY
U
SciTegic.value.DoubleValue
286.022

@<SCITEGIC>MOL_PROPERTY
W
SciTegic.value.DoubleValue
-38.690

@<SCITEGIC>MOL_PROPERTY
W(PB)
SciTegic.value.DoubleValue
-44.594

@<SCITEGIC>MOL_PROPERTY
W(SA)
SciTegic.value.DoubleValue
5.903

@<SCITEGIC>MOL_PROPERTY
Valence
SciTegic.value.DoubleValue
154.554

@<SCITEGIC>MOL_PROPERTY
Coulomb
SciTegic.value.DoubleValue
153.588

@<SCITEGIC>MOL_PROPERTY
VdW
SciTegic.value.DoubleValue
-22.120

@<SCITEGIC>MOL_PROPERTY
VdW6
SciTegic.value.DoubleValue
-169.787

@<SCITEGIC>MOL_PROPERTY
VdW12
SciTegic.value.DoubleValue
147.668

@<SCITEGIC>MOL_PROPERTY
Bond
SciTegic.value.DoubleValue
4.606

@<SCITEGIC>MOL_PROPERTY
Angle
SciTegic.value.DoubleValue
12.754

@<SCITEGIC>MOL_PROPERTY
Pdih
SciTegic.value.DoubleValue
137.194

@<SCITEGIC>MOL_PROPERTY
Idih
SciTegic.value.DoubleValue
0.000

@<SCITEGIC>MOL_PROPERTY
Tether
SciTegic.value.DoubleValue
0.000

@<TRIPOS>MOLECULE
CD_guest-s16_fast_vm2_rndm.mol2 : feprocess host+ligand conformer 73
         139         145           2
SMALL
USER_CHARGES
 
@<TRIPOS>ATOM
       1    C1      16.188272   15.166471   22.073439 C.3        1 MOL1         0.2972
       2    H1      15.129521   15.071142   22.347381 H          1 MOL1         0.0751
       3    O1      16.533107   16.538590   21.792339 O.3        1 MOL1        -0.3740
       4    C2      17.075619   14.636682   23.227053 C.3        1 MOL1         0.1003
       5    H2      16.836725   13.574374   23.365796 H          1 MOL1         0.0783
       6    O2      16.813218   15.347836   24.444877 O.3        1 MOL1        -0.5519
       7    H3      17.067424   16.289076   24.273666 H          1 MOL1         0.3769
       8    C3      18.571430   14.755407   22.870857 C.3        1 MOL1         0.1053
       9    H4      18.810075   15.822744   22.848420 H          1 MOL1         0.0783
      10    O3      19.360269   14.112707   23.877546 O.3        1 MOL1        -0.5519
      11    H5      19.008044   14.452323   24.730443 H          1 MOL1         0.3769
      12    C4      18.905854   14.166789   21.479302 C.3        1 MOL1         0.1018
      13    H6      19.032703   13.080014   21.572408 H          1 MOL1         0.0783
      14    C5      17.846524   14.504907   20.391210 C.3        1 MOL1         0.1043
      15    H7      18.019737   15.545090   20.097642 H          1 MOL1         0.0783
      16    O4      16.490382   14.384778   20.897479 O.3        1 MOL1        -0.3740
      17    C6      17.975040   13.645386   19.110914 C.3        1 MOL1         0.0138
      18    H8      18.889055   13.944066   18.580086 H          1 MOL1         0.0794
      19    H9      17.127575   13.869429   18.449166 H          1 MOL1         0.0794
      20    O5      18.019544   12.244189   19.405569 O.3        1 MOL1        -0.5486
      21    H10     18.017440   11.759198   18.551395 H          1 MOL1         0.3769
      22    C7      14.798918   20.199854   20.868331 C.3        1 MOL1         0.2972
      23    H11     14.142402   21.004006   20.512485 H          1 MOL1         0.0751
      24    O6      16.036519   20.722431   21.393367 O.3        1 MOL1        -0.3740
      25    C8      14.091531   19.421591   22.002461 C.3        1 MOL1         0.1003
      26    H12     13.145944   19.038317   21.597312 H          1 MOL1         0.0783
      27    O7      13.816016   20.302234   23.103771 O.3        1 MOL1        -0.5519
      28    H13     14.571045   20.937978   23.152269 H          1 MOL1         0.3769
      29    C9      14.931312   18.210968   22.477609 C.3        1 MOL1         0.1053
      30    H14     15.794707   18.596335   23.032544 H          1 MOL1         0.0783
      31    O8      14.123647   17.403708   23.339518 O.3        1 MOL1        -0.5519
      32    H15     13.759403   18.022739   24.009216 H          1 MOL1         0.3769
      33    C10     15.458427   17.360076   21.291229 C.3        1 MOL1         0.1018
      34    H16     14.629066   16.755151   20.902070 H          1 MOL1         0.0783
      35    C11     16.038224   18.228785   20.138852 C.3        1 MOL1         0.1043
      36    H17     16.974052   18.682162   20.490445 H          1 MOL1         0.0783
      37    O9      15.096088   19.275884   19.802115 O.3        1 MOL1        -0.3740
      38    C12     16.373073   17.448219   18.839853 C.3        1 MOL1         0.0138
      39    H18     17.425994   17.144753   18.876483 H          1 MOL1         0.0794
      40    H19     16.278210   18.131736   17.985606 H          1 MOL1         0.0794
      41    O10     15.540864   16.299277   18.634495 O.3        1 MOL1        -0.5486
      42    H20     15.728091   15.662290   19.362531 H          1 MOL1         0.3769
      43    C13     18.624902   23.978997   20.827710 C.3        1 MOL1         0.2972
      44    H21     19.043094   24.947469   20.524158 H          1 MOL1         0.0751
      45    O11     19.629945   23.122567   21.403776 O.3        1 MOL1        -0.3740
      46    C14     17.496279   24.168773   21.874942 C.3        1 MOL1         0.1003
      47    H22     16.726225   24.800741   21.413763 H          1 MOL1         0.0783
      48    O12     17.989070   24.818574   23.057768 O.3        1 MOL1        -0.5519
      49    H23     18.824278   24.357115   23.325423 H          1 MOL1         0.3769
      50    C15     16.843176   22.810840   22.235137 C.3        1 MOL1         0.1053
      51    H24     17.588731   22.198379   22.760872 H          1 MOL1         0.0783
      52    O13     15.711591   23.034621   23.083856 O.3        1 MOL1        -0.5519
      53    H25     16.021922   23.676331   23.760732 H          1 MOL1         0.3769
      54    C16     16.400549   22.049786   20.960969 C.3        1 MOL1         0.1018
      55    H26     15.547669   22.586061   20.524479 H          1 MOL1         0.0783
      56    C17     17.552949   21.968574   19.917994 C.3        1 MOL1         0.1043
      57    H27     18.350255   21.343383   20.334719 H          1 MOL1         0.0783
      58    O14     18.064570   23.302665   19.681957 O.3        1 MOL1        -0.3740
      59    C18     17.176110   21.359923   18.543877 C.3        1 MOL1         0.0138
      60    H28     17.289075   20.270859   18.601256 H          1 MOL1         0.0794
      61    H29     17.900600   21.712302   17.797577 H          1 MOL1         0.0794
      62    O15     15.846592   21.686129   18.125767 O.3        1 MOL1        -0.5486
      63    H30     15.262925   20.974753   18.474144 H          1 MOL1         0.3769
      64    C19     23.678991   22.839697   22.123033 C.3        1 MOL1         0.2972
      65    H31     24.752284   22.985903   22.299728 H          1 MOL1         0.0751
      66    O16     23.337038   21.446324   22.008747 O.3        1 MOL1        -0.3740
      67    C20     22.862270   23.429052   23.297212 C.3        1 MOL1         0.1003
      68    H32     23.053245   24.509612   23.329803 H          1 MOL1         0.0783
      69    O17     23.266514   22.834766   24.541298 O.3        1 MOL1        -0.5519
      70    H33     23.611088   21.930954   24.332175 H          1 MOL1         0.3769
      71    C21     21.350242   23.212970   23.060925 C.3        1 MOL1         0.1053
      72    H34     21.157176   22.135150   23.101620 H          1 MOL1         0.0783
      73    O18     20.604657   23.874550   24.087697 O.3        1 MOL1        -0.5519
      74    H35     21.062887   23.636180   24.924494 H          1 MOL1         0.3769
      75    C22     20.910667   23.729306   21.669061 C.3        1 MOL1         0.1018
      76    H36     20.847232   24.824706   21.713743 H          1 MOL1         0.0783
      77    C23     21.875379   23.293958   20.526778 C.3        1 MOL1         0.1043
      78    H37     21.710588   22.224610   20.342625 H          1 MOL1         0.0783
      79    O19     23.261263   23.499639   20.910310 O.3        1 MOL1        -0.3740
      80    C24     21.626454   24.031810   19.189547 C.3        1 MOL1         0.0138
      81    H38     20.680076   23.673012   18.762997 H          1 MOL1         0.0794
      82    H39     22.424446   23.760350   18.485435 H          1 MOL1         0.0794
      83    O20     21.574713   25.453745   19.359668 O.3        1 MOL1        -0.5486
      84    H40     21.488095   25.857431   18.468575 H          1 MOL1         0.3769
      85    C25     24.987914   17.675685   21.423558 C.3        1 MOL1         0.2972
      86    H41     25.673616   16.840661   21.230477 H          1 MOL1         0.0751
      87    O21     23.625397   17.222709   21.556445 O.3        1 MOL1        -0.3740
      88    C26     25.383344   18.376497   22.747068 C.3        1 MOL1         0.1003
      89    H42     26.414590   18.736578   22.637525 H          1 MOL1         0.0783
      90    O22     25.316858   17.448379   23.841569 O.3        1 MOL1        -0.5519
      91    H43     24.654735   16.758505   23.590001 H          1 MOL1         0.3769
      92    C27     24.474580   19.598567   23.016797 C.3        1 MOL1         0.1053
      93    H44     23.459643   19.229835   23.217095 H          1 MOL1         0.0783
      94    O23     24.958126   20.317930   24.155535 O.3        1 MOL1        -0.5519
      95    H45     25.148618   19.627767   24.829678 H          1 MOL1         0.3769
      96    C28     24.422143   20.532117   21.782866 C.3        1 MOL1         0.1018
      97    H46     25.387849   21.045496   21.686283 H          1 MOL1         0.0783
      98    C29     24.116048   19.752419   20.474381 C.3        1 MOL1         0.1043
      99    H47     23.094263   19.360506   20.545478 H          1 MOL1         0.0783
     100    O24     25.041430   18.642722   20.350206 O.3        1 MOL1        -0.3740
     101    C30     24.175089   20.605916   19.180461 C.3        1 MOL1         0.0138
     102    H48     23.181761   21.037517   19.003743 H          1 MOL1         0.0794
     103    H49     24.388591   19.942377   18.331767 H          1 MOL1         0.0794
     104    O25     25.145234   21.657588   19.238424 O.3        1 MOL1        -0.5486
     105    H50     24.741508   22.390257   19.758425 H          1 MOL1         0.3769
     106    C31     21.151024   14.028409   20.473737 C.3        1 MOL1         0.2972
     107    H51     20.742914   13.107697   20.037183 H          1 MOL1         0.0751
     108    O26     20.120597   14.829696   21.079444 O.3        1 MOL1        -0.3740
     109    C32     22.232998   13.715348   21.543660 C.3        1 MOL1         0.1003
     110    H52     23.035421   13.161328   21.039420 H          1 MOL1         0.0783
     111    O27     21.708115   12.907124   22.608398 O.3        1 MOL1        -0.5519
     112    H53     20.936393   13.392992   22.995824 H          1 MOL1         0.3769
     113    C33     22.841040   15.024480   22.107215 C.3        1 MOL1         0.1053
     114    H54     22.058009   15.555142   22.666432 H          1 MOL1         0.0783
     115    O28     23.933549   14.713954   22.978959 O.3        1 MOL1        -0.5519
     116    H55     23.610557   13.977304   23.544269 H          1 MOL1         0.3769
     117    C34     23.329389   15.945045   20.961794 C.3        1 MOL1         0.1018
     118    H56     24.216224   15.486388   20.504919 H          1 MOL1         0.0783
     119    C35     22.238913   16.140791   19.872297 C.3        1 MOL1         0.1043
     120    H57     21.407195   16.704650   20.313815 H          1 MOL1         0.0783
     121    O29     21.768894   14.836356   19.446779 O.3        1 MOL1        -0.3740
     122    C36     22.697187   16.928465   18.617788 C.3        1 MOL1         0.0138
     123    H58     22.538284   17.998146   18.800570 H          1 MOL1         0.0794
     124    H59     22.047329   16.652160   17.776772 H          1 MOL1         0.0794
     125    O30     24.068332   16.699768   18.273405 O.3        1 MOL1        -0.5486
     126    H60     24.610623   17.263315   18.872788 H          1 MOL1         0.3769
     127    C1      20.356915   19.633905   22.237754 C.3        1 MOL1        -0.1693
     128    H1      19.917110   20.335105   21.520809 H          1 MOL1         0.0829
     129    H2      21.443005   19.650806   22.122438 H          1 MOL1         0.0829
     130    C2      19.704079   18.216732   22.265330 C.3        1 MOL1        -0.1768
     131    H3      19.308931   17.841098   21.315797 H          1 MOL1         0.0829
     132    H4      20.335823   17.443217   22.718332 H          1 MOL1         0.0829
     133    C3      18.658913   18.852434   23.231484 C.3        1 MOL1         0.1211
     134    H5      17.856690   19.396444   22.718094 H          1 MOL1         0.0786
     135    C4      19.824736   19.768879   23.702426 C.3        1 MOL1        -0.1768
     136    H6      19.534133   20.774568   24.024368 H          1 MOL1         0.0829
     137    H7      20.474372   19.325688   24.467273 H          1 MOL1         0.0829
     138    O1      18.130617   17.998378   24.220715 O.3        1 MOL1        -0.5515
     139    H8      17.790365   18.572521   24.936728 H          1 MOL1         0.3773
@<TRIPOS>BOND
    1     1     2    1
    2     1     3    1
    3     1     4    1
    4     4     5    1
    5     4     6    1
    6     6     7    1
    7     4     8    1
    8     8     9    1
    9     8    10    1
   10    10    11    1
   11     8    12    1
   12    12    13    1
   13    12    14    1
   14    14    15    1
   15     1    16    1
   16    14    16    1
   17    14    17    1
   18    17    18    1
   19    17    19    1
   20    17    20    1
   21    20    21    1
   22    22    23    1
   23    22    24    1
   24    22    25    1
   25    25    26    1
   26    25    27    1
   27    27    28    1
   28    25    29    1
   29    29    30    1
   30    29    31    1
   31    31    32    1
   32     3    33    1
   33    29    33    1
   34    33    34    1
   35    33    35    1
   36    35    36    1
   37    22    37    1
   38    35    37    1
   39    35    38    1
   40    38    39    1
   41    38    40    1
   42    38    41    1
   43    41    42    1
   44    43    44    1
   45    43    45    1
   46    43    46    1
   47    46    47    1
   48    46    48    1
   49    48    49    1
   50    46    50    1
   51    50    51    1
   52    50    52    1
   53    52    53    1
   54    24    54    1
   55    50    54    1
   56    54    55    1
   57    54    56    1
   58    56    57    1
   59    43    58    1
   60    56    58    1
   61    56    59    1
   62    59    60    1
   63    59    61    1
   64    59    62    1
   65    62    63    1
   66    64    65    1
   67    64    66    1
   68    64    67    1
   69    67    68    1
   70    67    69    1
   71    69    70    1
   72    67    71    1
   73    71    72    1
   74    71    73    1
   75    73    74    1
   76    45    75    1
   77    71    75    1
   78    75    76    1
   79    75    77    1
   80    77    78    1
   81    64    79    1
   82    77    79    1
   83    77    80    1
   84    80    81    1
   85    80    82    1
   86    80    83    1
   87    83    84    1
   88    85    86    1
   89    85    87    1
   90    85    88    1
   91    88    89    1
   92    88    90    1
   93    90    91    1
   94    88    92    1
   95    92    93    1
   96    92    94    1
   97    94    95    1
   98    66    96    1
   99    92    96    1
  100    96    97    1
  101    96    98    1
  102    98    99    1
  103    85   100    1
  104    98   100    1
  105    98   101    1
  106   101   102    1
  107   101   103    1
  108   101   104    1
  109   104   105    1
  110   106   107    1
  111    12   108    1
  112   106   108    1
  113   106   109    1
  114   109   110    1
  115   109   111    1
  116   111   112    1
  117   109   113    1
  118   113   114    1
  119   113   115    1
  120   115   116    1
  121    87   117    1
  122   113   117    1
  123   117   118    1
  124   117   119    1
  125   119   120    1
  126   106   121    1
  127   119   121    1
  128   119   122    1
  129   122   123    1
  130   122   124    1
  131   122   125    1
  132   125   126    1
  133   127   128    1
  134   127   129    1
  135   127   130    1
  136   130   131    1
  137   130   132    1
  138   130   133    1
  139   133   134    1
  140   127   135    1
  141   133   135    1
  142   135   136    1
  143   135   137    1
  144   133   138    1
  145   138   139    1
@<TRIPOS>SUBSTRUCTURE
       1 MOL1            1 RESIDUE      1      MOL     
       2 MOL1          139 RESIDUE      1      MOL     
@<SCITEGIC>MOL_PROPERTY
feprocess Rank
SciTegic.value.IntegerValue
73

@<SCITEGIC>MOL_PROPERTY
Conf_Id
SciTegic.value.IntegerValue
211

@<SCITEGIC>MOL_PROPERTY
Probability
SciTegic.value.DoubleValue
0.06

@<SCITEGIC>MOL_PROPERTY
G
SciTegic.value.DoubleValue
548.442

@<SCITEGIC>MOL_PROPERTY
E
SciTegic.value.DoubleValue
370.303

@<SCITEGIC>MOL_PROPERTY
-TS
SciTegic.value.DoubleValue
178.139

@<SCITEGIC>MOL_PROPERTY
U+W
SciTegic.value.DoubleValue
247.791

@<SCITEGIC>MOL_PROPERTY
U
SciTegic.value.DoubleValue
286.785

@<SCITEGIC>MOL_PROPERTY
W
SciTegic.value.DoubleValue
-38.994

@<SCITEGIC>MOL_PROPERTY
W(PB)
SciTegic.value.DoubleValue
-44.948

@<SCITEGIC>MOL_PROPERTY
W(SA)
SciTegic.value.DoubleValue
5.954

@<SCITEGIC>MOL_PROPERTY
Valence
SciTegic.value.DoubleValue
154.062

@<SCITEGIC>MOL_PROPERTY
Coulomb
SciTegic.value.DoubleValue
154.477

@<SCITEGIC>MOL_PROPERTY
VdW
SciTegic.value.DoubleValue
-21.755

@<SCITEGIC>MOL_PROPERTY
VdW6
SciTegic.value.DoubleValue
-168.080

@<SCITEGIC>MOL_PROPERTY
VdW12
SciTegic.value.DoubleValue
146.325

@<SCITEGIC>MOL_PROPERTY
Bond
SciTegic.value.DoubleValue
4.574

@<SCITEGIC>MOL_PROPERTY
Angle
SciTegic.value.DoubleValue
12.019

@<SCITEGIC>MOL_PROPERTY
Pdih
SciTegic.value.DoubleValue
137.469

@<SCITEGIC>MOL_PROPERTY
Idih
SciTegic.value.DoubleValue
0.000

@<SCITEGIC>MOL_PROPERTY
Tether
SciTegic.value.DoubleValue
0.000

@<TRIPOS>MOLECULE
CD_guest-s16_fast_vm2_rndm.mol2 : feprocess host+ligand conformer 74
         139         145           2
SMALL
USER_CHARGES
 
@<TRIPOS>ATOM
       1    C1      16.351018   15.348239   20.684979 C.3        1 MOL1         0.2972
       2    H1      15.339876   15.195913   20.285878 H          1 MOL1         0.0751
       3    O1      16.512107   16.666810   21.239246 O.3        1 MOL1        -0.3740
       4    C2      16.666898   14.323603   21.808152 C.3        1 MOL1         0.1003
       5    H2      16.567610   13.320201   21.374243 H          1 MOL1         0.0783
       6    O2      15.746292   14.457417   22.903437 O.3        1 MOL1        -0.5519
       7    H3      15.711341   15.417888   23.144765 H          1 MOL1         0.3769
       8    C3      18.124661   14.486417   22.308914 C.3        1 MOL1         0.1053
       9    H4      18.203745   15.460145   22.809709 H          1 MOL1         0.0783
      10    O3      18.438859   13.440293   23.234278 O.3        1 MOL1        -0.5519
      11    H5      17.654025   13.375561   23.823252 H          1 MOL1         0.3769
      12    C4      19.119707   14.470233   21.121842 C.3        1 MOL1         0.1018
      13    H6      19.151983   13.458992   20.695169 H          1 MOL1         0.0783
      14    C5      18.700373   15.473501   20.014851 C.3        1 MOL1         0.1043
      15    H7      18.766183   16.490696   20.423444 H          1 MOL1         0.0783
      16    O4      17.331687   15.188688   19.635087 O.3        1 MOL1        -0.3740
      17    C6      19.587690   15.441902   18.743432 C.3        1 MOL1         0.0138
      18    H8      20.393200   16.176265   18.868975 H          1 MOL1         0.0794
      19    H9      18.987061   15.779276   17.888420 H          1 MOL1         0.0794
      20    O5      20.147447   14.149429   18.473363 O.3        1 MOL1        -0.5486
      21    H10     20.788890   13.953179   19.194907 H          1 MOL1         0.3769
      22    C7      14.679160   20.321613   21.639475 C.3        1 MOL1         0.2972
      23    H11     13.996763   21.175777   21.736883 H          1 MOL1         0.0751
      24    O6      16.053234   20.745604   21.551498 O.3        1 MOL1        -0.3740
      25    C8      14.540030   19.401007   22.874550 C.3        1 MOL1         0.1003
      26    H12     13.505305   19.035531   22.904177 H          1 MOL1         0.0783
      27    O7      14.823163   20.135375   24.076477 O.3        1 MOL1        -0.5519
      28    H13     15.424212   20.877637   23.821646 H          1 MOL1         0.3769
      29    C9      15.478855   18.179567   22.754354 C.3        1 MOL1         0.1053
      30    H14     16.509997   18.542796   22.830361 H          1 MOL1         0.0783
      31    O8      15.214739   17.262366   23.821289 O.3        1 MOL1        -0.5519
      32    H15     15.175787   17.819622   24.630287 H          1 MOL1         0.3769
      33    C10     15.321539   17.460383   21.392394 C.3        1 MOL1         0.1018
      34    H16     14.414062   16.842953   21.426745 H          1 MOL1         0.0783
      35    C11     15.265212   18.441622   20.185412 C.3        1 MOL1         0.1043
      36    H17     16.279357   18.830848   20.028603 H          1 MOL1         0.0783
      37    O9      14.370004   19.550303   20.460992 O.3        1 MOL1        -0.3740
      38    C12     14.820960   17.776405   18.860670 C.3        1 MOL1         0.0138
      39    H18     15.631158   17.124278   18.507667 H          1 MOL1         0.0794
      40    H19     14.681987   18.560321   18.104063 H          1 MOL1         0.0794
      41    O10     13.616615   17.015681   19.016299 O.3        1 MOL1        -0.5486
      42    H20     13.352693   16.690335   18.128016 H          1 MOL1         0.3769
      43    C13     18.420464   24.044179   20.651194 C.3        1 MOL1         0.2972
      44    H21     18.810436   25.014164   20.319337 H          1 MOL1         0.0751
      45    O11     19.491564   23.119147   20.944696 O.3        1 MOL1        -0.3740
      46    C14     17.491294   24.206985   21.886071 C.3        1 MOL1         0.1003
      47    H22     16.638632   24.819115   21.564199 H          1 MOL1         0.0783
      48    O12     18.145474   24.875644   22.973644 O.3        1 MOL1        -0.5519
      49    H23     18.857398   24.268456   23.297526 H          1 MOL1         0.3769
      50    C15     16.940452   22.829870   22.329801 C.3        1 MOL1         0.1053
      51    H24     17.781712   22.214186   22.676466 H          1 MOL1         0.0783
      52    O13     15.996346   23.002255   23.392319 O.3        1 MOL1        -0.5519
      53    H25     16.412725   23.645849   24.007487 H          1 MOL1         0.3769
      54    C16     16.261985   22.108058   21.139389 C.3        1 MOL1         0.1018
      55    H26     15.317214   22.623150   20.921584 H          1 MOL1         0.0783
      56    C17     17.146183   22.105970   19.858730 C.3        1 MOL1         0.1043
      57    H27     18.008766   21.452481   20.031222 H          1 MOL1         0.0783
      58    O14     17.618164   23.453899   19.602960 O.3        1 MOL1        -0.3740
      59    C18     16.442983   21.573121   18.582602 C.3        1 MOL1         0.0138
      60    H28     16.610252   20.490652   18.520301 H          1 MOL1         0.0794
      61    H29     16.929566   22.018295   17.704504 H          1 MOL1         0.0794
      62    O15     15.035940   21.840081   18.552188 O.3        1 MOL1        -0.5486
      63    H30     14.606029   21.175794   19.139829 H          1 MOL1         0.3769
      64    C19     23.448748   22.608905   21.984566 C.3        1 MOL1         0.2972
      65    H31     24.495646   22.705297   22.299677 H          1 MOL1         0.0751
      66    O16     23.182469   21.311769   21.414110 O.3        1 MOL1        -0.3740
      67    C20     22.502849   22.832865   23.190146 C.3        1 MOL1         0.1003
      68    H32     22.688273   23.848530   23.563363 H          1 MOL1         0.0783
      69    O17     22.754426   21.887908   24.243464 O.3        1 MOL1        -0.5519
      70    H33     23.632244   21.473320   24.059991 H          1 MOL1         0.3769
      71    C21     21.024622   22.740255   22.751940 C.3        1 MOL1         0.1053
      72    H34     20.831561   21.701020   22.465677 H          1 MOL1         0.0783
      73    O18     20.197141   23.094984   23.862664 O.3        1 MOL1        -0.5519
      74    H35     20.591502   22.612253   24.624071 H          1 MOL1         0.3769
      75    C22     20.710056   23.634458   21.523957 C.3        1 MOL1         0.1018
      76    H36     20.604473   24.673618   21.859852 H          1 MOL1         0.0783
      77    C23     21.801593   23.534777   20.418770 C.3        1 MOL1         0.1043
      78    H37     21.684437   22.564261   19.918584 H          1 MOL1         0.0783
      79    O19     23.130716   23.608530   20.994344 O.3        1 MOL1        -0.3740
      80    C24     21.681301   24.626748   19.327898 C.3        1 MOL1         0.0138
      81    H38     20.745131   24.472337   18.774517 H          1 MOL1         0.0794
      82    H39     22.503522   24.492044   18.612611 H          1 MOL1         0.0794
      83    O20     21.720349   25.954250   19.869152 O.3        1 MOL1        -0.5486
      84    H40     20.908790   26.097971   20.397986 H          1 MOL1         0.3769
      85    C25     25.045540   17.609613   21.018904 C.3        1 MOL1         0.2972
      86    H41     25.732108   16.784112   20.790432 H          1 MOL1         0.0751
      87    O21     23.736754   17.128849   21.390745 O.3        1 MOL1        -0.3740
      88    C26     25.590238   18.479480   22.180587 C.3        1 MOL1         0.1003
      89    H42     26.549604   18.898098   21.849402 H          1 MOL1         0.0783
      90    O22     25.809026   17.698644   23.366010 O.3        1 MOL1        -0.5519
      91    H43     24.988695   17.168778   23.533440 H          1 MOL1         0.3769
      92    C27     24.634335   19.662431   22.476153 C.3        1 MOL1         0.1053
      93    H44     23.690358   19.253380   22.861283 H          1 MOL1         0.0783
      94    O23     25.236539   20.504118   23.465453 O.3        1 MOL1        -0.5519
      95    H45     25.646930   19.881858   24.108801 H          1 MOL1         0.3769
      96    C28     24.327560   20.467490   21.182399 C.3        1 MOL1         0.1018
      97    H46     25.211852   21.058155   20.911087 H          1 MOL1         0.0783
      98    C29     23.948753   19.546507   19.990205 C.3        1 MOL1         0.1043
      99    H47     22.958472   19.123717   20.186205 H          1 MOL1         0.0783
     100    O24     24.906688   18.467533   19.865852 O.3        1 MOL1        -0.3740
     101    C30     23.850312   20.289285   18.634559 C.3        1 MOL1         0.0138
     102    H48     22.921138   20.874527   18.625523 H          1 MOL1         0.0794
     103    H49     23.768471   19.542392   17.833822 H          1 MOL1         0.0794
     104    O25     24.966844   21.153572   18.389992 O.3        1 MOL1        -0.5486
     105    H50     24.863017   21.938334   18.970442 H          1 MOL1         0.3769
     106    C31     21.364786   13.832381   21.840665 C.3        1 MOL1         0.2972
     107    H51     20.879879   12.854636   21.959552 H          1 MOL1         0.0751
     108    O26     20.403623   14.881567   21.618548 O.3        1 MOL1        -0.3740
     109    C32     22.164885   14.187765   23.114174 C.3        1 MOL1         0.1003
     110    H52     22.966637   13.446292   23.226318 H          1 MOL1         0.0783
     111    O27     21.311073   14.150943   24.269015 O.3        1 MOL1        -0.5519
     112    H53     20.381659   14.173557   23.934458 H          1 MOL1         0.3769
     113    C33     22.809873   15.583600   22.963591 C.3        1 MOL1         0.1053
     114    H54     21.998978   16.318376   22.936830 H          1 MOL1         0.0783
     115    O28     23.650119   15.848140   24.089877 O.3        1 MOL1        -0.5519
     116    H55     23.119179   15.569492   24.869588 H          1 MOL1         0.3769
     117    C34     23.621328   15.713583   21.649038 C.3        1 MOL1         0.1018
     118    H56     24.599423   15.237660   21.799805 H          1 MOL1         0.0783
     119    C35     22.907327   15.093863   20.410626 C.3        1 MOL1         0.1043
     120    H57     22.125359   15.793788   20.097593 H          1 MOL1         0.0783
     121    O29     22.286249   13.821353   20.730490 O.3        1 MOL1        -0.3740
     122    C36     23.843212   14.894798   19.194983 C.3        1 MOL1         0.0138
     123    H58     24.107486   15.882333   18.792923 H          1 MOL1         0.0794
     124    H59     23.290782   14.360928   18.409973 H          1 MOL1         0.0794
     125    O30     25.033570   14.177369   19.543536 O.3        1 MOL1        -0.5486
     126    H60     25.543368   14.026955   18.717596 H          1 MOL1         0.3769
     127    C1      19.217877   19.386196   23.647171 C.3        1 MOL1        -0.1693
     128    H1      19.709422   20.249427   24.112924 H          1 MOL1         0.0829
     129    H2      18.266966   19.208838   24.161872 H          1 MOL1         0.0829
     130    C2      20.139455   18.138589   23.455965 C.3        1 MOL1        -0.1768
     131    H3      20.913208   17.995202   24.217823 H          1 MOL1         0.0829
     132    H4      19.606487   17.192599   23.309707 H          1 MOL1         0.0829
     133    C3      20.600925   18.829945   22.137935 C.3        1 MOL1         0.1211
     134    H5      21.388448   19.578969   22.285175 H          1 MOL1         0.0786
     135    C4      19.164915   19.424670   22.084721 C.3        1 MOL1        -0.1768
     136    H6      18.422983   18.762257   21.624892 H          1 MOL1         0.0829
     137    H7      19.082182   20.414850   21.632554 H          1 MOL1         0.0829
     138    O1      20.925932   17.969474   21.072594 O.3        1 MOL1        -0.5515
     139    H8      21.815247   17.601691   21.262358 H          1 MOL1         0.3773
@<TRIPOS>BOND
    1     1     2    1
    2     1     3    1
    3     1     4    1
    4     4     5    1
    5     4     6    1
    6     6     7    1
    7     4     8    1
    8     8     9    1
    9     8    10    1
   10    10    11    1
   11     8    12    1
   12    12    13    1
   13    12    14    1
   14    14    15    1
   15     1    16    1
   16    14    16    1
   17    14    17    1
   18    17    18    1
   19    17    19    1
   20    17    20    1
   21    20    21    1
   22    22    23    1
   23    22    24    1
   24    22    25    1
   25    25    26    1
   26    25    27    1
   27    27    28    1
   28    25    29    1
   29    29    30    1
   30    29    31    1
   31    31    32    1
   32     3    33    1
   33    29    33    1
   34    33    34    1
   35    33    35    1
   36    35    36    1
   37    22    37    1
   38    35    37    1
   39    35    38    1
   40    38    39    1
   41    38    40    1
   42    38    41    1
   43    41    42    1
   44    43    44    1
   45    43    45    1
   46    43    46    1
   47    46    47    1
   48    46    48    1
   49    48    49    1
   50    46    50    1
   51    50    51    1
   52    50    52    1
   53    52    53    1
   54    24    54    1
   55    50    54    1
   56    54    55    1
   57    54    56    1
   58    56    57    1
   59    43    58    1
   60    56    58    1
   61    56    59    1
   62    59    60    1
   63    59    61    1
   64    59    62    1
   65    62    63    1
   66    64    65    1
   67    64    66    1
   68    64    67    1
   69    67    68    1
   70    67    69    1
   71    69    70    1
   72    67    71    1
   73    71    72    1
   74    71    73    1
   75    73    74    1
   76    45    75    1
   77    71    75    1
   78    75    76    1
   79    75    77    1
   80    77    78    1
   81    64    79    1
   82    77    79    1
   83    77    80    1
   84    80    81    1
   85    80    82    1
   86    80    83    1
   87    83    84    1
   88    85    86    1
   89    85    87    1
   90    85    88    1
   91    88    89    1
   92    88    90    1
   93    90    91    1
   94    88    92    1
   95    92    93    1
   96    92    94    1
   97    94    95    1
   98    66    96    1
   99    92    96    1
  100    96    97    1
  101    96    98    1
  102    98    99    1
  103    85   100    1
  104    98   100    1
  105    98   101    1
  106   101   102    1
  107   101   103    1
  108   101   104    1
  109   104   105    1
  110   106   107    1
  111    12   108    1
  112   106   108    1
  113   106   109    1
  114   109   110    1
  115   109   111    1
  116   111   112    1
  117   109   113    1
  118   113   114    1
  119   113   115    1
  120   115   116    1
  121    87   117    1
  122   113   117    1
  123   117   118    1
  124   117   119    1
  125   119   120    1
  126   106   121    1
  127   119   121    1
  128   119   122    1
  129   122   123    1
  130   122   124    1
  131   122   125    1
  132   125   126    1
  133   127   128    1
  134   127   129    1
  135   127   130    1
  136   130   131    1
  137   130   132    1
  138   130   133    1
  139   133   134    1
  140   127   135    1
  141   133   135    1
  142   135   136    1
  143   135   137    1
  144   133   138    1
  145   138   139    1
@<TRIPOS>SUBSTRUCTURE
       1 MOL1            1 RESIDUE      1      MOL     
       2 MOL1          139 RESIDUE      1      MOL     
@<SCITEGIC>MOL_PROPERTY
feprocess Rank
SciTegic.value.IntegerValue
74

@<SCITEGIC>MOL_PROPERTY
Conf_Id
SciTegic.value.IntegerValue
869

@<SCITEGIC>MOL_PROPERTY
Probability
SciTegic.value.DoubleValue
0.06

@<SCITEGIC>MOL_PROPERTY
G
SciTegic.value.DoubleValue
548.456

@<SCITEGIC>MOL_PROPERTY
E
SciTegic.value.DoubleValue
369.482

@<SCITEGIC>MOL_PROPERTY
-TS
SciTegic.value.DoubleValue
178.975

@<SCITEGIC>MOL_PROPERTY
U+W
SciTegic.value.DoubleValue
246.970

@<SCITEGIC>MOL_PROPERTY
U
SciTegic.value.DoubleValue
283.233

@<SCITEGIC>MOL_PROPERTY
W
SciTegic.value.DoubleValue
-36.263

@<SCITEGIC>MOL_PROPERTY
W(PB)
SciTegic.value.DoubleValue
-42.281

@<SCITEGIC>MOL_PROPERTY
W(SA)
SciTegic.value.DoubleValue
6.018

@<SCITEGIC>MOL_PROPERTY
Valence
SciTegic.value.DoubleValue
152.962

@<SCITEGIC>MOL_PROPERTY
Coulomb
SciTegic.value.DoubleValue
151.811

@<SCITEGIC>MOL_PROPERTY
VdW
SciTegic.value.DoubleValue
-21.540

@<SCITEGIC>MOL_PROPERTY
VdW6
SciTegic.value.DoubleValue
-169.723

@<SCITEGIC>MOL_PROPERTY
VdW12
SciTegic.value.DoubleValue
148.183

@<SCITEGIC>MOL_PROPERTY
Bond
SciTegic.value.DoubleValue
4.655

@<SCITEGIC>MOL_PROPERTY
Angle
SciTegic.value.DoubleValue
12.402

@<SCITEGIC>MOL_PROPERTY
Pdih
SciTegic.value.DoubleValue
135.906

@<SCITEGIC>MOL_PROPERTY
Idih
SciTegic.value.DoubleValue
0.000

@<SCITEGIC>MOL_PROPERTY
Tether
SciTegic.value.DoubleValue
0.000

@<TRIPOS>MOLECULE
CD_guest-s16_fast_vm2_rndm.mol2 : feprocess host+ligand conformer 75
         139         145           2
SMALL
USER_CHARGES
 
@<TRIPOS>ATOM
       1    C1      16.184859   15.082613   20.997306 C.3        1 MOL1         0.2972
       2    H1      15.135661   14.953152   20.702645 H          1 MOL1         0.0751
       3    O1      16.433942   16.411694   21.496226 O.3        1 MOL1        -0.3740
       4    C2      16.535806   14.085770   22.128257 C.3        1 MOL1         0.1003
       5    H2      16.351863   13.072161   21.749011 H          1 MOL1         0.0783
       6    O2      15.703078   14.327282   23.273839 O.3        1 MOL1        -0.5519
       7    H3      15.522507   15.299223   23.290939 H          1 MOL1         0.3769
       8    C3      18.030066   14.190861   22.515714 C.3        1 MOL1         0.1053
       9    H4      18.186002   15.168276   22.991407 H          1 MOL1         0.0783
      10    O3      18.361388   13.148563   23.439880 O.3        1 MOL1        -0.5519
      11    H5      17.641417   13.161318   24.108977 H          1 MOL1         0.3769
      12    C4      18.950946   14.107013   21.272505 C.3        1 MOL1         0.1018
      13    H6      18.955795   13.070534   20.910627 H          1 MOL1         0.0783
      14    C5      18.475441   15.063263   20.139722 C.3        1 MOL1         0.1043
      15    H7      18.616400   16.093592   20.487752 H          1 MOL1         0.0783
      16    O4      17.066388   14.834552   19.881877 O.3        1 MOL1        -0.3740
      17    C6      19.232643   14.940120   18.793133 C.3        1 MOL1         0.0138
      18    H8      20.084907   15.629806   18.810150 H          1 MOL1         0.0794
      19    H9      18.569964   15.282315   17.987184 H          1 MOL1         0.0794
      20    O5      19.688982   13.611694   18.517743 O.3        1 MOL1        -0.5486
      21    H10     20.555311   13.514745   18.975496 H          1 MOL1         0.3769
      22    C7      14.945448   20.329439   21.031691 C.3        1 MOL1         0.2972
      23    H11     14.294172   21.160419   20.731482 H          1 MOL1         0.0751
      24    O6      16.154653   20.803740   21.651386 O.3        1 MOL1        -0.3740
      25    C8      14.222533   19.422477   22.061745 C.3        1 MOL1         0.1003
      26    H12     13.274593   19.101997   21.610439 H          1 MOL1         0.0783
      27    O7      13.952891   20.154387   23.269370 O.3        1 MOL1        -0.5519
      28    H13     14.768087   20.674777   23.477396 H          1 MOL1         0.3769
      29    C9      15.053471   18.153789   22.381681 C.3        1 MOL1         0.1053
      30    H14     15.951080   18.462904   22.935172 H          1 MOL1         0.0783
      31    O8      14.271829   17.259959   23.182779 O.3        1 MOL1        -0.5519
      32    H15     13.882552   17.821328   23.889436 H          1 MOL1         0.3769
      33    C10     15.510361   17.439324   21.086486 C.3        1 MOL1         0.1018
      34    H16     14.625640   17.019902   20.589599 H          1 MOL1         0.0783
      35    C11     16.217580   18.438514   20.128430 C.3        1 MOL1         0.1043
      36    H17     17.125428   18.814120   20.618340 H          1 MOL1         0.0783
      37    O9      15.308209   19.536767   19.880787 O.3        1 MOL1        -0.3740
      38    C12     16.646647   17.864273   18.755487 C.3        1 MOL1         0.0138
      39    H18     17.640590   17.414144   18.861748 H          1 MOL1         0.0794
      40    H19     16.754228   18.697929   18.049103 H          1 MOL1         0.0794
      41    O10     15.727951   16.896614   18.236016 O.3        1 MOL1        -0.5486
      42    H20     15.976191   16.033163   18.639563 H          1 MOL1         0.3769
      43    C13     18.522766   24.189131   21.807808 C.3        1 MOL1         0.2972
      44    H21     18.933422   25.206272   21.850567 H          1 MOL1         0.0751
      45    O11     19.570349   23.204834   21.714710 O.3        1 MOL1        -0.3740
      46    C14     17.700052   23.906628   23.088051 C.3        1 MOL1         0.1003
      47    H22     16.881128   24.636773   23.125889 H          1 MOL1         0.0783
      48    O12     18.528740   24.056986   24.250821 O.3        1 MOL1        -0.5519
      49    H23     19.444186   23.820934   23.970819 H          1 MOL1         0.3769
      50    C15     17.080111   22.491168   23.047226 C.3        1 MOL1         0.1053
      51    H24     17.898499   21.764890   23.124345 H          1 MOL1         0.0783
      52    O13     16.186883   22.322900   24.153941 O.3        1 MOL1        -0.5519
      53    H25     16.686082   22.645643   24.936636 H          1 MOL1         0.3769
      54    C16     16.317910   22.234445   21.724152 C.3        1 MOL1         0.1018
      55    H26     15.351552   22.752871   21.780909 H          1 MOL1         0.0783
      56    C17     17.106599   22.704638   20.465809 C.3        1 MOL1         0.1043
      57    H27     17.927651   21.994364   20.310875 H          1 MOL1         0.0783
      58    O14     17.655015   24.033331   20.667973 O.3        1 MOL1        -0.3740
      59    C18     16.270042   22.740947   19.163327 C.3        1 MOL1         0.0138
      60    H28     16.101121   21.712485   18.820625 H          1 MOL1         0.0794
      61    H29     16.857611   23.244738   18.384068 H          1 MOL1         0.0794
      62    O15     15.015495   23.408754   19.346073 O.3        1 MOL1        -0.5486
      63    H30     14.575148   23.460486   18.469831 H          1 MOL1         0.3769
      64    C19     23.468414   22.595741   20.455244 C.3        1 MOL1         0.2972
      65    H31     24.470455   22.642633   20.009743 H          1 MOL1         0.0751
      66    O16     23.179631   21.277268   20.971056 O.3        1 MOL1        -0.3740
      67    C20     23.305650   23.648398   21.584269 C.3        1 MOL1         0.1003
      68    H32     23.415094   24.637388   21.120405 H          1 MOL1         0.0783
      69    O17     24.304929   23.504927   22.604271 O.3        1 MOL1        -0.5519
      70    H33     24.178674   22.610259   23.009939 H          1 MOL1         0.3769
      71    C21     21.885788   23.565149   22.194033 C.3        1 MOL1         0.1053
      72    H34     21.791793   22.597830   22.705429 H          1 MOL1         0.0783
      73    O18     21.704194   24.625940   23.137608 O.3        1 MOL1        -0.5519
      74    H35     22.526306   24.637173   23.676164 H          1 MOL1         0.3769
      75    C22     20.794269   23.648096   21.095134 C.3        1 MOL1         0.1018
      76    H36     20.731644   24.691087   20.758300 H          1 MOL1         0.0783
      77    C23     21.092520   22.730867   19.869394 C.3        1 MOL1         0.1043
      78    H37     20.942398   21.687735   20.169529 H          1 MOL1         0.0783
      79    O19     22.471188   22.905052   19.457625 O.3        1 MOL1        -0.3740
      80    C24     20.187668   22.966662   18.630781 C.3        1 MOL1         0.0138
      81    H38     19.331963   22.283721   18.685844 H          1 MOL1         0.0794
      82    H39     20.750675   22.686074   17.730532 H          1 MOL1         0.0794
      83    O20     19.720281   24.315362   18.511205 O.3        1 MOL1        -0.5486
      84    H40     19.008500   24.434954   19.182900 H          1 MOL1         0.3769
      85    C25     24.881730   17.672309   22.072136 C.3        1 MOL1         0.2972
      86    H41     25.540275   16.844103   22.364813 H          1 MOL1         0.0751
      87    O21     23.544484   17.217688   21.800403 O.3        1 MOL1        -0.3740
      88    C26     24.812259   18.721067   23.207672 C.3        1 MOL1         0.1003
      89    H42     25.828309   19.107092   23.362137 H          1 MOL1         0.0783
      90    O22     24.340956   18.122802   24.426520 O.3        1 MOL1        -0.5519
      91    H43     24.047724   17.205023   24.203605 H          1 MOL1         0.3769
      92    C27     23.903110   19.905401   22.806582 C.3        1 MOL1         0.1053
      93    H44     22.873840   19.533854   22.738261 H          1 MOL1         0.0783
      94    O23     23.979277   20.912102   23.819734 O.3        1 MOL1        -0.5519
      95    H45     23.888828   20.419235   24.666411 H          1 MOL1         0.3769
      96    C28     24.300298   20.491062   21.426539 C.3        1 MOL1         0.1018
      97    H46     25.207521   21.097546   21.549328 H          1 MOL1         0.0783
      98    C29     24.539084   19.388134   20.354615 C.3        1 MOL1         0.1043
      99    H47     23.560769   18.973500   20.081242 H          1 MOL1         0.0783
     100    O24     25.373203   18.323345   20.882133 O.3        1 MOL1        -0.3740
     101    C30     25.187992   19.918692   19.053986 C.3        1 MOL1         0.0138
     102    H48     24.448572   20.530820   18.520016 H          1 MOL1         0.0794
     103    H49     25.430273   19.063690   18.408457 H          1 MOL1         0.0794
     104    O25     26.363459   20.695341   19.315491 O.3        1 MOL1        -0.5486
     105    H50     26.767381   20.925552   18.450340 H          1 MOL1         0.3769
     106    C31     21.371908   13.687500   21.406568 C.3        1 MOL1         0.2972
     107    H51     21.059961   12.652118   21.219129 H          1 MOL1         0.0751
     108    O26     20.248639   14.527673   21.733749 O.3        1 MOL1        -0.3740
     109    C32     22.335232   13.737419   22.619643 C.3        1 MOL1         0.1003
     110    H52     23.205875   13.112608   22.381495 H          1 MOL1         0.0783
     111    O27     21.681859   13.222295   23.790525 O.3        1 MOL1        -0.5519
     112    H53     20.729664   13.474014   23.713388 H          1 MOL1         0.3769
     113    C33     22.831834   15.182268   22.873051 C.3        1 MOL1         0.1053
     114    H54     21.976331   15.786838   23.202018 H          1 MOL1         0.0783
     115    O28     23.835372   15.175399   23.893432 O.3        1 MOL1        -0.5519
     116    H55     23.483281   14.579912   24.592817 H          1 MOL1         0.3769
     117    C34     23.392857   15.807129   21.572910 C.3        1 MOL1         0.1018
     118    H56     24.347858   15.324337   21.326577 H          1 MOL1         0.0783
     119    C35     22.416489   15.639641   20.378576 C.3        1 MOL1         0.1043
     120    H57     21.515310   16.228080   20.588457 H          1 MOL1         0.0783
     121    O29     22.049711   14.242143   20.255669 O.3        1 MOL1        -0.3740
     122    C36     22.974505   16.147306   19.022867 C.3        1 MOL1         0.0138
     123    H58     22.701568   17.204801   18.913748 H          1 MOL1         0.0794
     124    H59     22.473935   15.604810   18.209919 H          1 MOL1         0.0794
     125    O30     24.396137   16.007356   18.905630 O.3        1 MOL1        -0.5486
     126    H60     24.805794   16.654454   19.524979 H          1 MOL1         0.3769
     127    C1      19.865684   19.057974   23.477102 C.3        1 MOL1        -0.1693
     128    H1      20.841541   18.992275   23.975484 H          1 MOL1         0.0829
     129    H2      19.109147   19.336051   24.220214 H          1 MOL1         0.0829
     130    C2      19.515653   17.840116   22.565630 C.3        1 MOL1        -0.1768
     131    H3      19.910864   16.873706   22.889140 H          1 MOL1         0.0829
     132    H4      18.448648   17.733105   22.350802 H          1 MOL1         0.0829
     133    C3      20.330169   18.576239   21.460232 C.3        1 MOL1         0.1211
     134    H5      21.410339   18.412515   21.523262 H          1 MOL1         0.0786
     135    C4      19.859771   19.886125   22.152556 C.3        1 MOL1        -0.1768
     136    H6      20.563227   20.720850   22.125520 H          1 MOL1         0.0829
     137    H7      18.873832   20.233331   21.826437 H          1 MOL1         0.0829
     138    O1      19.879037   18.392178   20.137110 O.3        1 MOL1        -0.5515
     139    H8      20.324266   19.064670   19.586341 H          1 MOL1         0.3773
@<TRIPOS>BOND
    1     1     2    1
    2     1     3    1
    3     1     4    1
    4     4     5    1
    5     4     6    1
    6     6     7    1
    7     4     8    1
    8     8     9    1
    9     8    10    1
   10    10    11    1
   11     8    12    1
   12    12    13    1
   13    12    14    1
   14    14    15    1
   15     1    16    1
   16    14    16    1
   17    14    17    1
   18    17    18    1
   19    17    19    1
   20    17    20    1
   21    20    21    1
   22    22    23    1
   23    22    24    1
   24    22    25    1
   25    25    26    1
   26    25    27    1
   27    27    28    1
   28    25    29    1
   29    29    30    1
   30    29    31    1
   31    31    32    1
   32     3    33    1
   33    29    33    1
   34    33    34    1
   35    33    35    1
   36    35    36    1
   37    22    37    1
   38    35    37    1
   39    35    38    1
   40    38    39    1
   41    38    40    1
   42    38    41    1
   43    41    42    1
   44    43    44    1
   45    43    45    1
   46    43    46    1
   47    46    47    1
   48    46    48    1
   49    48    49    1
   50    46    50    1
   51    50    51    1
   52    50    52    1
   53    52    53    1
   54    24    54    1
   55    50    54    1
   56    54    55    1
   57    54    56    1
   58    56    57    1
   59    43    58    1
   60    56    58    1
   61    56    59    1
   62    59    60    1
   63    59    61    1
   64    59    62    1
   65    62    63    1
   66    64    65    1
   67    64    66    1
   68    64    67    1
   69    67    68    1
   70    67    69    1
   71    69    70    1
   72    67    71    1
   73    71    72    1
   74    71    73    1
   75    73    74    1
   76    45    75    1
   77    71    75    1
   78    75    76    1
   79    75    77    1
   80    77    78    1
   81    64    79    1
   82    77    79    1
   83    77    80    1
   84    80    81    1
   85    80    82    1
   86    80    83    1
   87    83    84    1
   88    85    86    1
   89    85    87    1
   90    85    88    1
   91    88    89    1
   92    88    90    1
   93    90    91    1
   94    88    92    1
   95    92    93    1
   96    92    94    1
   97    94    95    1
   98    66    96    1
   99    92    96    1
  100    96    97    1
  101    96    98    1
  102    98    99    1
  103    85   100    1
  104    98   100    1
  105    98   101    1
  106   101   102    1
  107   101   103    1
  108   101   104    1
  109   104   105    1
  110   106   107    1
  111    12   108    1
  112   106   108    1
  113   106   109    1
  114   109   110    1
  115   109   111    1
  116   111   112    1
  117   109   113    1
  118   113   114    1
  119   113   115    1
  120   115   116    1
  121    87   117    1
  122   113   117    1
  123   117   118    1
  124   117   119    1
  125   119   120    1
  126   106   121    1
  127   119   121    1
  128   119   122    1
  129   122   123    1
  130   122   124    1
  131   122   125    1
  132   125   126    1
  133   127   128    1
  134   127   129    1
  135   127   130    1
  136   130   131    1
  137   130   132    1
  138   130   133    1
  139   133   134    1
  140   127   135    1
  141   133   135    1
  142   135   136    1
  143   135   137    1
  144   133   138    1
  145   138   139    1
@<TRIPOS>SUBSTRUCTURE
       1 MOL1            1 RESIDUE      1      MOL     
       2 MOL1          139 RESIDUE      1      MOL     
@<SCITEGIC>MOL_PROPERTY
feprocess Rank
SciTegic.value.IntegerValue
75

@<SCITEGIC>MOL_PROPERTY
Conf_Id
SciTegic.value.IntegerValue
91

@<SCITEGIC>MOL_PROPERTY
Probability
SciTegic.value.DoubleValue
0.06

@<SCITEGIC>MOL_PROPERTY
G
SciTegic.value.DoubleValue
548.461

@<SCITEGIC>MOL_PROPERTY
E
SciTegic.value.DoubleValue
370.156

@<SCITEGIC>MOL_PROPERTY
-TS
SciTegic.value.DoubleValue
178.304

@<SCITEGIC>MOL_PROPERTY
U+W
SciTegic.value.DoubleValue
247.645

@<SCITEGIC>MOL_PROPERTY
U
SciTegic.value.DoubleValue
284.423

@<SCITEGIC>MOL_PROPERTY
W
SciTegic.value.DoubleValue
-36.779

@<SCITEGIC>MOL_PROPERTY
W(PB)
SciTegic.value.DoubleValue
-42.678

@<SCITEGIC>MOL_PROPERTY
W(SA)
SciTegic.value.DoubleValue
5.900

@<SCITEGIC>MOL_PROPERTY
Valence
SciTegic.value.DoubleValue
154.212

@<SCITEGIC>MOL_PROPERTY
Coulomb
SciTegic.value.DoubleValue
153.717

@<SCITEGIC>MOL_PROPERTY
VdW
SciTegic.value.DoubleValue
-23.505

@<SCITEGIC>MOL_PROPERTY
VdW6
SciTegic.value.DoubleValue
-171.544

@<SCITEGIC>MOL_PROPERTY
VdW12
SciTegic.value.DoubleValue
148.039

@<SCITEGIC>MOL_PROPERTY
Bond
SciTegic.value.DoubleValue
4.554

@<SCITEGIC>MOL_PROPERTY
Angle
SciTegic.value.DoubleValue
11.915

@<SCITEGIC>MOL_PROPERTY
Pdih
SciTegic.value.DoubleValue
137.743

@<SCITEGIC>MOL_PROPERTY
Idih
SciTegic.value.DoubleValue
0.000

@<SCITEGIC>MOL_PROPERTY
Tether
SciTegic.value.DoubleValue
0.000

@<TRIPOS>MOLECULE
CD_guest-s16_fast_vm2_rndm.mol2 : feprocess host+ligand conformer 76
         139         145           2
SMALL
USER_CHARGES
 
@<TRIPOS>ATOM
       1    C1      16.211591   15.350765   21.691447 C.3        1 MOL1         0.2972
       2    H1      15.122200   15.235760   21.764988 H          1 MOL1         0.0751
       3    O1      16.580009   16.717273   21.422310 O.3        1 MOL1        -0.3740
       4    C2      16.870021   14.918588   23.023592 C.3        1 MOL1         0.1003
       5    H2      16.615244   13.864126   23.192075 H          1 MOL1         0.0783
       6    O2      16.365833   15.710843   24.111194 O.3        1 MOL1        -0.5519
       7    H3      15.880235   16.470845   23.708438 H          1 MOL1         0.3769
       8    C3      18.408721   15.034357   22.939703 C.3        1 MOL1         0.1053
       9    H4      18.659114   16.099958   22.872801 H          1 MOL1         0.0783
      10    O3      18.996932   14.477725   24.119928 O.3        1 MOL1        -0.5519
      11    H5      18.474742   14.853978   24.863338 H          1 MOL1         0.3769
      12    C4      18.967963   14.316723   21.686015 C.3        1 MOL1         0.1018
      13    H6      18.957819   13.234415   21.871947 H          1 MOL1         0.0783
      14    C5      18.167369   14.648560   20.393431 C.3        1 MOL1         0.1043
      15    H7      18.401117   15.683609   20.115315 H          1 MOL1         0.0783
      16    O4      16.740129   14.531711   20.628151 O.3        1 MOL1        -0.3740
      17    C6      18.534921   13.754410   19.184993 C.3        1 MOL1         0.0138
      18    H8      19.538935   14.031765   18.836758 H          1 MOL1         0.0794
      19    H9      17.836422   13.968001   18.364724 H          1 MOL1         0.0794
      20    O5      18.502867   12.360731   19.516642 O.3        1 MOL1        -0.5486
      21    H10     18.670020   11.854319   18.691950 H          1 MOL1         0.3769
      22    C7      14.921932   20.318282   20.197733 C.3        1 MOL1         0.2972
      23    H11     14.331245   21.126687   19.747774 H          1 MOL1         0.0751
      24    O6      16.153997   20.811194   20.766567 O.3        1 MOL1        -0.3740
      25    C8      14.118997   19.571188   21.296921 C.3        1 MOL1         0.1003
      26    H12     13.262792   19.093528   20.802926 H          1 MOL1         0.0783
      27    O7      13.626381   20.463870   22.306263 O.3        1 MOL1        -0.5519
      28    H13     14.410589   20.916100   22.707933 H          1 MOL1         0.3769
      29    C9      14.989479   18.453360   21.922964 C.3        1 MOL1         0.1053
      30    H14     15.835609   18.923788   22.441702 H          1 MOL1         0.0783
      31    O8      14.214253   17.697179   22.859012 O.3        1 MOL1        -0.5519
      32    H15     13.704641   18.365333   23.369891 H          1 MOL1         0.3769
      33    C10     15.546316   17.517246   20.820217 C.3        1 MOL1         0.1018
      34    H16     14.718098   16.901759   20.445100 H          1 MOL1         0.0783
      35    C11     16.174845   18.289860   19.624861 C.3        1 MOL1         0.1043
      36    H17     17.110294   18.751809   19.957057 H          1 MOL1         0.0783
      37    O9      15.264725   19.333822   19.193600 O.3        1 MOL1        -0.3740
      38    C12     16.542896   17.399585   18.408299 C.3        1 MOL1         0.0138
      39    H18     17.576410   17.053178   18.534433 H          1 MOL1         0.0794
      40    H19     16.526526   18.020450   17.502626 H          1 MOL1         0.0794
      41    O10     15.678561   16.267935   18.244786 O.3        1 MOL1        -0.5486
      42    H20     15.886273   15.633895   18.969976 H          1 MOL1         0.3769
      43    C13     18.388669   24.056090   21.888331 C.3        1 MOL1         0.2972
      44    H21     18.818658   25.027183   22.166127 H          1 MOL1         0.0751
      45    O11     19.404786   23.046968   21.731734 O.3        1 MOL1        -0.3740
      46    C14     17.396476   23.585253   22.977073 C.3        1 MOL1         0.1003
      47    H22     16.579838   24.317584   23.021572 H          1 MOL1         0.0783
      48    O12     18.040290   23.510936   24.259177 O.3        1 MOL1        -0.5519
      49    H23     19.014915   23.477656   24.090598 H          1 MOL1         0.3769
      50    C15     16.792952   22.213415   22.605923 C.3        1 MOL1         0.1053
      51    H24     17.600679   21.476973   22.657523 H          1 MOL1         0.0783
      52    O13     15.786793   21.875213   23.563533 O.3        1 MOL1        -0.5519
      53    H25     16.175517   22.125641   24.432116 H          1 MOL1         0.3769
      54    C16     16.210599   22.195790   21.166573 C.3        1 MOL1         0.1018
      55    H26     15.218029   22.665213   21.178968 H          1 MOL1         0.0783
      56    C17     17.131264   22.902241   20.127582 C.3        1 MOL1         0.1043
      57    H27     17.967280   22.223877   19.917064 H          1 MOL1         0.0783
      58    O14     17.663552   24.150599   20.644769 O.3        1 MOL1        -0.3740
      59    C18     16.430226   23.186791   18.778150 C.3        1 MOL1         0.0138
      60    H28     16.255463   22.229793   18.267981 H          1 MOL1         0.0794
      61    H29     17.110024   23.774135   18.146216 H          1 MOL1         0.0794
      62    O15     15.187468   23.878607   18.951663 O.3        1 MOL1        -0.5486
      63    H30     14.837682   24.091705   18.058927 H          1 MOL1         0.3769
      64    C19     23.585614   22.748522   21.569377 C.3        1 MOL1         0.2972
      65    H31     24.645690   22.997988   21.433760 H          1 MOL1         0.0751
      66    O16     23.405658   21.351583   21.863724 O.3        1 MOL1        -0.3740
      67    C20     23.007520   23.547205   22.766360 C.3        1 MOL1         0.1003
      68    H32     23.151475   24.614123   22.551864 H          1 MOL1         0.0783
      69    O17     23.707658   23.208299   23.974198 O.3        1 MOL1        -0.5519
      70    H33     23.977038   22.260861   23.889093 H          1 MOL1         0.3769
      71    C21     21.488037   23.294404   22.931108 C.3        1 MOL1         0.1053
      72    H34     21.339338   22.248094   23.233672 H          1 MOL1         0.0783
      73    O18     20.966362   24.171410   23.934496 O.3        1 MOL1        -0.5519
      74    H35     21.596144   24.099117   24.686207 H          1 MOL1         0.3769
      75    C22     20.754340   23.522636   21.587874 C.3        1 MOL1         0.1018
      76    H36     20.786432   24.591783   21.339312 H          1 MOL1         0.0783
      77    C23     21.417797   22.718293   20.438981 C.3        1 MOL1         0.1043
      78    H37     21.313958   21.648666   20.663676 H          1 MOL1         0.0783
      79    O19     22.825763   23.062869   20.379530 O.3        1 MOL1        -0.3740
      80    C24     20.780587   22.953079   19.044166 C.3        1 MOL1         0.0138
      81    H38     19.970839   22.225167   18.907612 H          1 MOL1         0.0794
      82    H39     21.532642   22.739717   18.272947 H          1 MOL1         0.0794
      83    O20     20.263912   24.278999   18.873678 O.3        1 MOL1        -0.5486
      84    H40     19.466122   24.357837   19.446464 H          1 MOL1         0.3769
      85    C25     25.170582   17.609552   21.323482 C.3        1 MOL1         0.2972
      86    H41     25.869650   16.797894   21.085370 H          1 MOL1         0.0751
      87    O21     23.892636   17.096463   21.750580 O.3        1 MOL1        -0.3740
      88    C26     25.738734   18.461762   22.485358 C.3        1 MOL1         0.1003
      89    H42     26.716205   18.848214   22.168667 H          1 MOL1         0.0783
      90    O22     25.901977   17.648200   23.658110 O.3        1 MOL1        -0.5519
      91    H43     25.145348   17.012710   23.666482 H          1 MOL1         0.3769
      92    C27     24.820334   19.669002   22.792423 C.3        1 MOL1         0.1053
      93    H44     23.883667   19.282171   23.214689 H          1 MOL1         0.0783
      94    O23     25.456919   20.528439   23.744023 O.3        1 MOL1        -0.5519
      95    H45     25.789121   19.929600   24.449158 H          1 MOL1         0.3769
      96    C28     24.482629   20.464704   21.507458 C.3        1 MOL1         0.1018
      97    H46     25.381167   21.009902   21.190029 H          1 MOL1         0.0783
      98    C29     24.003073   19.530428   20.360199 C.3        1 MOL1         0.1043
      99    H47     23.041689   19.092429   20.654820 H          1 MOL1         0.0783
     100    O24     24.971658   18.466954   20.178195 O.3        1 MOL1        -0.3740
     101    C30     23.776700   20.228029   18.994255 C.3        1 MOL1         0.0138
     102    H48     22.748406   20.609213   18.965155 H          1 MOL1         0.0794
     103    H49     23.859286   19.476312   18.198342 H          1 MOL1         0.0794
     104    O25     24.691185   21.300999   18.747400 O.3        1 MOL1        -0.5486
     105    H50     24.307630   22.100389   19.175389 H          1 MOL1         0.3769
     106    C31     21.315481   13.865841   21.129236 C.3        1 MOL1         0.2972
     107    H51     20.878800   12.894870   20.862025 H          1 MOL1         0.0751
     108    O26     20.304756   14.821038   21.504356 O.3        1 MOL1        -0.3740
     109    C32     22.300919   13.723799   22.317682 C.3        1 MOL1         0.1003
     110    H52     23.087650   13.022692   22.010266 H          1 MOL1         0.0783
     111    O27     21.633803   13.206347   23.480600 O.3        1 MOL1        -0.5519
     112    H53     20.814247   13.746606   23.616319 H          1 MOL1         0.3769
     113    C33     22.970353   15.082821   22.642255 C.3        1 MOL1         0.1053
     114    H54     22.195894   15.754240   23.035946 H          1 MOL1         0.0783
     115    O28     23.990211   14.890951   23.629065 O.3        1 MOL1        -0.5519
     116    H55     23.578128   14.323334   24.317578 H          1 MOL1         0.3769
     117    C34     23.581511   15.738202   21.377251 C.3        1 MOL1         0.1018
     118    H56     24.481005   15.172397   21.101473 H          1 MOL1         0.0783
     119    C35     22.577471   15.743833   20.187635 C.3        1 MOL1         0.1043
     120    H57     21.757466   16.426225   20.436782 H          1 MOL1         0.0783
     121    O29     22.047152   14.407930   20.009169 O.3        1 MOL1        -0.3740
     122    C36     23.149710   16.212447   18.826310 C.3        1 MOL1         0.0138
     123    H58     23.065591   17.304230   18.769984 H          1 MOL1         0.0794
     124    H59     22.517326   15.806533   18.025485 H          1 MOL1         0.0794
     125    O30     24.511147   15.821851   18.619327 O.3        1 MOL1        -0.5486
     126    H60     25.066918   16.564261   18.945892 H          1 MOL1         0.3769
     127    C1      20.163310   18.403230   21.450234 C.3        1 MOL1        -0.1693
     128    H1      19.773062   17.381491   21.455372 H          1 MOL1         0.0829
     129    H2      20.622435   18.598460   20.474900 H          1 MOL1         0.0829
     130    C2      21.013318   18.795043   22.702807 C.3        1 MOL1        -0.1768
     131    H3      21.589054   17.992546   23.173572 H          1 MOL1         0.0829
     132    H4      21.664320   19.661078   22.562136 H          1 MOL1         0.0829
     133    C3      19.661002   19.145556   23.385095 C.3        1 MOL1         0.1211
     134    H5      19.158594   18.284667   23.846068 H          1 MOL1         0.0786
     135    C4      19.155901   19.480469   21.952828 C.3        1 MOL1        -0.1768
     136    H6      18.098177   19.273687   21.783618 H          1 MOL1         0.0829
     137    H7      19.381744   20.494563   21.611297 H          1 MOL1         0.0829
     138    O1      19.704736   20.239992   24.271773 O.3        1 MOL1        -0.5515
     139    H8      18.782699   20.500461   24.467993 H          1 MOL1         0.3773
@<TRIPOS>BOND
    1     1     2    1
    2     1     3    1
    3     1     4    1
    4     4     5    1
    5     4     6    1
    6     6     7    1
    7     4     8    1
    8     8     9    1
    9     8    10    1
   10    10    11    1
   11     8    12    1
   12    12    13    1
   13    12    14    1
   14    14    15    1
   15     1    16    1
   16    14    16    1
   17    14    17    1
   18    17    18    1
   19    17    19    1
   20    17    20    1
   21    20    21    1
   22    22    23    1
   23    22    24    1
   24    22    25    1
   25    25    26    1
   26    25    27    1
   27    27    28    1
   28    25    29    1
   29    29    30    1
   30    29    31    1
   31    31    32    1
   32     3    33    1
   33    29    33    1
   34    33    34    1
   35    33    35    1
   36    35    36    1
   37    22    37    1
   38    35    37    1
   39    35    38    1
   40    38    39    1
   41    38    40    1
   42    38    41    1
   43    41    42    1
   44    43    44    1
   45    43    45    1
   46    43    46    1
   47    46    47    1
   48    46    48    1
   49    48    49    1
   50    46    50    1
   51    50    51    1
   52    50    52    1
   53    52    53    1
   54    24    54    1
   55    50    54    1
   56    54    55    1
   57    54    56    1
   58    56    57    1
   59    43    58    1
   60    56    58    1
   61    56    59    1
   62    59    60    1
   63    59    61    1
   64    59    62    1
   65    62    63    1
   66    64    65    1
   67    64    66    1
   68    64    67    1
   69    67    68    1
   70    67    69    1
   71    69    70    1
   72    67    71    1
   73    71    72    1
   74    71    73    1
   75    73    74    1
   76    45    75    1
   77    71    75    1
   78    75    76    1
   79    75    77    1
   80    77    78    1
   81    64    79    1
   82    77    79    1
   83    77    80    1
   84    80    81    1
   85    80    82    1
   86    80    83    1
   87    83    84    1
   88    85    86    1
   89    85    87    1
   90    85    88    1
   91    88    89    1
   92    88    90    1
   93    90    91    1
   94    88    92    1
   95    92    93    1
   96    92    94    1
   97    94    95    1
   98    66    96    1
   99    92    96    1
  100    96    97    1
  101    96    98    1
  102    98    99    1
  103    85   100    1
  104    98   100    1
  105    98   101    1
  106   101   102    1
  107   101   103    1
  108   101   104    1
  109   104   105    1
  110   106   107    1
  111    12   108    1
  112   106   108    1
  113   106   109    1
  114   109   110    1
  115   109   111    1
  116   111   112    1
  117   109   113    1
  118   113   114    1
  119   113   115    1
  120   115   116    1
  121    87   117    1
  122   113   117    1
  123   117   118    1
  124   117   119    1
  125   119   120    1
  126   106   121    1
  127   119   121    1
  128   119   122    1
  129   122   123    1
  130   122   124    1
  131   122   125    1
  132   125   126    1
  133   127   128    1
  134   127   129    1
  135   127   130    1
  136   130   131    1
  137   130   132    1
  138   130   133    1
  139   133   134    1
  140   127   135    1
  141   133   135    1
  142   135   136    1
  143   135   137    1
  144   133   138    1
  145   138   139    1
@<TRIPOS>SUBSTRUCTURE
       1 MOL1            1 RESIDUE      1      MOL     
       2 MOL1          139 RESIDUE      1      MOL     
@<SCITEGIC>MOL_PROPERTY
feprocess Rank
SciTegic.value.IntegerValue
76

@<SCITEGIC>MOL_PROPERTY
Conf_Id
SciTegic.value.IntegerValue
806

@<SCITEGIC>MOL_PROPERTY
Probability
SciTegic.value.DoubleValue
0.06

@<SCITEGIC>MOL_PROPERTY
G
SciTegic.value.DoubleValue
548.477

@<SCITEGIC>MOL_PROPERTY
E
SciTegic.value.DoubleValue
372.184

@<SCITEGIC>MOL_PROPERTY
-TS
SciTegic.value.DoubleValue
176.292

@<SCITEGIC>MOL_PROPERTY
U+W
SciTegic.value.DoubleValue
249.673

@<SCITEGIC>MOL_PROPERTY
U
SciTegic.value.DoubleValue
287.522

@<SCITEGIC>MOL_PROPERTY
W
SciTegic.value.DoubleValue
-37.849

@<SCITEGIC>MOL_PROPERTY
W(PB)
SciTegic.value.DoubleValue
-43.800

@<SCITEGIC>MOL_PROPERTY
W(SA)
SciTegic.value.DoubleValue
5.952

@<SCITEGIC>MOL_PROPERTY
Valence
SciTegic.value.DoubleValue
155.239

@<SCITEGIC>MOL_PROPERTY
Coulomb
SciTegic.value.DoubleValue
154.377

@<SCITEGIC>MOL_PROPERTY
VdW
SciTegic.value.DoubleValue
-22.094

@<SCITEGIC>MOL_PROPERTY
VdW6
SciTegic.value.DoubleValue
-168.286

@<SCITEGIC>MOL_PROPERTY
VdW12
SciTegic.value.DoubleValue
146.192

@<SCITEGIC>MOL_PROPERTY
Bond
SciTegic.value.DoubleValue
4.644

@<SCITEGIC>MOL_PROPERTY
Angle
SciTegic.value.DoubleValue
11.793

@<SCITEGIC>MOL_PROPERTY
Pdih
SciTegic.value.DoubleValue
138.801

@<SCITEGIC>MOL_PROPERTY
Idih
SciTegic.value.DoubleValue
0.000

@<SCITEGIC>MOL_PROPERTY
Tether
SciTegic.value.DoubleValue
0.000

@<TRIPOS>MOLECULE
CD_guest-s16_fast_vm2_rndm.mol2 : feprocess host+ligand conformer 77
         139         145           2
SMALL
USER_CHARGES
 
@<TRIPOS>ATOM
       1    C1      16.213605   15.353167   20.532143 C.3        1 MOL1         0.2972
       2    H1      15.198999   15.268469   20.121884 H          1 MOL1         0.0751
       3    O1      16.418333   16.616811   21.190895 O.3        1 MOL1        -0.3740
       4    C2      16.491773   14.226266   21.560219 C.3        1 MOL1         0.1003
       5    H2      16.357987   13.268378   21.041040 H          1 MOL1         0.0783
       6    O2      15.574134   14.298525   22.663966 O.3        1 MOL1        -0.5519
       7    H3      15.574527   15.234801   22.988326 H          1 MOL1         0.3769
       8    C3      17.952534   14.293122   22.071807 C.3        1 MOL1         0.1053
       9    H4      18.057488   15.205473   22.673620 H          1 MOL1         0.0783
      10    O3      18.227605   13.146370   22.883684 O.3        1 MOL1        -0.5519
      11    H5      17.455838   13.066970   23.487072 H          1 MOL1         0.3769
      12    C4      18.967807   14.366049   20.902236 C.3        1 MOL1         0.1018
      13    H6      19.003154   13.382565   20.415571 H          1 MOL1         0.0783
      14    C5      18.567657   15.452308   19.861510 C.3        1 MOL1         0.1043
      15    H7      18.667688   16.436057   20.336734 H          1 MOL1         0.0783
      16    O4      17.188132   15.243228   19.473846 O.3        1 MOL1        -0.3740
      17    C6      19.417246   15.489528   18.565965 C.3        1 MOL1         0.0138
      18    H8      20.271751   16.156359   18.727887 H          1 MOL1         0.0794
      19    H9      18.813938   15.942073   17.767677 H          1 MOL1         0.0794
      20    O5      19.881923   14.199702   18.154417 O.3        1 MOL1        -0.5486
      21    H10     20.713414   14.030100   18.653974 H          1 MOL1         0.3769
      22    C7      14.675899   20.272232   21.889038 C.3        1 MOL1         0.2972
      23    H11     14.024254   21.139635   22.055444 H          1 MOL1         0.0751
      24    O6      16.063775   20.649987   21.822041 O.3        1 MOL1        -0.3740
      25    C8      14.513080   19.259555   23.047405 C.3        1 MOL1         0.1003
      26    H12     13.471073   18.914076   23.045649 H          1 MOL1         0.0783
      27    O7      14.806779   19.886326   24.306458 O.3        1 MOL1        -0.5519
      28    H13     15.412200   20.645328   24.116295 H          1 MOL1         0.3769
      29    C9      15.427793   18.032890   22.828207 C.3        1 MOL1         0.1053
      30    H14     16.466261   18.370403   22.923800 H          1 MOL1         0.0783
      31    O8      15.153119   17.041090   23.823330 O.3        1 MOL1        -0.5519
      32    H15     15.120141   17.536968   24.671685 H          1 MOL1         0.3769
      33    C10     15.246996   17.423506   21.416517 C.3        1 MOL1         0.1018
      34    H16     14.326141   16.825166   21.412688 H          1 MOL1         0.0783
      35    C11     15.200552   18.494702   20.287688 C.3        1 MOL1         0.1043
      36    H17     16.222620   18.867960   20.147154 H          1 MOL1         0.0783
      37    O9      14.338359   19.603004   20.657127 O.3        1 MOL1        -0.3740
      38    C12     14.724439   17.943962   18.922130 C.3        1 MOL1         0.0138
      39    H18     15.513901   17.301970   18.508810 H          1 MOL1         0.0794
      40    H19     14.595752   18.786933   18.229874 H          1 MOL1         0.0794
      41    O10     13.503766   17.202222   19.035745 O.3        1 MOL1        -0.5486
      42    H20     13.219816   16.954653   18.128743 H          1 MOL1         0.3769
      43    C13     18.507815   23.993921   21.283825 C.3        1 MOL1         0.2972
      44    H21     18.860463   25.013380   21.081301 H          1 MOL1         0.0751
      45    O11     19.609106   23.089846   21.503530 O.3        1 MOL1        -0.3740
      46    C14     17.632813   23.994420   22.562931 C.3        1 MOL1         0.1003
      47    H22     16.798587   24.687858   22.394591 H          1 MOL1         0.0783
      48    O12     18.402823   24.440640   23.690465 O.3        1 MOL1        -0.5519
      49    H23     19.343662   24.206389   23.500133 H          1 MOL1         0.3769
      50    C15     17.041944   22.590578   22.832950 C.3        1 MOL1         0.1053
      51    H24     17.870638   21.917691   23.090366 H          1 MOL1         0.0783
      52    O13     16.116453   22.655995   23.922826 O.3        1 MOL1        -0.5519
      53    H25     16.570966   23.191848   24.610777 H          1 MOL1         0.3769
      54    C16     16.337474   22.038687   21.570425 C.3        1 MOL1         0.1018
      55    H26     15.421229   22.617404   21.393541 H          1 MOL1         0.0783
      56    C17     17.253004   22.129397   20.319453 C.3        1 MOL1         0.1043
      57    H27     18.111344   21.463652   20.478178 H          1 MOL1         0.0783
      58    O14     17.723627   23.493886   20.177529 O.3        1 MOL1        -0.3740
      59    C18     16.582414   21.695713   18.989374 C.3        1 MOL1         0.0138
      60    H28     16.740215   20.618589   18.854467 H          1 MOL1         0.0794
      61    H29     17.096133   22.196833   18.158088 H          1 MOL1         0.0794
      62    O15     15.179971   21.982083   18.941585 O.3        1 MOL1        -0.5486
      63    H30     14.727259   21.295379   19.484589 H          1 MOL1         0.3769
      64    C19     23.633968   22.548902   20.553635 C.3        1 MOL1         0.2972
      65    H31     24.655014   22.630769   20.159144 H          1 MOL1         0.0751
      66    O16     23.402965   21.267608   21.168657 O.3        1 MOL1        -0.3740
      67    C20     23.334476   23.666229   21.589398 C.3        1 MOL1         0.1003
      68    H32     23.428307   24.626344   21.065460 H          1 MOL1         0.0783
      69    O17     24.263971   23.642085   22.683404 O.3        1 MOL1        -0.5519
      70    H33     24.199774   22.747984   23.105335 H          1 MOL1         0.3769
      71    C21     21.879767   23.548228   22.108833 C.3        1 MOL1         0.1053
      72    H34     21.795276   22.616004   22.684015 H          1 MOL1         0.0783
      73    O18     21.575931   24.664671   22.952026 O.3        1 MOL1        -0.5519
      74    H35     22.356317   24.762593   23.541742 H          1 MOL1         0.3769
      75    C22     20.871115   23.490162   20.933947 C.3        1 MOL1         0.1018
      76    H36     20.821008   24.488429   20.479684 H          1 MOL1         0.0783
      77    C23     21.288145   22.455169   19.849137 C.3        1 MOL1         0.1043
      78    H37     21.188347   21.448797   20.274128 H          1 MOL1         0.0783
      79    O19     22.672643   22.687126   19.483670 O.3        1 MOL1        -0.3740
      80    C24     20.434740   22.474087   18.554932 C.3        1 MOL1         0.0138
      81    H38     19.580034   21.800775   18.691804 H          1 MOL1         0.0794
      82    H39     21.035827   22.057656   17.735617 H          1 MOL1         0.0794
      83    O20     19.964772   23.779922   18.202709 O.3        1 MOL1        -0.5486
      84    H40     19.162263   23.948429   18.748847 H          1 MOL1         0.3769
      85    C25     24.955184   17.708642   22.402425 C.3        1 MOL1         0.2972
      86    H41     25.539745   16.844991   22.745193 H          1 MOL1         0.0751
      87    O21     23.605010   17.325022   22.067688 O.3        1 MOL1        -0.3740
      88    C26     24.930973   18.792078   23.508887 C.3        1 MOL1         0.1003
      89    H42     25.967788   19.108786   23.680804 H          1 MOL1         0.0783
      90    O22     24.386399   18.269878   24.728296 O.3        1 MOL1        -0.5519
      91    H43     23.457418   17.998121   24.519446 H          1 MOL1         0.3769
      92    C27     24.118358   20.024007   23.059902 C.3        1 MOL1         0.1053
      93    H44     23.070411   19.715477   22.997499 H          1 MOL1         0.0783
      94    O23     24.248389   21.064222   24.034109 O.3        1 MOL1        -0.5519
      95    H45     24.085662   20.622302   24.897445 H          1 MOL1         0.3769
      96    C28     24.544624   20.543026   21.664962 C.3        1 MOL1         0.1018
      97    H46     25.430740   21.182012   21.775844 H          1 MOL1         0.0783
      98    C29     24.813580   19.405940   20.637688 C.3        1 MOL1         0.1043
      99    H47     23.834731   19.038859   20.312109 H          1 MOL1         0.0783
     100    O24     25.550690   18.302489   21.228763 O.3        1 MOL1        -0.3740
     101    C30     25.564141   19.880877   19.370693 C.3        1 MOL1         0.0138
     102    H48     24.887833   20.515033   18.781705 H          1 MOL1         0.0794
     103    H49     25.806220   19.004248   18.754850 H          1 MOL1         0.0794
     104    O25     26.755796   20.608194   19.692037 O.3        1 MOL1        -0.5486
     105    H50     27.220702   20.806628   18.849844 H          1 MOL1         0.3769
     106    C31     21.368692   13.912094   21.140578 C.3        1 MOL1         0.2972
     107    H51     21.059900   12.911336   20.812595 H          1 MOL1         0.0751
     108    O26     20.231721   14.719683   21.499962 O.3        1 MOL1        -0.3740
     109    C32     22.271507   13.792837   22.392194 C.3        1 MOL1         0.1003
     110    H52     23.127714   13.161620   22.120934 H          1 MOL1         0.0783
     111    O27     21.544106   13.172020   23.464245 O.3        1 MOL1        -0.5519
     112    H53     20.606638   13.468484   23.372683 H          1 MOL1         0.3769
     113    C33     22.819004   15.171689   22.837805 C.3        1 MOL1         0.1053
     114    H54     21.983688   15.761257   23.238849 H          1 MOL1         0.0783
     115    O28     23.806181   14.964058   23.852539 O.3        1 MOL1        -0.5519
     116    H55     23.373920   14.387547   24.519515 H          1 MOL1         0.3769
     117    C34     23.434009   15.954211   21.648952 C.3        1 MOL1         0.1018
     118    H56     24.390954   15.487552   21.380749 H          1 MOL1         0.0783
     119    C35     22.502812   15.949046   20.404617 C.3        1 MOL1         0.1043
     120    H57     21.609629   16.540189   20.645864 H          1 MOL1         0.0783
     121    O29     22.110540   14.586458   20.102713 O.3        1 MOL1        -0.3740
     122    C36     23.127870   16.561372   19.123035 C.3        1 MOL1         0.0138
     123    H58     22.876073   17.627737   19.086628 H          1 MOL1         0.0794
     124    H59     22.652743   16.100830   18.246606 H          1 MOL1         0.0794
     125    O30     24.549171   16.392252   19.047292 O.3        1 MOL1        -0.5486
     126    H60     24.950313   16.922656   19.774799 H          1 MOL1         0.3769
     127    C1      19.074963   18.971506   22.136326 C.3        1 MOL1        -0.1693
     128    H1      18.366171   19.727741   22.488184 H          1 MOL1         0.0829
     129    H2      18.802587   18.679932   21.116140 H          1 MOL1         0.0829
     130    C2      19.331640   17.806436   23.146561 C.3        1 MOL1        -0.1768
     131    H3      19.786909   16.913490   22.708796 H          1 MOL1         0.0829
     132    H4      18.482382   17.502363   23.767264 H          1 MOL1         0.0829
     133    C3      20.350322   18.774140   23.815103 C.3        1 MOL1         0.1211
     134    H5      19.891685   19.495501   24.504806 H          1 MOL1         0.0786
     135    C4      20.573268   19.336614   22.377782 C.3        1 MOL1        -0.1768
     136    H6      21.287608   18.769866   21.769559 H          1 MOL1         0.0829
     137    H7      20.824394   20.400191   22.323784 H          1 MOL1         0.0829
     138    O1      21.460621   18.148394   24.416555 O.3        1 MOL1        -0.5515
     139    H8      21.123960   17.676499   25.205234 H          1 MOL1         0.3773
@<TRIPOS>BOND
    1     1     2    1
    2     1     3    1
    3     1     4    1
    4     4     5    1
    5     4     6    1
    6     6     7    1
    7     4     8    1
    8     8     9    1
    9     8    10    1
   10    10    11    1
   11     8    12    1
   12    12    13    1
   13    12    14    1
   14    14    15    1
   15     1    16    1
   16    14    16    1
   17    14    17    1
   18    17    18    1
   19    17    19    1
   20    17    20    1
   21    20    21    1
   22    22    23    1
   23    22    24    1
   24    22    25    1
   25    25    26    1
   26    25    27    1
   27    27    28    1
   28    25    29    1
   29    29    30    1
   30    29    31    1
   31    31    32    1
   32     3    33    1
   33    29    33    1
   34    33    34    1
   35    33    35    1
   36    35    36    1
   37    22    37    1
   38    35    37    1
   39    35    38    1
   40    38    39    1
   41    38    40    1
   42    38    41    1
   43    41    42    1
   44    43    44    1
   45    43    45    1
   46    43    46    1
   47    46    47    1
   48    46    48    1
   49    48    49    1
   50    46    50    1
   51    50    51    1
   52    50    52    1
   53    52    53    1
   54    24    54    1
   55    50    54    1
   56    54    55    1
   57    54    56    1
   58    56    57    1
   59    43    58    1
   60    56    58    1
   61    56    59    1
   62    59    60    1
   63    59    61    1
   64    59    62    1
   65    62    63    1
   66    64    65    1
   67    64    66    1
   68    64    67    1
   69    67    68    1
   70    67    69    1
   71    69    70    1
   72    67    71    1
   73    71    72    1
   74    71    73    1
   75    73    74    1
   76    45    75    1
   77    71    75    1
   78    75    76    1
   79    75    77    1
   80    77    78    1
   81    64    79    1
   82    77    79    1
   83    77    80    1
   84    80    81    1
   85    80    82    1
   86    80    83    1
   87    83    84    1
   88    85    86    1
   89    85    87    1
   90    85    88    1
   91    88    89    1
   92    88    90    1
   93    90    91    1
   94    88    92    1
   95    92    93    1
   96    92    94    1
   97    94    95    1
   98    66    96    1
   99    92    96    1
  100    96    97    1
  101    96    98    1
  102    98    99    1
  103    85   100    1
  104    98   100    1
  105    98   101    1
  106   101   102    1
  107   101   103    1
  108   101   104    1
  109   104   105    1
  110   106   107    1
  111    12   108    1
  112   106   108    1
  113   106   109    1
  114   109   110    1
  115   109   111    1
  116   111   112    1
  117   109   113    1
  118   113   114    1
  119   113   115    1
  120   115   116    1
  121    87   117    1
  122   113   117    1
  123   117   118    1
  124   117   119    1
  125   119   120    1
  126   106   121    1
  127   119   121    1
  128   119   122    1
  129   122   123    1
  130   122   124    1
  131   122   125    1
  132   125   126    1
  133   127   128    1
  134   127   129    1
  135   127   130    1
  136   130   131    1
  137   130   132    1
  138   130   133    1
  139   133   134    1
  140   127   135    1
  141   133   135    1
  142   135   136    1
  143   135   137    1
  144   133   138    1
  145   138   139    1
@<TRIPOS>SUBSTRUCTURE
       1 MOL1            1 RESIDUE      1      MOL     
       2 MOL1          139 RESIDUE      1      MOL     
@<SCITEGIC>MOL_PROPERTY
feprocess Rank
SciTegic.value.IntegerValue
77

@<SCITEGIC>MOL_PROPERTY
Conf_Id
SciTegic.value.IntegerValue
357

@<SCITEGIC>MOL_PROPERTY
Probability
SciTegic.value.DoubleValue
0.06

@<SCITEGIC>MOL_PROPERTY
G
SciTegic.value.DoubleValue
548.490

@<SCITEGIC>MOL_PROPERTY
E
SciTegic.value.DoubleValue
369.935

@<SCITEGIC>MOL_PROPERTY
-TS
SciTegic.value.DoubleValue
178.555

@<SCITEGIC>MOL_PROPERTY
U+W
SciTegic.value.DoubleValue
247.424

@<SCITEGIC>MOL_PROPERTY
U
SciTegic.value.DoubleValue
286.399

@<SCITEGIC>MOL_PROPERTY
W
SciTegic.value.DoubleValue
-38.975

@<SCITEGIC>MOL_PROPERTY
W(PB)
SciTegic.value.DoubleValue
-44.892

@<SCITEGIC>MOL_PROPERTY
W(SA)
SciTegic.value.DoubleValue
5.916

@<SCITEGIC>MOL_PROPERTY
Valence
SciTegic.value.DoubleValue
153.720

@<SCITEGIC>MOL_PROPERTY
Coulomb
SciTegic.value.DoubleValue
154.514

@<SCITEGIC>MOL_PROPERTY
VdW
SciTegic.value.DoubleValue
-21.835

@<SCITEGIC>MOL_PROPERTY
VdW6
SciTegic.value.DoubleValue
-168.815

@<SCITEGIC>MOL_PROPERTY
VdW12
SciTegic.value.DoubleValue
146.980

@<SCITEGIC>MOL_PROPERTY
Bond
SciTegic.value.DoubleValue
4.573

@<SCITEGIC>MOL_PROPERTY
Angle
SciTegic.value.DoubleValue
12.236

@<SCITEGIC>MOL_PROPERTY
Pdih
SciTegic.value.DoubleValue
136.911

@<SCITEGIC>MOL_PROPERTY
Idih
SciTegic.value.DoubleValue
0.000

@<SCITEGIC>MOL_PROPERTY
Tether
SciTegic.value.DoubleValue
0.000

@<TRIPOS>MOLECULE
CD_guest-s16_fast_vm2_rndm.mol2 : feprocess host+ligand conformer 78
         139         145           2
SMALL
USER_CHARGES
 
@<TRIPOS>ATOM
       1    C1      16.162738   15.244238   21.553147 C.3        1 MOL1         0.2972
       2    H1      15.076013   15.117153   21.642871 H          1 MOL1         0.0751
       3    O1      16.523372   16.624113   21.357873 O.3        1 MOL1        -0.3740
       4    C2      16.860557   14.744957   22.839834 C.3        1 MOL1         0.1003
       5    H2      16.641499   13.674282   22.943738 H          1 MOL1         0.0783
       6    O2      16.362618   15.447880   23.990010 O.3        1 MOL1        -0.5519
       7    H3      15.885191   16.245850   23.654115 H          1 MOL1         0.3769
       8    C3      18.392132   14.915346   22.726314 C.3        1 MOL1         0.1053
       9    H4      18.610311   15.988385   22.698242 H          1 MOL1         0.0783
      10    O3      19.021339   14.326154   23.868304 O.3        1 MOL1        -0.5519
      11    H5      18.491574   14.640985   24.634913 H          1 MOL1         0.3769
      12    C4      18.948592   14.290485   21.424314 C.3        1 MOL1         0.1018
      13    H6      19.004197   13.201224   21.552498 H          1 MOL1         0.0783
      14    C5      18.097673   14.647661   20.170348 C.3        1 MOL1         0.1043
      15    H7      18.297518   15.698169   19.925001 H          1 MOL1         0.0783
      16    O4      16.679124   14.488948   20.437332 O.3        1 MOL1        -0.3740
      17    C6      18.457464   13.811640   18.919086 C.3        1 MOL1         0.0138
      18    H8      19.446439   14.127961   18.560651 H          1 MOL1         0.0794
      19    H9      17.734591   14.040224   18.124355 H          1 MOL1         0.0794
      20    O5      18.467617   12.405560   19.194976 O.3        1 MOL1        -0.5486
      21    H10     18.623079   11.936394   18.346215 H          1 MOL1         0.3769
      22    C7      14.853754   20.336951   20.520368 C.3        1 MOL1         0.2972
      23    H11     14.236538   21.173178   20.167340 H          1 MOL1         0.0751
      24    O6      16.129343   20.789942   21.018127 O.3        1 MOL1        -0.3740
      25    C8      14.133665   19.528825   21.634748 C.3        1 MOL1         0.1003
      26    H12     13.225715   19.102531   21.188560 H          1 MOL1         0.0783
      27    O7      13.755390   20.359481   22.742077 O.3        1 MOL1        -0.5519
      28    H13     14.583559   20.767995   23.100391 H          1 MOL1         0.3769
      29    C9      15.026036   18.353939   22.107992 C.3        1 MOL1         0.1053
      30    H14     15.923972   18.771915   22.583028 H          1 MOL1         0.0783
      31    O8      14.311055   17.548582   23.050711 O.3        1 MOL1        -0.5519
      32    H15     13.860612   18.188930   23.645852 H          1 MOL1         0.3769
      33    C10     15.470712   17.489511   20.901915 C.3        1 MOL1         0.1018
      34    H16     14.602945   16.925240   20.535721 H          1 MOL1         0.0783
      35    C11     16.045541   18.345587   19.740153 C.3        1 MOL1         0.1043
      36    H17     16.997770   18.778709   20.069332 H          1 MOL1         0.0783
      37    O9      15.117304   19.417391   19.434591 O.3        1 MOL1        -0.3740
      38    C12     16.349603   17.547548   18.444574 C.3        1 MOL1         0.0138
      39    H18     17.387279   17.193835   18.492815 H          1 MOL1         0.0794
      40    H19     16.288354   18.232561   17.588437 H          1 MOL1         0.0794
      41    O10     15.475442   16.429402   18.244711 O.3        1 MOL1        -0.5486
      42    H20     15.722468   15.744316   18.908305 H          1 MOL1         0.3769
      43    C13     18.532670   23.904403   22.103180 C.3        1 MOL1         0.2972
      44    H21     19.006235   24.847355   22.405179 H          1 MOL1         0.0751
      45    O11     19.521455   22.909827   21.756477 O.3        1 MOL1        -0.3740
      46    C14     17.647784   23.372465   23.257139 C.3        1 MOL1         0.1003
      47    H22     16.862429   24.118452   23.435602 H          1 MOL1         0.0783
      48    O12     18.408864   23.194158   24.462779 O.3        1 MOL1        -0.5519
      49    H23     19.128439   22.546556   24.264741 H          1 MOL1         0.3769
      50    C15     16.966007   22.047319   22.858014 C.3        1 MOL1         0.1053
      51    H24     17.751024   21.292655   22.754000 H          1 MOL1         0.0783
      52    O13     16.060340   21.652529   23.891996 O.3        1 MOL1        -0.5519
      53    H25     16.555818   21.792009   24.730080 H          1 MOL1         0.3769
      54    C16     16.229015   22.144745   21.499202 C.3        1 MOL1         0.1018
      55    H26     15.245725   22.608230   21.654618 H          1 MOL1         0.0783
      56    C17     17.037971   22.918989   20.418600 C.3        1 MOL1         0.1043
      57    H27     17.816767   22.238927   20.060105 H          1 MOL1         0.0783
      58    O14     17.676305   24.106800   20.957783 O.3        1 MOL1        -0.3740
      59    C18     16.190590   23.325434   19.189530 C.3        1 MOL1         0.0138
      60    H28     15.927574   22.416561   18.631515 H          1 MOL1         0.0794
      61    H29     16.806374   23.947679   18.526296 H          1 MOL1         0.0794
      62    O15     14.999283   24.026434   19.566073 O.3        1 MOL1        -0.5486
      63    H30     14.551766   24.318591   18.741923 H          1 MOL1         0.3769
      64    C19     23.533641   22.593617   20.752301 C.3        1 MOL1         0.2972
      65    H31     24.547523   22.695370   20.344207 H          1 MOL1         0.0751
      66    O16     23.342833   21.325924   21.406409 O.3        1 MOL1        -0.3740
      67    C20     23.235663   23.705249   21.787589 C.3        1 MOL1         0.1003
      68    H32     23.338136   24.669094   21.272282 H          1 MOL1         0.0783
      69    O17     24.168724   23.646971   22.879662 O.3        1 MOL1        -0.5519
      70    H33     24.161366   22.717303   23.221578 H          1 MOL1         0.3769
      71    C21     21.784459   23.596236   22.320946 C.3        1 MOL1         0.1053
      72    H34     21.736693   22.709620   22.964762 H          1 MOL1         0.0783
      73    O18     21.490419   24.766760   23.089059 O.3        1 MOL1        -0.5519
      74    H35     22.236660   24.856640   23.721393 H          1 MOL1         0.3769
      75    C22     20.740047   23.429389   21.179202 C.3        1 MOL1         0.1018
      76    H36     20.580461   24.410803   20.714068 H          1 MOL1         0.0783
      77    C23     21.190193   22.418591   20.085843 C.3        1 MOL1         0.1043
      78    H37     21.136957   21.407138   20.507923 H          1 MOL1         0.0783
      79    O19     22.554757   22.703444   19.698165 O.3        1 MOL1        -0.3740
      80    C24     20.312778   22.410973   18.806839 C.3        1 MOL1         0.0138
      81    H38     19.509820   21.676112   18.940851 H          1 MOL1         0.0794
      82    H39     20.922901   22.053008   17.966764 H          1 MOL1         0.0794
      83    O20     19.753762   23.693564   18.492657 O.3        1 MOL1        -0.5486
      84    H40     19.156936   23.947988   19.232433 H          1 MOL1         0.3769
      85    C25     25.056668   17.664055   22.061491 C.3        1 MOL1         0.2972
      86    H41     25.705555   16.795219   22.232460 H          1 MOL1         0.0751
      87    O21     23.677367   17.267700   21.916756 O.3        1 MOL1        -0.3740
      88    C26     25.166254   18.637177   23.260115 C.3        1 MOL1         0.1003
      89    H42     26.211708   18.965154   23.327978 H          1 MOL1         0.0783
      90    O22     24.795608   17.967085   24.474753 O.3        1 MOL1        -0.5519
      91    H43     24.170178   17.249594   24.216670 H          1 MOL1         0.3769
      92    C27     24.284313   19.888108   23.042706 C.3        1 MOL1         0.1053
      93    H44     23.236255   19.570859   23.104943 H          1 MOL1         0.0783
      94    O23     24.550802   20.853851   24.065812 O.3        1 MOL1        -0.5519
      95    H45     24.499976   20.352573   24.909584 H          1 MOL1         0.3769
      96    C28     24.516722   20.532405   21.653810 C.3        1 MOL1         0.1018
      97    H46     25.428496   21.142972   21.697530 H          1 MOL1         0.0783
      98    C29     24.610139   19.494541   20.499700 C.3        1 MOL1         0.1043
      99    H47     23.592658   19.131848   20.314241 H          1 MOL1         0.0783
     100    O24     25.451983   18.372608   20.869857 O.3        1 MOL1        -0.3740
     101    C30     25.138658   20.080242   19.168011 C.3        1 MOL1         0.0138
     102    H48     24.364790   20.730778   18.739016 H          1 MOL1         0.0794
     103    H49     25.297396   19.255858   18.459814 H          1 MOL1         0.0794
     104    O25     26.351765   20.820542   19.349122 O.3        1 MOL1        -0.5486
     105    H50     26.673850   21.087714   18.460581 H          1 MOL1         0.3769
     106    C31     21.316339   14.000702   20.839852 C.3        1 MOL1         0.2972
     107    H51     20.934642   13.047847   20.450809 H          1 MOL1         0.0751
     108    O26     20.246829   14.883908   21.229966 O.3        1 MOL1        -0.3740
     109    C32     22.245430   13.776187   22.062277 C.3        1 MOL1         0.1003
     110    H52     23.089016   13.162159   21.721051 H          1 MOL1         0.0783
     111    O27     21.564195   13.086074   23.121435 O.3        1 MOL1        -0.5519
     112    H53     20.739842   13.596824   23.325619 H          1 MOL1         0.3769
     113    C33     22.813287   15.124845   22.570462 C.3        1 MOL1         0.1053
     114    H54     21.979319   15.711665   22.977527 H          1 MOL1         0.0783
     115    O28     23.778636   14.883430   23.599221 O.3        1 MOL1        -0.5519
     116    H55     23.366679   14.211277   24.186440 H          1 MOL1         0.3769
     117    C34     23.462658   15.932147   21.416722 C.3        1 MOL1         0.1018
     118    H56     24.404887   15.440363   21.141191 H          1 MOL1         0.0783
     119    C35     22.544711   16.009522   20.161385 C.3        1 MOL1         0.1043
     120    H57     21.678099   16.638905   20.402601 H          1 MOL1         0.0783
     121    O29     22.091391   14.674730   19.826057 O.3        1 MOL1        -0.3740
     122    C36     23.205708   16.613669   18.894221 C.3        1 MOL1         0.0138
     123    H58     23.011289   17.691956   18.874720 H          1 MOL1         0.0794
     124    H59     22.707314   16.194576   18.009853 H          1 MOL1         0.0794
     125    O30     24.615903   16.372510   18.816317 O.3        1 MOL1        -0.5486
     126    H60     25.049084   16.955641   19.483087 H          1 MOL1         0.3769
     127    C1      19.161371   18.838086   21.998404 C.3        1 MOL1        -0.1693
     128    H1      18.822901   17.985691   21.400173 H          1 MOL1         0.0829
     129    H2      18.851733   19.761284   21.494573 H          1 MOL1         0.0829
     130    C2      20.661525   18.799847   22.429686 C.3        1 MOL1        -0.1768
     131    H3      21.061191   17.790074   22.569015 H          1 MOL1         0.0829
     132    H4      21.356121   19.366119   21.801573 H          1 MOL1         0.0829
     133    C3      20.209461   19.485615   23.756161 C.3        1 MOL1         0.1211
     134    H5      20.751201   19.158693   24.652536 H          1 MOL1         0.0786
     135    C4      18.840682   18.775204   23.530795 C.3        1 MOL1        -0.1768
     136    H6      18.797111   17.766426   23.954579 H          1 MOL1         0.0829
     137    H7      17.954895   19.322506   23.868241 H          1 MOL1         0.0829
     138    O1      20.160784   20.893321   23.714765 O.3        1 MOL1        -0.5515
     139    H8      19.972642   21.142014   22.785763 H          1 MOL1         0.3773
@<TRIPOS>BOND
    1     1     2    1
    2     1     3    1
    3     1     4    1
    4     4     5    1
    5     4     6    1
    6     6     7    1
    7     4     8    1
    8     8     9    1
    9     8    10    1
   10    10    11    1
   11     8    12    1
   12    12    13    1
   13    12    14    1
   14    14    15    1
   15     1    16    1
   16    14    16    1
   17    14    17    1
   18    17    18    1
   19    17    19    1
   20    17    20    1
   21    20    21    1
   22    22    23    1
   23    22    24    1
   24    22    25    1
   25    25    26    1
   26    25    27    1
   27    27    28    1
   28    25    29    1
   29    29    30    1
   30    29    31    1
   31    31    32    1
   32     3    33    1
   33    29    33    1
   34    33    34    1
   35    33    35    1
   36    35    36    1
   37    22    37    1
   38    35    37    1
   39    35    38    1
   40    38    39    1
   41    38    40    1
   42    38    41    1
   43    41    42    1
   44    43    44    1
   45    43    45    1
   46    43    46    1
   47    46    47    1
   48    46    48    1
   49    48    49    1
   50    46    50    1
   51    50    51    1
   52    50    52    1
   53    52    53    1
   54    24    54    1
   55    50    54    1
   56    54    55    1
   57    54    56    1
   58    56    57    1
   59    43    58    1
   60    56    58    1
   61    56    59    1
   62    59    60    1
   63    59    61    1
   64    59    62    1
   65    62    63    1
   66    64    65    1
   67    64    66    1
   68    64    67    1
   69    67    68    1
   70    67    69    1
   71    69    70    1
   72    67    71    1
   73    71    72    1
   74    71    73    1
   75    73    74    1
   76    45    75    1
   77    71    75    1
   78    75    76    1
   79    75    77    1
   80    77    78    1
   81    64    79    1
   82    77    79    1
   83    77    80    1
   84    80    81    1
   85    80    82    1
   86    80    83    1
   87    83    84    1
   88    85    86    1
   89    85    87    1
   90    85    88    1
   91    88    89    1
   92    88    90    1
   93    90    91    1
   94    88    92    1
   95    92    93    1
   96    92    94    1
   97    94    95    1
   98    66    96    1
   99    92    96    1
  100    96    97    1
  101    96    98    1
  102    98    99    1
  103    85   100    1
  104    98   100    1
  105    98   101    1
  106   101   102    1
  107   101   103    1
  108   101   104    1
  109   104   105    1
  110   106   107    1
  111    12   108    1
  112   106   108    1
  113   106   109    1
  114   109   110    1
  115   109   111    1
  116   111   112    1
  117   109   113    1
  118   113   114    1
  119   113   115    1
  120   115   116    1
  121    87   117    1
  122   113   117    1
  123   117   118    1
  124   117   119    1
  125   119   120    1
  126   106   121    1
  127   119   121    1
  128   119   122    1
  129   122   123    1
  130   122   124    1
  131   122   125    1
  132   125   126    1
  133   127   128    1
  134   127   129    1
  135   127   130    1
  136   130   131    1
  137   130   132    1
  138   130   133    1
  139   133   134    1
  140   127   135    1
  141   133   135    1
  142   135   136    1
  143   135   137    1
  144   133   138    1
  145   138   139    1
@<TRIPOS>SUBSTRUCTURE
       1 MOL1            1 RESIDUE      1      MOL     
       2 MOL1          139 RESIDUE      1      MOL     
@<SCITEGIC>MOL_PROPERTY
feprocess Rank
SciTegic.value.IntegerValue
78

@<SCITEGIC>MOL_PROPERTY
Conf_Id
SciTegic.value.IntegerValue
95

@<SCITEGIC>MOL_PROPERTY
Probability
SciTegic.value.DoubleValue
0.06

@<SCITEGIC>MOL_PROPERTY
G
SciTegic.value.DoubleValue
548.516

@<SCITEGIC>MOL_PROPERTY
E
SciTegic.value.DoubleValue
369.465

@<SCITEGIC>MOL_PROPERTY
-TS
SciTegic.value.DoubleValue
179.051

@<SCITEGIC>MOL_PROPERTY
U+W
SciTegic.value.DoubleValue
246.954

@<SCITEGIC>MOL_PROPERTY
U
SciTegic.value.DoubleValue
283.503

@<SCITEGIC>MOL_PROPERTY
W
SciTegic.value.DoubleValue
-36.549

@<SCITEGIC>MOL_PROPERTY
W(PB)
SciTegic.value.DoubleValue
-42.530

@<SCITEGIC>MOL_PROPERTY
W(SA)
SciTegic.value.DoubleValue
5.981

@<SCITEGIC>MOL_PROPERTY
Valence
SciTegic.value.DoubleValue
152.725

@<SCITEGIC>MOL_PROPERTY
Coulomb
SciTegic.value.DoubleValue
151.469

@<SCITEGIC>MOL_PROPERTY
VdW
SciTegic.value.DoubleValue
-20.690

@<SCITEGIC>MOL_PROPERTY
VdW6
SciTegic.value.DoubleValue
-169.380

@<SCITEGIC>MOL_PROPERTY
VdW12
SciTegic.value.DoubleValue
148.690

@<SCITEGIC>MOL_PROPERTY
Bond
SciTegic.value.DoubleValue
4.661

@<SCITEGIC>MOL_PROPERTY
Angle
SciTegic.value.DoubleValue
12.248

@<SCITEGIC>MOL_PROPERTY
Pdih
SciTegic.value.DoubleValue
135.816

@<SCITEGIC>MOL_PROPERTY
Idih
SciTegic.value.DoubleValue
0.000

@<SCITEGIC>MOL_PROPERTY
Tether
SciTegic.value.DoubleValue
0.000

@<TRIPOS>MOLECULE
CD_guest-s16_fast_vm2_rndm.mol2 : feprocess host+ligand conformer 79
         139         145           2
SMALL
USER_CHARGES
 
@<TRIPOS>ATOM
       1    C1      16.245725   15.154208   20.735493 C.3        1 MOL1         0.2972
       2    H1      15.209095   15.016736   20.401721 H          1 MOL1         0.0751
       3    O1      16.521096   16.530625   21.068937 O.3        1 MOL1        -0.3740
       4    C2      16.566403   14.268416   21.969423 C.3        1 MOL1         0.1003
       5    H2      16.457404   13.222095   21.655635 H          1 MOL1         0.0783
       6    O2      15.664702   14.521918   23.056762 O.3        1 MOL1        -0.5519
       7    H3      15.723069   15.488078   23.268500 H          1 MOL1         0.3769
       8    C3      18.035040   14.481971   22.413062 C.3        1 MOL1         0.1053
       9    H4      18.139616   15.518207   22.761724 H          1 MOL1         0.0783
      10    O3      18.360489   13.580075   23.476073 O.3        1 MOL1        -0.5519
      11    H5      17.589091   13.611820   24.084808 H          1 MOL1         0.3769
      12    C4      19.005684   14.266276   21.225163 C.3        1 MOL1         0.1018
      13    H6      19.045017   13.191705   21.003650 H          1 MOL1         0.0783
      14    C5      18.563123   15.034212   19.947339 C.3        1 MOL1         0.1043
      15    H7      18.690657   16.106482   20.129353 H          1 MOL1         0.0783
      16    O4      17.162406   14.764580   19.686722 O.3        1 MOL1        -0.3740
      17    C6      19.382528   14.704765   18.671745 C.3        1 MOL1         0.0138
      18    H8      20.225425   15.404173   18.610078 H          1 MOL1         0.0794
      19    H9      18.751402   14.893560   17.793089 H          1 MOL1         0.0794
      20    O5      19.876336   13.360403   18.641472 O.3        1 MOL1        -0.5486
      21    H10     20.654470   13.326513   19.245448 H          1 MOL1         0.3769
      22    C7      14.920708   20.288615   21.580382 C.3        1 MOL1         0.2972
      23    H11     14.293112   21.177912   21.723814 H          1 MOL1         0.0751
      24    O6      16.290064   20.642742   21.305794 O.3        1 MOL1        -0.3740
      25    C8      14.893418   19.413516   22.854749 C.3        1 MOL1         0.1003
      26    H12     13.856529   19.089269   23.012619 H          1 MOL1         0.0783
      27    O7      15.338318   20.163532   23.997583 O.3        1 MOL1        -0.5519
      28    H13     15.633664   21.046777   23.665783 H          1 MOL1         0.3769
      29    C9      15.770436   18.156538   22.662686 C.3        1 MOL1         0.1053
      30    H14     16.810440   18.490756   22.574366 H          1 MOL1         0.0783
      31    O8      15.633476   17.311011   23.807869 O.3        1 MOL1        -0.5519
      32    H15     15.702775   17.921903   24.575873 H          1 MOL1         0.3769
      33    C10     15.400775   17.386418   21.368190 C.3        1 MOL1         0.1018
      34    H16     14.479182   16.816285   21.545496 H          1 MOL1         0.0783
      35    C11     15.229455   18.327605   20.139909 C.3        1 MOL1         0.1043
      36    H17     16.230036   18.658451   19.834448 H          1 MOL1         0.0783
      37    O9      14.434755   19.494168   20.478146 O.3        1 MOL1        -0.3740
      38    C12     14.586537   17.632218   18.916389 C.3        1 MOL1         0.0138
      39    H18     15.308831   16.914393   18.504417 H          1 MOL1         0.0794
      40    H19     14.399079   18.387490   18.141305 H          1 MOL1         0.0794
      41    O10     13.370629   16.955347   19.258332 O.3        1 MOL1        -0.5486
      42    H20     12.981855   16.603372   18.427879 H          1 MOL1         0.3769
      43    C13     18.599222   24.034232   20.573454 C.3        1 MOL1         0.2972
      44    H21     18.982809   25.003587   20.231908 H          1 MOL1         0.0751
      45    O11     19.652935   23.199678   21.095106 O.3        1 MOL1        -0.3740
      46    C14     17.495896   24.209637   21.653451 C.3        1 MOL1         0.1003
      47    H22     16.667456   24.752133   21.179436 H          1 MOL1         0.0783
      48    O12     17.959441   24.973218   22.776485 O.3        1 MOL1        -0.5519
      49    H23     18.703977   24.467759   23.189941 H          1 MOL1         0.3769
      50    C15     16.957763   22.828970   22.107157 C.3        1 MOL1         0.1053
      51    H24     17.771183   22.289339   22.610680 H          1 MOL1         0.0783
      52    O13     15.864843   23.010219   23.013677 O.3        1 MOL1        -0.5519
      53    H25     16.144192   23.740697   23.610380 H          1 MOL1         0.3769
      54    C16     16.502804   21.998788   20.879267 C.3        1 MOL1         0.1018
      55    H26     15.585884   22.446129   20.473313 H          1 MOL1         0.0783
      56    C17     17.578908   21.961880   19.761609 C.3        1 MOL1         0.1043
      57    H27     18.437428   21.384750   20.127171 H          1 MOL1         0.0783
      58    O14     18.001484   23.318334   19.467157 O.3        1 MOL1        -0.3740
      59    C18     17.110798   21.272874   18.452892 C.3        1 MOL1         0.0138
      60    H28     17.321675   20.198874   18.535797 H          1 MOL1         0.0794
      61    H29     17.717109   21.652533   17.619734 H          1 MOL1         0.0794
      62    O15     15.716900   21.463537   18.177543 O.3        1 MOL1        -0.5486
      63    H30     15.213525   20.948126   18.848454 H          1 MOL1         0.3769
      64    C19     23.442034   22.661650   22.404664 C.3        1 MOL1         0.2972
      65    H31     24.474682   22.679666   22.775848 H          1 MOL1         0.0751
      66    O16     23.075968   21.344685   21.940241 O.3        1 MOL1        -0.3740
      67    C20     22.475181   23.101075   23.529932 C.3        1 MOL1         0.1003
      68    H32     22.730792   24.135250   23.794710 H          1 MOL1         0.0783
      69    O17     22.614430   22.267707   24.690520 O.3        1 MOL1        -0.5519
      70    H33     22.319752   21.359839   24.428541 H          1 MOL1         0.3769
      71    C21     21.013393   23.075778   23.038323 C.3        1 MOL1         0.1053
      72    H34     20.747564   22.027800   22.877698 H          1 MOL1         0.0783
      73    O18     20.164292   23.627704   24.048111 O.3        1 MOL1        -0.5519
      74    H35     20.475569   23.224929   24.889669 H          1 MOL1         0.3769
      75    C22     20.808933   23.819864   21.693912 C.3        1 MOL1         0.1018
      76    H36     20.656826   24.888117   21.893160 H          1 MOL1         0.0783
      77    C23     21.968946   23.605352   20.677623 C.3        1 MOL1         0.1043
      78    H37     21.801455   22.627202   20.217646 H          1 MOL1         0.0783
      79    O19     23.273930   23.591834   21.313408 O.3        1 MOL1        -0.3740
      80    C24     21.989694   24.644429   19.530474 C.3        1 MOL1         0.0138
      81    H38     21.077908   24.527507   18.929292 H          1 MOL1         0.0794
      82    H39     22.839058   24.418224   18.872190 H          1 MOL1         0.0794
      83    O20     22.094035   25.990759   20.011753 O.3        1 MOL1        -0.5486
      84    H40     21.250792   26.230862   20.448801 H          1 MOL1         0.3769
      85    C25     24.810591   17.751673   20.766714 C.3        1 MOL1         0.2972
      86    H41     25.429120   16.957783   20.328440 H          1 MOL1         0.0751
      87    O21     23.573566   17.234581   21.293076 O.3        1 MOL1        -0.3740
      88    C26     25.563706   18.478589   21.909476 C.3        1 MOL1         0.1003
      89    H42     26.475975   18.905077   21.472403 H          1 MOL1         0.0783
      90    O22     25.929837   17.563175   22.954623 O.3        1 MOL1        -0.5519
      91    H43     25.106748   17.086559   23.232598 H          1 MOL1         0.3769
      92    C27     24.724358   19.647915   22.486603 C.3        1 MOL1         0.1053
      93    H44     23.883273   19.220269   23.047564 H          1 MOL1         0.0783
      94    O23     25.555353   20.409402   23.367949 O.3        1 MOL1        -0.5519
      95    H45     25.971258   19.750694   23.966416 H          1 MOL1         0.3769
      96    C28     24.148782   20.564297   21.369727 C.3        1 MOL1         0.1018
      97    H46     24.958701   21.204374   20.996591 H          1 MOL1         0.0783
      98    C29     23.550229   19.759111   20.179918 C.3        1 MOL1         0.1043
      99    H47     22.623034   19.280163   20.518088 H          1 MOL1         0.0783
     100    O24     24.488974   18.739008   19.766204 O.3        1 MOL1        -0.3740
     101    C30     23.185684   20.608945   18.935189 C.3        1 MOL1         0.0138
     102    H48     22.145660   20.942162   19.033997 H          1 MOL1         0.0794
     103    H49     23.219317   19.961817   18.048497 H          1 MOL1         0.0794
     104    O25     24.048286   21.739010   18.747290 O.3        1 MOL1        -0.5486
     105    H50     23.944615   22.326774   19.529526 H          1 MOL1         0.3769
     106    C31     21.343158   13.814330   21.757949 C.3        1 MOL1         0.2972
     107    H51     20.949720   12.796409   21.875761 H          1 MOL1         0.0751
     108    O26     20.283842   14.783116   21.637607 O.3        1 MOL1        -0.3740
     109    C32     22.195745   14.190097   22.992341 C.3        1 MOL1         0.1003
     110    H52     23.033127   13.482395   23.047831 H          1 MOL1         0.0783
     111    O27     21.407000   14.093184   24.189409 O.3        1 MOL1        -0.5519
     112    H53     20.461514   14.187021   23.916997 H          1 MOL1         0.3769
     113    C33     22.777975   15.614078   22.842573 C.3        1 MOL1         0.1053
     114    H54     21.944947   16.323779   22.888024 H          1 MOL1         0.0783
     115    O28     23.689164   15.875726   23.914735 O.3        1 MOL1        -0.5519
     116    H55     23.213607   15.589482   24.726374 H          1 MOL1         0.3769
     117    C34     23.492502   15.809673   21.483784 C.3        1 MOL1         0.1018
     118    H56     24.484318   15.341293   21.538634 H          1 MOL1         0.0783
     119    C35     22.686160   15.234754   20.282915 C.3        1 MOL1         0.1043
     120    H57     21.839851   15.908825   20.101208 H          1 MOL1         0.0783
     121    O29     22.176721   13.909714   20.584872 O.3        1 MOL1        -0.3740
     122    C36     23.497951   15.157236   18.967835 C.3        1 MOL1         0.0138
     123    H58     23.656518   16.177899   18.594220 H          1 MOL1         0.0794
     124    H59     22.898897   14.625134   18.216591 H          1 MOL1         0.0794
     125    O30     24.760481   14.505025   19.151229 O.3        1 MOL1        -0.5486
     126    H60     25.182025   14.417559   18.268482 H          1 MOL1         0.3769
     127    C1      19.567877   18.276108   21.588419 C.3        1 MOL1        -0.1693
     128    H1      20.297686   17.712941   20.992502 H          1 MOL1         0.0829
     129    H2      18.580464   18.173322   21.128463 H          1 MOL1         0.0829
     130    C2      19.995157   19.734534   21.939146 C.3        1 MOL1        -0.1768
     131    H3      20.580892   20.264511   21.181733 H          1 MOL1         0.0829
     132    H4      19.171771   20.381762   22.263635 H          1 MOL1         0.0829
     133    C3      20.804709   19.075815   23.097081 C.3        1 MOL1         0.1211
     134    H5      21.771177   18.664143   22.782103 H          1 MOL1         0.0786
     135    C4      19.651950   18.027662   23.131914 C.3        1 MOL1        -0.1768
     136    H6      18.768413   18.338058   23.701800 H          1 MOL1         0.0829
     137    H7      19.927069   17.017091   23.448310 H          1 MOL1         0.0829
     138    O1      20.954528   19.854314   24.259981 O.3        1 MOL1        -0.5515
     139    H8      20.052856   20.031316   24.594799 H          1 MOL1         0.3773
@<TRIPOS>BOND
    1     1     2    1
    2     1     3    1
    3     1     4    1
    4     4     5    1
    5     4     6    1
    6     6     7    1
    7     4     8    1
    8     8     9    1
    9     8    10    1
   10    10    11    1
   11     8    12    1
   12    12    13    1
   13    12    14    1
   14    14    15    1
   15     1    16    1
   16    14    16    1
   17    14    17    1
   18    17    18    1
   19    17    19    1
   20    17    20    1
   21    20    21    1
   22    22    23    1
   23    22    24    1
   24    22    25    1
   25    25    26    1
   26    25    27    1
   27    27    28    1
   28    25    29    1
   29    29    30    1
   30    29    31    1
   31    31    32    1
   32     3    33    1
   33    29    33    1
   34    33    34    1
   35    33    35    1
   36    35    36    1
   37    22    37    1
   38    35    37    1
   39    35    38    1
   40    38    39    1
   41    38    40    1
   42    38    41    1
   43    41    42    1
   44    43    44    1
   45    43    45    1
   46    43    46    1
   47    46    47    1
   48    46    48    1
   49    48    49    1
   50    46    50    1
   51    50    51    1
   52    50    52    1
   53    52    53    1
   54    24    54    1
   55    50    54    1
   56    54    55    1
   57    54    56    1
   58    56    57    1
   59    43    58    1
   60    56    58    1
   61    56    59    1
   62    59    60    1
   63    59    61    1
   64    59    62    1
   65    62    63    1
   66    64    65    1
   67    64    66    1
   68    64    67    1
   69    67    68    1
   70    67    69    1
   71    69    70    1
   72    67    71    1
   73    71    72    1
   74    71    73    1
   75    73    74    1
   76    45    75    1
   77    71    75    1
   78    75    76    1
   79    75    77    1
   80    77    78    1
   81    64    79    1
   82    77    79    1
   83    77    80    1
   84    80    81    1
   85    80    82    1
   86    80    83    1
   87    83    84    1
   88    85    86    1
   89    85    87    1
   90    85    88    1
   91    88    89    1
   92    88    90    1
   93    90    91    1
   94    88    92    1
   95    92    93    1
   96    92    94    1
   97    94    95    1
   98    66    96    1
   99    92    96    1
  100    96    97    1
  101    96    98    1
  102    98    99    1
  103    85   100    1
  104    98   100    1
  105    98   101    1
  106   101   102    1
  107   101   103    1
  108   101   104    1
  109   104   105    1
  110   106   107    1
  111    12   108    1
  112   106   108    1
  113   106   109    1
  114   109   110    1
  115   109   111    1
  116   111   112    1
  117   109   113    1
  118   113   114    1
  119   113   115    1
  120   115   116    1
  121    87   117    1
  122   113   117    1
  123   117   118    1
  124   117   119    1
  125   119   120    1
  126   106   121    1
  127   119   121    1
  128   119   122    1
  129   122   123    1
  130   122   124    1
  131   122   125    1
  132   125   126    1
  133   127   128    1
  134   127   129    1
  135   127   130    1
  136   130   131    1
  137   130   132    1
  138   130   133    1
  139   133   134    1
  140   127   135    1
  141   133   135    1
  142   135   136    1
  143   135   137    1
  144   133   138    1
  145   138   139    1
@<TRIPOS>SUBSTRUCTURE
       1 MOL1            1 RESIDUE      1      MOL     
       2 MOL1          139 RESIDUE      1      MOL     
@<SCITEGIC>MOL_PROPERTY
feprocess Rank
SciTegic.value.IntegerValue
79

@<SCITEGIC>MOL_PROPERTY
Conf_Id
SciTegic.value.IntegerValue
769

@<SCITEGIC>MOL_PROPERTY
Probability
SciTegic.value.DoubleValue
0.05

@<SCITEGIC>MOL_PROPERTY
G
SciTegic.value.DoubleValue
548.540

@<SCITEGIC>MOL_PROPERTY
E
SciTegic.value.DoubleValue
369.270

@<SCITEGIC>MOL_PROPERTY
-TS
SciTegic.value.DoubleValue
179.270

@<SCITEGIC>MOL_PROPERTY
U+W
SciTegic.value.DoubleValue
246.759

@<SCITEGIC>MOL_PROPERTY
U
SciTegic.value.DoubleValue
286.248

@<SCITEGIC>MOL_PROPERTY
W
SciTegic.value.DoubleValue
-39.489

@<SCITEGIC>MOL_PROPERTY
W(PB)
SciTegic.value.DoubleValue
-45.496

@<SCITEGIC>MOL_PROPERTY
W(SA)
SciTegic.value.DoubleValue
6.007

@<SCITEGIC>MOL_PROPERTY
Valence
SciTegic.value.DoubleValue
153.103

@<SCITEGIC>MOL_PROPERTY
Coulomb
SciTegic.value.DoubleValue
154.697

@<SCITEGIC>MOL_PROPERTY
VdW
SciTegic.value.DoubleValue
-21.553

@<SCITEGIC>MOL_PROPERTY
VdW6
SciTegic.value.DoubleValue
-170.067

@<SCITEGIC>MOL_PROPERTY
VdW12
SciTegic.value.DoubleValue
148.514

@<SCITEGIC>MOL_PROPERTY
Bond
SciTegic.value.DoubleValue
4.706

@<SCITEGIC>MOL_PROPERTY
Angle
SciTegic.value.DoubleValue
13.527

@<SCITEGIC>MOL_PROPERTY
Pdih
SciTegic.value.DoubleValue
134.870

@<SCITEGIC>MOL_PROPERTY
Idih
SciTegic.value.DoubleValue
0.000

@<SCITEGIC>MOL_PROPERTY
Tether
SciTegic.value.DoubleValue
0.000

@<TRIPOS>MOLECULE
CD_guest-s16_fast_vm2_rndm.mol2 : feprocess host+ligand conformer 80
         139         145           2
SMALL
USER_CHARGES
 
@<TRIPOS>ATOM
       1    C1      16.243201   15.318833   20.700333 C.3        1 MOL1         0.2972
       2    H1      15.215489   15.197783   20.334176 H          1 MOL1         0.0751
       3    O1      16.461533   16.634220   21.247801 O.3        1 MOL1        -0.3740
       4    C2      16.560237   14.275078   21.802622 C.3        1 MOL1         0.1003
       5    H2      16.410077   13.280678   21.362531 H          1 MOL1         0.0783
       6    O2      15.680687   14.426825   22.928480 O.3        1 MOL1        -0.5519
       7    H3      15.651261   15.391053   23.155781 H          1 MOL1         0.3769
       8    C3      18.039112   14.375674   22.252949 C.3        1 MOL1         0.1053
       9    H4      18.177496   15.338173   22.764125 H          1 MOL1         0.0783
      10    O3      18.336796   13.301325   23.151694 O.3        1 MOL1        -0.5519
      11    H5      17.585700   13.281852   23.785471 H          1 MOL1         0.3769
      12    C4      19.002726   14.328493   21.040326 C.3        1 MOL1         0.1018
      13    H6      18.990031   13.308512   20.634194 H          1 MOL1         0.0783
      14    C5      18.573075   15.337456   19.934283 C.3        1 MOL1         0.1043
      15    H7      18.702491   16.352332   20.326754 H          1 MOL1         0.0783
      16    O4      17.176873   15.121619   19.618463 O.3        1 MOL1        -0.3740
      17    C6      19.363147   15.261403   18.603560 C.3        1 MOL1         0.0138
      18    H8      20.240544   15.913503   18.679342 H          1 MOL1         0.0794
      19    H9      18.735076   15.674307   17.802848 H          1 MOL1         0.0794
      20    O5      19.774400   13.933209   18.263934 O.3        1 MOL1        -0.5486
      21    H10     20.648678   13.794425   18.694326 H          1 MOL1         0.3769
      22    C7      14.636600   20.318001   21.696736 C.3        1 MOL1         0.2972
      23    H11     13.952767   21.171603   21.787382 H          1 MOL1         0.0751
      24    O6      16.015403   20.730862   21.690611 O.3        1 MOL1        -0.3740
      25    C8      14.438432   19.350100   22.887701 C.3        1 MOL1         0.1003
      26    H12     13.410498   18.967613   22.840760 H          1 MOL1         0.0783
      27    O7      14.635307   20.034326   24.135590 O.3        1 MOL1        -0.5519
      28    H13     15.257699   20.784066   23.961317 H          1 MOL1         0.3769
      29    C9      15.404688   18.149651   22.770442 C.3        1 MOL1         0.1053
      30    H14     16.426049   18.530937   22.881593 H          1 MOL1         0.0783
      31    O8      15.124524   17.205559   23.808843 O.3        1 MOL1        -0.5519
      32    H15     15.030727   17.748512   24.623393 H          1 MOL1         0.3769
      33    C10     15.290998   17.465577   21.386664 C.3        1 MOL1         0.1018
      34    H16     14.363998   16.877023   21.372248 H          1 MOL1         0.0783
      35    C11     15.294586   18.483892   20.208588 C.3        1 MOL1         0.1043
      36    H17     16.315384   18.874559   20.107728 H          1 MOL1         0.0783
      37    O9      14.388945   19.587607   20.477545 O.3        1 MOL1        -0.3740
      38    C12     14.906065   17.858582   18.847454 C.3        1 MOL1         0.0138
      39    H18     15.725912   17.207912   18.514718 H          1 MOL1         0.0794
      40    H19     14.808409   18.663660   18.106833 H          1 MOL1         0.0794
      41    O10     13.689612   17.105200   18.927567 O.3        1 MOL1        -0.5486
      42    H20     13.468897   16.798722   18.021034 H          1 MOL1         0.3769
      43    C13     18.462966   24.064771   21.266452 C.3        1 MOL1         0.2972
      44    H21     18.851024   25.076771   21.093424 H          1 MOL1         0.0751
      45    O11     19.527111   23.120264   21.499104 O.3        1 MOL1        -0.3740
      46    C14     17.554527   24.063120   22.520675 C.3        1 MOL1         0.1003
      47    H22     16.730874   24.765001   22.336035 H          1 MOL1         0.0783
      48    O12     18.295774   24.491717   23.674302 O.3        1 MOL1        -0.5519
      49    H23     19.242759   24.261063   23.506949 H          1 MOL1         0.3769
      50    C15     16.946440   22.660770   22.757385 C.3        1 MOL1         0.1053
      51    H24     17.761473   21.976112   23.028930 H          1 MOL1         0.0783
      52    O13     15.994368   22.723375   23.823839 O.3        1 MOL1        -0.5519
      53    H25     16.436777   23.247989   24.528302 H          1 MOL1         0.3769
      54    C16     16.268867   22.128289   21.471378 C.3        1 MOL1         0.1018
      55    H26     15.346611   22.697786   21.296637 H          1 MOL1         0.0783
      56    C17     17.195527   22.249859   20.230061 C.3        1 MOL1         0.1043
      57    H27     18.044624   21.571053   20.372128 H          1 MOL1         0.0783
      58    O14     17.690765   23.609460   20.131778 O.3        1 MOL1        -0.3740
      59    C18     16.532550   21.852145   18.885517 C.3        1 MOL1         0.0138
      60    H28     16.667580   20.772856   18.738646 H          1 MOL1         0.0794
      61    H29     17.067372   22.354348   18.068285 H          1 MOL1         0.0794
      62    O15     15.136791   22.166566   18.826935 O.3        1 MOL1        -0.5486
      63    H30     14.663069   21.452261   19.311725 H          1 MOL1         0.3769
      64    C19     23.609128   22.581974   20.777594 C.3        1 MOL1         0.2972
      65    H31     24.645636   22.695161   20.434368 H          1 MOL1         0.0751
      66    O16     23.380916   21.288370   21.364543 O.3        1 MOL1        -0.3740
      67    C20     23.247137   23.658858   21.835461 C.3        1 MOL1         0.1003
      68    H32     23.382321   24.639991   21.362038 H          1 MOL1         0.0783
      69    O17     24.104337   23.569790   22.985115 O.3        1 MOL1        -0.5519
      70    H33     24.079252   22.631591   23.302772 H          1 MOL1         0.3769
      71    C21     21.761959   23.533898   22.260116 C.3        1 MOL1         0.1053
      72    H34     21.638760   22.586646   22.802795 H          1 MOL1         0.0783
      73    O18     21.409481   24.628603   23.112795 O.3        1 MOL1        -0.5519
      74    H35     22.150661   24.703752   23.754365 H          1 MOL1         0.3769
      75    C22     20.829185   23.509265   21.024204 C.3        1 MOL1         0.1018
      76    H36     20.824041   24.510859   20.574398 H          1 MOL1         0.0783
      77    C23     21.299976   22.475112   19.964958 C.3        1 MOL1         0.1043
      78    H37     21.188789   21.470148   20.390820 H          1 MOL1         0.0783
      79    O19     22.696523   22.721331   19.665579 O.3        1 MOL1        -0.3740
      80    C24     20.503442   22.487363   18.634706 C.3        1 MOL1         0.0138
      81    H38     19.643915   21.813716   18.737250 H          1 MOL1         0.0794
      82    H39     21.140123   22.069015   17.843774 H          1 MOL1         0.0794
      83    O20     20.046938   23.791471   18.258324 O.3        1 MOL1        -0.5486
      84    H40     19.230639   23.968763   18.780748 H          1 MOL1         0.3769
      85    C25     25.021855   17.643708   22.194032 C.3        1 MOL1         0.2972
      86    H41     25.645096   16.769204   22.422341 H          1 MOL1         0.0751
      87    O21     23.660576   17.263322   21.920766 O.3        1 MOL1        -0.3740
      88    C26     25.022814   18.611464   23.399081 C.3        1 MOL1         0.1003
      89    H42     26.063171   18.910356   23.582105 H          1 MOL1         0.0783
      90    O22     24.492961   17.955200   24.564007 O.3        1 MOL1        -0.5519
      91    H43     24.537750   16.981897   24.404094 H          1 MOL1         0.3769
      92    C27     24.193240   19.878381   23.090302 C.3        1 MOL1         0.1053
      93    H44     23.142191   19.576542   23.056440 H          1 MOL1         0.0783
      94    O23     24.372622   20.839983   24.134393 O.3        1 MOL1        -0.5519
      95    H45     24.234737   20.335241   24.967128 H          1 MOL1         0.3769
      96    C28     24.540114   20.512412   21.720853 C.3        1 MOL1         0.1018
      97    H46     25.438876   21.132825   21.835969 H          1 MOL1         0.0783
      98    C29     24.737191   19.467142   20.585649 C.3        1 MOL1         0.1043
      99    H47     23.742713   19.105286   20.298740 H          1 MOL1         0.0783
     100    O24     25.531819   18.343211   21.041076 O.3        1 MOL1        -0.3740
     101    C30     25.393369   20.047585   19.310065 C.3        1 MOL1         0.0138
     102    H48     24.668934   20.707169   18.813505 H          1 MOL1         0.0794
     103    H49     25.607684   19.221710   18.618366 H          1 MOL1         0.0794
     104    O25     26.592004   20.775460   19.603661 O.3        1 MOL1        -0.5486
     105    H50     26.995549   21.042843   18.749034 H          1 MOL1         0.3769
     106    C31     21.410756   13.859245   21.138569 C.3        1 MOL1         0.2972
     107    H51     21.072674   12.860142   20.835412 H          1 MOL1         0.0751
     108    O26     20.303239   14.685711   21.555031 O.3        1 MOL1        -0.3740
     109    C32     22.385553   13.735199   22.337841 C.3        1 MOL1         0.1003
     110    H52     23.227979   13.108013   22.018350 H          1 MOL1         0.0783
     111    O27     21.721300   13.114400   23.449359 O.3        1 MOL1        -0.5519
     112    H53     20.789569   13.441687   23.437242 H          1 MOL1         0.3769
     113    C33     22.945275   15.117734   22.750731 C.3        1 MOL1         0.1053
     114    H54     22.121421   15.690145   23.190118 H          1 MOL1         0.0783
     115    O28     23.983033   14.955488   23.724929 O.3        1 MOL1        -0.5519
     116    H55     23.620464   14.318450   24.380322 H          1 MOL1         0.3769
     117    C34     23.486667   15.892647   21.523358 C.3        1 MOL1         0.1018
     118    H56     24.432462   15.431153   21.209738 H          1 MOL1         0.0783
     119    C35     22.504163   15.883026   20.322923 C.3        1 MOL1         0.1043
     120    H57     21.621967   16.475914   20.595902 H          1 MOL1         0.0783
     121    O29     22.100143   14.517997   20.053477 O.3        1 MOL1        -0.3740
     122    C36     23.078069   16.504267   19.021004 C.3        1 MOL1         0.0138
     123    H58     22.830170   17.572909   19.008739 H          1 MOL1         0.0794
     124    H59     22.567442   16.052424   18.160303 H          1 MOL1         0.0794
     125    O30     24.495583   16.340556   18.886887 O.3        1 MOL1        -0.5486
     126    H60     24.923935   16.904845   19.571783 H          1 MOL1         0.3769
     127    C1      19.102543   19.082994   22.041804 C.3        1 MOL1        -0.1693
     128    H1      18.849289   18.378430   21.242132 H          1 MOL1         0.0829
     129    H2      18.510608   19.991318   21.909565 H          1 MOL1         0.0829
     130    C2      20.631373   19.300406   22.274262 C.3        1 MOL1        -0.1768
     131    H3      21.273002   19.218173   21.390758 H          1 MOL1         0.0829
     132    H4      20.880656   20.224135   22.810590 H          1 MOL1         0.0829
     133    C3      20.552776   18.030771   23.173497 C.3        1 MOL1         0.1211
     134    H5      20.605940   17.089143   22.615342 H          1 MOL1         0.0786
     135    C4      19.095487   18.475861   23.482547 C.3        1 MOL1        -0.1768
     136    H6      18.386900   17.662031   23.667860 H          1 MOL1         0.0829
     137    H7      19.007259   19.212481   24.290424 H          1 MOL1         0.0829
     138    O1      21.413792   18.009084   24.289051 O.3        1 MOL1        -0.5515
     139    H8      22.337968   17.905195   23.972464 H          1 MOL1         0.3773
@<TRIPOS>BOND
    1     1     2    1
    2     1     3    1
    3     1     4    1
    4     4     5    1
    5     4     6    1
    6     6     7    1
    7     4     8    1
    8     8     9    1
    9     8    10    1
   10    10    11    1
   11     8    12    1
   12    12    13    1
   13    12    14    1
   14    14    15    1
   15     1    16    1
   16    14    16    1
   17    14    17    1
   18    17    18    1
   19    17    19    1
   20    17    20    1
   21    20    21    1
   22    22    23    1
   23    22    24    1
   24    22    25    1
   25    25    26    1
   26    25    27    1
   27    27    28    1
   28    25    29    1
   29    29    30    1
   30    29    31    1
   31    31    32    1
   32     3    33    1
   33    29    33    1
   34    33    34    1
   35    33    35    1
   36    35    36    1
   37    22    37    1
   38    35    37    1
   39    35    38    1
   40    38    39    1
   41    38    40    1
   42    38    41    1
   43    41    42    1
   44    43    44    1
   45    43    45    1
   46    43    46    1
   47    46    47    1
   48    46    48    1
   49    48    49    1
   50    46    50    1
   51    50    51    1
   52    50    52    1
   53    52    53    1
   54    24    54    1
   55    50    54    1
   56    54    55    1
   57    54    56    1
   58    56    57    1
   59    43    58    1
   60    56    58    1
   61    56    59    1
   62    59    60    1
   63    59    61    1
   64    59    62    1
   65    62    63    1
   66    64    65    1
   67    64    66    1
   68    64    67    1
   69    67    68    1
   70    67    69    1
   71    69    70    1
   72    67    71    1
   73    71    72    1
   74    71    73    1
   75    73    74    1
   76    45    75    1
   77    71    75    1
   78    75    76    1
   79    75    77    1
   80    77    78    1
   81    64    79    1
   82    77    79    1
   83    77    80    1
   84    80    81    1
   85    80    82    1
   86    80    83    1
   87    83    84    1
   88    85    86    1
   89    85    87    1
   90    85    88    1
   91    88    89    1
   92    88    90    1
   93    90    91    1
   94    88    92    1
   95    92    93    1
   96    92    94    1
   97    94    95    1
   98    66    96    1
   99    92    96    1
  100    96    97    1
  101    96    98    1
  102    98    99    1
  103    85   100    1
  104    98   100    1
  105    98   101    1
  106   101   102    1
  107   101   103    1
  108   101   104    1
  109   104   105    1
  110   106   107    1
  111    12   108    1
  112   106   108    1
  113   106   109    1
  114   109   110    1
  115   109   111    1
  116   111   112    1
  117   109   113    1
  118   113   114    1
  119   113   115    1
  120   115   116    1
  121    87   117    1
  122   113   117    1
  123   117   118    1
  124   117   119    1
  125   119   120    1
  126   106   121    1
  127   119   121    1
  128   119   122    1
  129   122   123    1
  130   122   124    1
  131   122   125    1
  132   125   126    1
  133   127   128    1
  134   127   129    1
  135   127   130    1
  136   130   131    1
  137   130   132    1
  138   130   133    1
  139   133   134    1
  140   127   135    1
  141   133   135    1
  142   135   136    1
  143   135   137    1
  144   133   138    1
  145   138   139    1
@<TRIPOS>SUBSTRUCTURE
       1 MOL1            1 RESIDUE      1      MOL     
       2 MOL1          139 RESIDUE      1      MOL     
@<SCITEGIC>MOL_PROPERTY
feprocess Rank
SciTegic.value.IntegerValue
80

@<SCITEGIC>MOL_PROPERTY
Conf_Id
SciTegic.value.IntegerValue
136

@<SCITEGIC>MOL_PROPERTY
Probability
SciTegic.value.DoubleValue
0.05

@<SCITEGIC>MOL_PROPERTY
G
SciTegic.value.DoubleValue
548.577

@<SCITEGIC>MOL_PROPERTY
E
SciTegic.value.DoubleValue
371.218

@<SCITEGIC>MOL_PROPERTY
-TS
SciTegic.value.DoubleValue
177.359

@<SCITEGIC>MOL_PROPERTY
U+W
SciTegic.value.DoubleValue
248.707

@<SCITEGIC>MOL_PROPERTY
U
SciTegic.value.DoubleValue
286.711

@<SCITEGIC>MOL_PROPERTY
W
SciTegic.value.DoubleValue
-38.004

@<SCITEGIC>MOL_PROPERTY
W(PB)
SciTegic.value.DoubleValue
-43.969

@<SCITEGIC>MOL_PROPERTY
W(SA)
SciTegic.value.DoubleValue
5.965

@<SCITEGIC>MOL_PROPERTY
Valence
SciTegic.value.DoubleValue
154.639

@<SCITEGIC>MOL_PROPERTY
Coulomb
SciTegic.value.DoubleValue
154.499

@<SCITEGIC>MOL_PROPERTY
VdW
SciTegic.value.DoubleValue
-22.426

@<SCITEGIC>MOL_PROPERTY
VdW6
SciTegic.value.DoubleValue
-168.302

@<SCITEGIC>MOL_PROPERTY
VdW12
SciTegic.value.DoubleValue
145.875

@<SCITEGIC>MOL_PROPERTY
Bond
SciTegic.value.DoubleValue
4.504

@<SCITEGIC>MOL_PROPERTY
Angle
SciTegic.value.DoubleValue
11.389

@<SCITEGIC>MOL_PROPERTY
Pdih
SciTegic.value.DoubleValue
138.745

@<SCITEGIC>MOL_PROPERTY
Idih
SciTegic.value.DoubleValue
0.000

@<SCITEGIC>MOL_PROPERTY
Tether
SciTegic.value.DoubleValue
0.000

@<TRIPOS>MOLECULE
CD_guest-s16_fast_vm2_rndm.mol2 : feprocess host+ligand conformer 81
         139         145           2
SMALL
USER_CHARGES
 
@<TRIPOS>ATOM
       1    C1      16.305563   15.212665   20.379885 C.3        1 MOL1         0.2972
       2    H1      15.325101   15.121047   19.894887 H          1 MOL1         0.0751
       3    O1      16.534205   16.547097   20.877668 O.3        1 MOL1        -0.3740
       4    C2      16.459192   14.200585   21.542194 C.3        1 MOL1         0.1003
       5    H2      16.408663   13.194624   21.105446 H          1 MOL1         0.0783
       6    O2      15.408566   14.341397   22.510379 O.3        1 MOL1        -0.5519
       7    H3      15.456543   15.266490   22.861800 H          1 MOL1         0.3769
       8    C3      17.844662   14.360165   22.214179 C.3        1 MOL1         0.1053
       9    H4      17.850952   15.329465   22.728324 H          1 MOL1         0.0783
      10    O3      18.026341   13.307909   23.165342 O.3        1 MOL1        -0.5519
      11    H5      17.201589   13.292980   23.698790 H          1 MOL1         0.3769
      12    C4      19.007213   14.340865   21.181085 C.3        1 MOL1         0.1018
      13    H6      19.181219   13.294756   20.897696 H          1 MOL1         0.0783
      14    C5      18.706107   15.170972   19.893073 C.3        1 MOL1         0.1043
      15    H7      18.798643   16.235082   20.139894 H          1 MOL1         0.0783
      16    O4      17.355027   14.909407   19.439506 O.3        1 MOL1        -0.3740
      17    C6      19.654466   14.905922   18.692952 C.3        1 MOL1         0.0138
      18    H8      20.465217   15.642468   18.711639 H          1 MOL1         0.0794
      19    H9      19.097928   15.090822   17.764300 H          1 MOL1         0.0794
      20    O5      20.197301   13.579847   18.673084 O.3        1 MOL1        -0.5486
      21    H10     20.827136   13.506902   19.428219 H          1 MOL1         0.3769
      22    C7      14.841672   20.214441   21.627980 C.3        1 MOL1         0.2972
      23    H11     14.195828   21.082440   21.814650 H          1 MOL1         0.0751
      24    O6      16.221857   20.601092   21.481538 O.3        1 MOL1        -0.3740
      25    C8      14.741244   19.222316   22.809349 C.3        1 MOL1         0.1003
      26    H12     13.699532   18.881329   22.870533 H          1 MOL1         0.0783
      27    O7      15.106713   19.867145   24.040762 O.3        1 MOL1        -0.5519
      28    H13     15.495879   20.743528   23.801206 H          1 MOL1         0.3769
      29    C9      15.639662   17.990803   22.558823 C.3        1 MOL1         0.1053
      30    H14     16.680791   18.330852   22.578969 H          1 MOL1         0.0783
      31    O8      15.427112   17.030925   23.597872 O.3        1 MOL1        -0.5519
      32    H15     15.465921   17.551648   24.431375 H          1 MOL1         0.3769
      33    C10     15.376136   17.352015   21.171889 C.3        1 MOL1         0.1018
      34    H16     14.456446   16.754250   21.224926 H          1 MOL1         0.0783
      35    C11     15.273344   18.405734   20.031038 C.3        1 MOL1         0.1043
      36    H17     16.287666   18.771474   19.829687 H          1 MOL1         0.0783
      37    O9      14.440543   19.527374   20.424486 O.3        1 MOL1        -0.3740
      38    C12     14.726163   17.828768   18.703781 C.3        1 MOL1         0.0138
      39    H18     15.486894   17.163787   18.272867 H          1 MOL1         0.0794
      40    H19     14.577444   18.655473   17.996055 H          1 MOL1         0.0794
      41    O10     13.502402   17.108018   18.893475 O.3        1 MOL1        -0.5486
      42    H20     13.173013   16.841228   18.007457 H          1 MOL1         0.3769
      43    C13     18.529014   24.041476   21.017408 C.3        1 MOL1         0.2972
      44    H21     18.900277   25.041463   20.758220 H          1 MOL1         0.0751
      45    O11     19.581146   23.188580   21.505364 O.3        1 MOL1        -0.3740
      46    C14     17.449592   24.118551   22.129576 C.3        1 MOL1         0.1003
      47    H22     16.624916   24.733678   21.746755 H          1 MOL1         0.0783
      48    O12     17.980417   24.724971   23.319369 O.3        1 MOL1        -0.5519
      49    H23     18.854576   24.297349   23.505224 H          1 MOL1         0.3769
      50    C15     16.889577   22.708843   22.449265 C.3        1 MOL1         0.1053
      51    H24     17.690989   22.120968   22.914927 H          1 MOL1         0.0783
      52    O13     15.789522   22.818929   23.358366 O.3        1 MOL1        -0.5519
      53    H25     16.083135   23.466568   24.037919 H          1 MOL1         0.3769
      54    C16     16.441106   21.983965   21.155107 C.3        1 MOL1         0.1018
      55    H26     15.528515   22.466718   20.781022 H          1 MOL1         0.0783
      56    C17     17.524365   22.032649   20.044841 C.3        1 MOL1         0.1043
      57    H27     18.385081   21.435092   20.368822 H          1 MOL1         0.0783
      58    O14     17.938734   23.407721   19.859018 O.3        1 MOL1        -0.3740
      59    C18     17.069504   21.450911   18.680278 C.3        1 MOL1         0.0138
      60    H28     17.309706   20.380346   18.664587 H          1 MOL1         0.0794
      61    H29     17.663051   21.919585   17.884048 H          1 MOL1         0.0794
      62    O15     15.670684   21.629732   18.422345 O.3        1 MOL1        -0.5486
      63    H30     15.180585   21.041604   19.042505 H          1 MOL1         0.3769
      64    C19     23.640219   22.788952   21.902409 C.3        1 MOL1         0.2972
      65    H31     24.727868   22.894944   22.007517 H          1 MOL1         0.0751
      66    O16     23.255880   21.409001   21.745432 O.3        1 MOL1        -0.3740
      67    C20     22.935690   23.346812   23.161500 C.3        1 MOL1         0.1003
      68    H32     23.176526   24.415392   23.234183 H          1 MOL1         0.0783
      69    O17     23.407188   22.668460   24.336489 O.3        1 MOL1        -0.5519
      70    H33     23.772256   21.802474   24.033907 H          1 MOL1         0.3769
      71    C21     21.402224   23.205079   23.033855 C.3        1 MOL1         0.1053
      72    H34     21.165037   22.135047   23.063027 H          1 MOL1         0.0783
      73    O18     20.761469   23.863493   24.131447 O.3        1 MOL1        -0.5519
      74    H35     21.256777   23.567733   24.927622 H          1 MOL1         0.3769
      75    C22     20.876815   23.784787   21.696803 C.3        1 MOL1         0.1018
      76    H36     20.821760   24.877681   21.787909 H          1 MOL1         0.0783
      77    C23     21.744057   23.384660   20.468464 C.3        1 MOL1         0.1043
      78    H37     21.526137   22.333637   20.246856 H          1 MOL1         0.0783
      79    O19     23.160225   23.521302   20.756240 O.3        1 MOL1        -0.3740
      80    C24     21.425204   24.196634   19.190340 C.3        1 MOL1         0.0138
      81    H38     20.439141   23.889409   18.817064 H          1 MOL1         0.0794
      82    H39     22.160337   23.937146   18.416623 H          1 MOL1         0.0794
      83    O20     21.434870   25.608698   19.433209 O.3        1 MOL1        -0.5486
      84    H40     21.295934   26.060157   18.572127 H          1 MOL1         0.3769
      85    C25     24.845123   17.687149   20.753972 C.3        1 MOL1         0.2972
      86    H41     25.450886   16.859483   20.362929 H          1 MOL1         0.0751
      87    O21     23.572194   17.226601   21.248344 O.3        1 MOL1        -0.3740
      88    C26     25.585733   18.444096   21.890466 C.3        1 MOL1         0.1003
      89    H42     26.503913   18.860699   21.456291 H          1 MOL1         0.0783
      90    O22     25.940675   17.568715   22.971247 O.3        1 MOL1        -0.5519
      91    H43     25.101966   17.163068   23.308293 H          1 MOL1         0.3769
      92    C27     24.725520   19.625303   22.405511 C.3        1 MOL1         0.1053
      93    H44     23.828551   19.211757   22.885217 H          1 MOL1         0.0783
      94    O23     25.471745   20.391120   23.357092 O.3        1 MOL1        -0.5519
      95    H45     25.902999   19.727537   23.940418 H          1 MOL1         0.3769
      96    C28     24.275505   20.532517   21.233006 C.3        1 MOL1         0.1018
      97    H46     25.149040   21.087538   20.866190 H          1 MOL1         0.0783
      98    C29     23.664128   19.716833   20.059402 C.3        1 MOL1         0.1043
      99    H47     22.711445   19.287763   20.395988 H          1 MOL1         0.0783
     100    O24     24.575490   18.645634   19.706265 O.3        1 MOL1        -0.3740
     101    C30     23.357100   20.543055   18.782381 C.3        1 MOL1         0.0138
     102    H48     22.322081   20.900920   18.839297 H          1 MOL1         0.0794
     103    H49     23.408496   19.873663   17.913295 H          1 MOL1         0.0794
     104    O25     24.241478   21.655396   18.595900 O.3        1 MOL1        -0.5486
     105    H50     24.015333   22.327990   19.280223 H          1 MOL1         0.3769
     106    C31     21.218671   13.981543   22.152153 C.3        1 MOL1         0.2972
     107    H51     20.802504   12.999685   22.412970 H          1 MOL1         0.0751
     108    O26     20.161788   14.917831   21.838518 O.3        1 MOL1        -0.3740
     109    C32     22.074432   14.507065   23.334768 C.3        1 MOL1         0.1003
     110    H52     22.888491   13.785776   23.483793 H          1 MOL1         0.0783
     111    O27     21.309610   14.596811   24.547356 O.3        1 MOL1        -0.5519
     112    H53     20.637507   15.307773   24.418711 H          1 MOL1         0.3769
     113    C33     22.711187   15.872723   23.000373 C.3        1 MOL1         0.1053
     114    H54     21.904593   16.605819   22.906540 H          1 MOL1         0.0783
     115    O28     23.594004   16.259336   24.058153 O.3        1 MOL1        -0.5519
     116    H55     23.089699   16.093409   24.885701 H          1 MOL1         0.3769
     117    C34     23.468505   15.847952   21.653353 C.3        1 MOL1         0.1018
     118    H56     24.450078   15.377368   21.798512 H          1 MOL1         0.0783
     119    C35     22.670470   15.124530   20.533056 C.3        1 MOL1         0.1043
     120    H57     21.862177   15.802747   20.239827 H          1 MOL1         0.0783
     121    O29     22.086992   13.878705   21.001832 O.3        1 MOL1        -0.3740
     122    C36     23.513304   14.833025   19.268070 C.3        1 MOL1         0.0138
     123    H58     23.731386   15.785877   18.767002 H          1 MOL1         0.0794
     124    H59     22.913696   14.230411   18.573022 H          1 MOL1         0.0794
     125    O30     24.737353   14.158396   19.582317 O.3        1 MOL1        -0.5486
     126    H60     25.180557   13.933751   18.735092 H          1 MOL1         0.3769
     127    C1      20.054715   19.854693   22.180183 C.3        1 MOL1        -0.1693
     128    H1      19.249965   20.581904   22.332665 H          1 MOL1         0.0829
     129    H2      20.797764   20.288874   21.503626 H          1 MOL1         0.0829
     130    C2      19.570581   18.413074   21.832724 C.3        1 MOL1        -0.1768
     131    H3      20.337727   17.775189   21.377145 H          1 MOL1         0.0829
     132    H4      18.654078   18.349733   21.237313 H          1 MOL1         0.0829
     133    C3      19.400103   18.236935   23.372852 C.3        1 MOL1         0.1211
     134    H5      18.461775   18.641928   23.773328 H          1 MOL1         0.0786
     135    C4      20.603228   19.220128   23.499211 C.3        1 MOL1        -0.1768
     136    H6      21.591875   18.758072   23.409829 H          1 MOL1         0.0829
     137    H7      20.597937   19.866653   24.383192 H          1 MOL1         0.0829
     138    O1      19.616362   16.930413   23.846585 O.3        1 MOL1        -0.5515
     139    H8      19.464501   16.335032   23.080195 H          1 MOL1         0.3773
@<TRIPOS>BOND
    1     1     2    1
    2     1     3    1
    3     1     4    1
    4     4     5    1
    5     4     6    1
    6     6     7    1
    7     4     8    1
    8     8     9    1
    9     8    10    1
   10    10    11    1
   11     8    12    1
   12    12    13    1
   13    12    14    1
   14    14    15    1
   15     1    16    1
   16    14    16    1
   17    14    17    1
   18    17    18    1
   19    17    19    1
   20    17    20    1
   21    20    21    1
   22    22    23    1
   23    22    24    1
   24    22    25    1
   25    25    26    1
   26    25    27    1
   27    27    28    1
   28    25    29    1
   29    29    30    1
   30    29    31    1
   31    31    32    1
   32     3    33    1
   33    29    33    1
   34    33    34    1
   35    33    35    1
   36    35    36    1
   37    22    37    1
   38    35    37    1
   39    35    38    1
   40    38    39    1
   41    38    40    1
   42    38    41    1
   43    41    42    1
   44    43    44    1
   45    43    45    1
   46    43    46    1
   47    46    47    1
   48    46    48    1
   49    48    49    1
   50    46    50    1
   51    50    51    1
   52    50    52    1
   53    52    53    1
   54    24    54    1
   55    50    54    1
   56    54    55    1
   57    54    56    1
   58    56    57    1
   59    43    58    1
   60    56    58    1
   61    56    59    1
   62    59    60    1
   63    59    61    1
   64    59    62    1
   65    62    63    1
   66    64    65    1
   67    64    66    1
   68    64    67    1
   69    67    68    1
   70    67    69    1
   71    69    70    1
   72    67    71    1
   73    71    72    1
   74    71    73    1
   75    73    74    1
   76    45    75    1
   77    71    75    1
   78    75    76    1
   79    75    77    1
   80    77    78    1
   81    64    79    1
   82    77    79    1
   83    77    80    1
   84    80    81    1
   85    80    82    1
   86    80    83    1
   87    83    84    1
   88    85    86    1
   89    85    87    1
   90    85    88    1
   91    88    89    1
   92    88    90    1
   93    90    91    1
   94    88    92    1
   95    92    93    1
   96    92    94    1
   97    94    95    1
   98    66    96    1
   99    92    96    1
  100    96    97    1
  101    96    98    1
  102    98    99    1
  103    85   100    1
  104    98   100    1
  105    98   101    1
  106   101   102    1
  107   101   103    1
  108   101   104    1
  109   104   105    1
  110   106   107    1
  111    12   108    1
  112   106   108    1
  113   106   109    1
  114   109   110    1
  115   109   111    1
  116   111   112    1
  117   109   113    1
  118   113   114    1
  119   113   115    1
  120   115   116    1
  121    87   117    1
  122   113   117    1
  123   117   118    1
  124   117   119    1
  125   119   120    1
  126   106   121    1
  127   119   121    1
  128   119   122    1
  129   122   123    1
  130   122   124    1
  131   122   125    1
  132   125   126    1
  133   127   128    1
  134   127   129    1
  135   127   130    1
  136   130   131    1
  137   130   132    1
  138   130   133    1
  139   133   134    1
  140   127   135    1
  141   133   135    1
  142   135   136    1
  143   135   137    1
  144   133   138    1
  145   138   139    1
@<TRIPOS>SUBSTRUCTURE
       1 MOL1            1 RESIDUE      1      MOL     
       2 MOL1          139 RESIDUE      1      MOL     
@<SCITEGIC>MOL_PROPERTY
feprocess Rank
SciTegic.value.IntegerValue
81

@<SCITEGIC>MOL_PROPERTY
Conf_Id
SciTegic.value.IntegerValue
982

@<SCITEGIC>MOL_PROPERTY
Probability
SciTegic.value.DoubleValue
0.05

@<SCITEGIC>MOL_PROPERTY
G
SciTegic.value.DoubleValue
548.584

@<SCITEGIC>MOL_PROPERTY
E
SciTegic.value.DoubleValue
369.358

@<SCITEGIC>MOL_PROPERTY
-TS
SciTegic.value.DoubleValue
179.226

@<SCITEGIC>MOL_PROPERTY
U+W
SciTegic.value.DoubleValue
246.846

@<SCITEGIC>MOL_PROPERTY
U
SciTegic.value.DoubleValue
283.201

@<SCITEGIC>MOL_PROPERTY
W
SciTegic.value.DoubleValue
-36.355

@<SCITEGIC>MOL_PROPERTY
W(PB)
SciTegic.value.DoubleValue
-42.307

@<SCITEGIC>MOL_PROPERTY
W(SA)
SciTegic.value.DoubleValue
5.952

@<SCITEGIC>MOL_PROPERTY
Valence
SciTegic.value.DoubleValue
153.491

@<SCITEGIC>MOL_PROPERTY
Coulomb
SciTegic.value.DoubleValue
150.726

@<SCITEGIC>MOL_PROPERTY
VdW
SciTegic.value.DoubleValue
-21.015

@<SCITEGIC>MOL_PROPERTY
VdW6
SciTegic.value.DoubleValue
-170.457

@<SCITEGIC>MOL_PROPERTY
VdW12
SciTegic.value.DoubleValue
149.442

@<SCITEGIC>MOL_PROPERTY
Bond
SciTegic.value.DoubleValue
4.761

@<SCITEGIC>MOL_PROPERTY
Angle
SciTegic.value.DoubleValue
12.648

@<SCITEGIC>MOL_PROPERTY
Pdih
SciTegic.value.DoubleValue
136.082

@<SCITEGIC>MOL_PROPERTY
Idih
SciTegic.value.DoubleValue
0.000

@<SCITEGIC>MOL_PROPERTY
Tether
SciTegic.value.DoubleValue
0.000

@<TRIPOS>MOLECULE
CD_guest-s16_fast_vm2_rndm.mol2 : feprocess host+ligand conformer 82
         139         145           2
SMALL
USER_CHARGES
 
@<TRIPOS>ATOM
       1    C1      16.254014   15.249728   21.973092 C.3        1 MOL1         0.2972
       2    H1      15.202809   15.144753   22.271404 H          1 MOL1         0.0751
       3    O1      16.574351   16.620873   21.664388 O.3        1 MOL1        -0.3740
       4    C2      17.173937   14.757186   23.116358 C.3        1 MOL1         0.1003
       5    H2      16.951401   13.695098   23.281782 H          1 MOL1         0.0783
       6    O2      16.928779   15.487980   24.327039 O.3        1 MOL1        -0.5519
       7    H3      17.137152   16.435049   24.130193 H          1 MOL1         0.3769
       8    C3      18.660818   14.883548   22.723714 C.3        1 MOL1         0.1053
       9    H4      18.895254   15.949794   22.653470 H          1 MOL1         0.0783
      10    O3      19.470419   14.286881   23.741388 O.3        1 MOL1        -0.5519
      11    H5      19.076426   14.591435   24.589558 H          1 MOL1         0.3769
      12    C4      18.972975   14.258812   21.343017 C.3        1 MOL1         0.1018
      13    H6      19.109836   13.175278   21.456172 H          1 MOL1         0.0783
      14    C5      17.888136   14.568228   20.271053 C.3        1 MOL1         0.1043
      15    H7      18.045979   15.603629   19.952318 H          1 MOL1         0.0783
      16    O4      16.542622   14.449310   20.805833 O.3        1 MOL1        -0.3740
      17    C6      17.999535   13.683193   19.006940 C.3        1 MOL1         0.0138
      18    H8      18.906315   13.971559   18.458293 H          1 MOL1         0.0794
      19    H9      17.142838   13.893403   18.352565 H          1 MOL1         0.0794
      20    O5      18.049436   12.288321   19.329524 O.3        1 MOL1        -0.5486
      21    H10     18.039407   11.786045   18.485450 H          1 MOL1         0.3769
      22    C7      14.792168   20.257663   20.756916 C.3        1 MOL1         0.2972
      23    H11     14.153793   21.071604   20.389677 H          1 MOL1         0.0751
      24    O6      16.028392   20.751793   21.308807 O.3        1 MOL1        -0.3740
      25    C8      14.075473   19.460389   21.873708 C.3        1 MOL1         0.1003
      26    H12     13.147106   19.060681   21.445403 H          1 MOL1         0.0783
      27    O7      13.755251   20.318669   22.981561 O.3        1 MOL1        -0.5519
      28    H13     14.553902   20.875758   23.162323 H          1 MOL1         0.3769
      29    C9      14.935065   18.261313   22.351786 C.3        1 MOL1         0.1053
      30    H14     15.792258   18.656545   22.912338 H          1 MOL1         0.0783
      31    O8      14.135811   17.438131   23.206587 O.3        1 MOL1        -0.5519
      32    H15     13.748184   18.051270   23.868733 H          1 MOL1         0.3769
      33    C10     15.482562   17.420905   21.165590 C.3        1 MOL1         0.1018
      34    H16     14.666767   16.799052   20.774637 H          1 MOL1         0.0783
      35    C11     16.048321   18.299958   20.014228 C.3        1 MOL1         0.1043
      36    H17     16.977054   18.765398   20.361586 H          1 MOL1         0.0783
      37    O9      15.096651   19.338004   19.687645 O.3        1 MOL1        -0.3740
      38    C12     16.393946   17.528511   18.713376 C.3        1 MOL1         0.0138
      39    H18     17.449475   17.234150   18.753917 H          1 MOL1         0.0794
      40    H19     16.296901   18.216271   17.862693 H          1 MOL1         0.0794
      41    O10     15.573716   16.371746   18.501565 O.3        1 MOL1        -0.5486
      42    H20     15.760794   15.737536   19.231670 H          1 MOL1         0.3769
      43    C13     18.460097   24.073791   21.477673 C.3        1 MOL1         0.2972
      44    H21     18.908286   25.075988   21.481425 H          1 MOL1         0.0751
      45    O11     19.461080   23.043488   21.587722 O.3        1 MOL1        -0.3740
      46    C14     17.482047   23.932000   22.668177 C.3        1 MOL1         0.1003
      47    H22     16.683316   24.673221   22.534825 H          1 MOL1         0.0783
      48    O12     18.160916   24.178721   23.910309 O.3        1 MOL1        -0.5519
      49    H23     19.130533   24.151149   23.718039 H          1 MOL1         0.3769
      50    C15     16.841903   22.526400   22.672478 C.3        1 MOL1         0.1053
      51    H24     17.639427   21.804069   22.881304 H          1 MOL1         0.0783
      52    O13     15.842409   22.449656   23.694293 O.3        1 MOL1        -0.5519
      53    H25     16.263569   22.847401   24.488907 H          1 MOL1         0.3769
      54    C16     16.216184   22.179414   21.299688 C.3        1 MOL1         0.1018
      55    H26     15.265656   22.721283   21.207076 H          1 MOL1         0.0783
      56    C17     17.150231   22.521148   20.103090 C.3        1 MOL1         0.1043
      57    H27     17.956768   21.778309   20.093262 H          1 MOL1         0.0783
      58    O14     17.726180   23.845035   20.257071 O.3        1 MOL1        -0.3740
      59    C18     16.448380   22.456781   18.725404 C.3        1 MOL1         0.0138
      60    H28     16.247851   21.405074   18.482376 H          1 MOL1         0.0794
      61    H29     17.138498   22.839717   17.961530 H          1 MOL1         0.0794
      62    O15     15.224410   23.201772   18.709271 O.3        1 MOL1        -0.5486
      63    H30     14.867486   23.168315   17.794990 H          1 MOL1         0.3769
      64    C19     23.627364   22.658695   21.287200 C.3        1 MOL1         0.2972
      65    H31     24.677486   22.838356   21.022822 H          1 MOL1         0.0751
      66    O16     23.460836   21.398809   21.963671 O.3        1 MOL1        -0.3740
      67    C20     23.117456   23.760993   22.253328 C.3        1 MOL1         0.1003
      68    H32     23.265679   24.730615   21.760460 H          1 MOL1         0.0783
      69    O17     23.862473   23.726588   23.480951 O.3        1 MOL1        -0.5519
      70    H33     23.922770   22.776536   23.741949 H          1 MOL1         0.3769
      71    C21     21.605319   23.593709   22.549049 C.3        1 MOL1         0.1053
      72    H34     21.475532   22.678024   23.140798 H          1 MOL1         0.0783
      73    O18     21.130208   24.719992   23.293926 O.3        1 MOL1        -0.5519
      74    H35     21.806297   24.870832   23.991902 H          1 MOL1         0.3769
      75    C22     20.797498   23.441941   21.237409 C.3        1 MOL1         0.1018
      76    H36     20.812290   24.397994   20.697127 H          1 MOL1         0.0783
      77    C23     21.398761   22.342567   20.325645 C.3        1 MOL1         0.1043
      78    H37     21.314483   21.376919   20.839558 H          1 MOL1         0.0783
      79    O19     22.794102   22.654620   20.105081 O.3        1 MOL1        -0.3740
      80    C24     20.696676   22.188505   18.951353 C.3        1 MOL1         0.0138
      81    H38     19.880120   21.463873   19.059005 H          1 MOL1         0.0794
      82    H39     21.411763   21.755107   18.239530 H          1 MOL1         0.0794
      83    O20     20.178267   23.422296   18.438179 O.3        1 MOL1        -0.5486
      84    H40     19.411553   23.676627   19.002798 H          1 MOL1         0.3769
      85    C25     25.024812   17.591472   21.909034 C.3        1 MOL1         0.2972
      86    H41     25.641351   16.683112   21.916933 H          1 MOL1         0.0751
      87    O21     23.631057   17.281085   21.715898 O.3        1 MOL1        -0.3740
      88    C26     25.189999   18.338550   23.251530 C.3        1 MOL1         0.1003
      89    H42     26.248822   18.610937   23.350934 H          1 MOL1         0.0783
      90    O22     24.811636   17.486600   24.344732 O.3        1 MOL1        -0.5519
      91    H43     24.264480   16.758903   23.960939 H          1 MOL1         0.3769
      92    C27     24.357190   19.639300   23.264845 C.3        1 MOL1         0.1053
      93    H44     23.298268   19.354057   23.290007 H          1 MOL1         0.0783
      94    O23     24.673633   20.394461   24.439527 O.3        1 MOL1        -0.5519
      95    H45     24.627955   19.747149   25.177584 H          1 MOL1         0.3769
      96    C28     24.596491   20.509809   22.003532 C.3        1 MOL1         0.1018
      97    H46     25.535301   21.062220   22.140622 H          1 MOL1         0.0783
      98    C29     24.644004   19.681275   20.680616 C.3        1 MOL1         0.1043
      99    H47     23.613667   19.403044   20.430768 H          1 MOL1         0.0783
     100    O24     25.434493   18.475964   20.849634 O.3        1 MOL1        -0.3740
     101    C30     25.231588   20.435221   19.461314 C.3        1 MOL1         0.0138
     102    H48     24.487444   21.146093   19.083536 H          1 MOL1         0.0794
     103    H49     25.410558   19.709416   18.656503 H          1 MOL1         0.0794
     104    O25     26.446467   21.122652   19.784230 O.3        1 MOL1        -0.5486
     105    H50     26.804573   21.501836   18.952024 H          1 MOL1         0.3769
     106    C31     21.240889   14.124474   20.363299 C.3        1 MOL1         0.2972
     107    H51     20.858875   13.220818   19.871185 H          1 MOL1         0.0751
     108    O26     20.171090   14.925477   20.900135 O.3        1 MOL1        -0.3740
     109    C32     22.248313   13.773258   21.494675 C.3        1 MOL1         0.1003
     110    H52     23.091245   13.252410   21.022079 H          1 MOL1         0.0783
     111    O27     21.671014   12.907992   22.483394 O.3        1 MOL1        -0.5519
     112    H53     20.918545   13.400785   22.897898 H          1 MOL1         0.3769
     113    C33     22.798800   15.063577   22.152350 C.3        1 MOL1         0.1053
     114    H54     21.968488   15.574133   22.659155 H          1 MOL1         0.0783
     115    O28     23.815690   14.729116   23.103090 O.3        1 MOL1        -0.5519
     116    H55     23.458097   13.962473   23.604133 H          1 MOL1         0.3769
     117    C34     23.375185   16.016474   21.076454 C.3        1 MOL1         0.1018
     118    H56     24.293020   15.568066   20.673452 H          1 MOL1         0.0783
     119    C35     22.379302   16.246202   19.906582 C.3        1 MOL1         0.1043
     120    H57     21.515725   16.804852   20.290614 H          1 MOL1         0.0783
     121    O29     21.941925   14.954718   19.409104 O.3        1 MOL1        -0.3740
     122    C36     22.950539   17.064179   18.718790 C.3        1 MOL1         0.0138
     123    H58     22.752687   18.127312   18.901247 H          1 MOL1         0.0794
     124    H59     22.395778   16.793638   17.810473 H          1 MOL1         0.0794
     125    O30     24.354711   16.864086   18.513152 O.3        1 MOL1        -0.5486
     126    H60     24.826070   17.310710   19.254778 H          1 MOL1         0.3769
     127    C1      20.718003   18.821146   22.423964 C.3        1 MOL1        -0.1693
     128    H1      21.530005   19.205217   21.797799 H          1 MOL1         0.0829
     129    H2      21.057383   17.894155   22.902635 H          1 MOL1         0.0829
     130    C2      19.319252   18.731039   21.736343 C.3        1 MOL1        -0.1768
     131    H3      19.143841   19.499226   20.974178 H          1 MOL1         0.0829
     132    H4      19.050372   17.756802   21.316829 H          1 MOL1         0.0829
     133    C3      18.713098   19.076948   23.133558 C.3        1 MOL1         0.1211
     134    H5      17.809367   19.694002   23.098094 H          1 MOL1         0.0786
     135    C4      20.041352   19.853570   23.386893 C.3        1 MOL1        -0.1768
     136    H6      20.029721   20.882679   23.015616 H          1 MOL1         0.0829
     137    H7      20.405230   19.861487   24.420169 H          1 MOL1         0.0829
     138    O1      18.505637   17.987317   24.003884 O.3        1 MOL1        -0.5515
     139    H8      19.391041   17.609470   24.171788 H          1 MOL1         0.3773
@<TRIPOS>BOND
    1     1     2    1
    2     1     3    1
    3     1     4    1
    4     4     5    1
    5     4     6    1
    6     6     7    1
    7     4     8    1
    8     8     9    1
    9     8    10    1
   10    10    11    1
   11     8    12    1
   12    12    13    1
   13    12    14    1
   14    14    15    1
   15     1    16    1
   16    14    16    1
   17    14    17    1
   18    17    18    1
   19    17    19    1
   20    17    20    1
   21    20    21    1
   22    22    23    1
   23    22    24    1
   24    22    25    1
   25    25    26    1
   26    25    27    1
   27    27    28    1
   28    25    29    1
   29    29    30    1
   30    29    31    1
   31    31    32    1
   32     3    33    1
   33    29    33    1
   34    33    34    1
   35    33    35    1
   36    35    36    1
   37    22    37    1
   38    35    37    1
   39    35    38    1
   40    38    39    1
   41    38    40    1
   42    38    41    1
   43    41    42    1
   44    43    44    1
   45    43    45    1
   46    43    46    1
   47    46    47    1
   48    46    48    1
   49    48    49    1
   50    46    50    1
   51    50    51    1
   52    50    52    1
   53    52    53    1
   54    24    54    1
   55    50    54    1
   56    54    55    1
   57    54    56    1
   58    56    57    1
   59    43    58    1
   60    56    58    1
   61    56    59    1
   62    59    60    1
   63    59    61    1
   64    59    62    1
   65    62    63    1
   66    64    65    1
   67    64    66    1
   68    64    67    1
   69    67    68    1
   70    67    69    1
   71    69    70    1
   72    67    71    1
   73    71    72    1
   74    71    73    1
   75    73    74    1
   76    45    75    1
   77    71    75    1
   78    75    76    1
   79    75    77    1
   80    77    78    1
   81    64    79    1
   82    77    79    1
   83    77    80    1
   84    80    81    1
   85    80    82    1
   86    80    83    1
   87    83    84    1
   88    85    86    1
   89    85    87    1
   90    85    88    1
   91    88    89    1
   92    88    90    1
   93    90    91    1
   94    88    92    1
   95    92    93    1
   96    92    94    1
   97    94    95    1
   98    66    96    1
   99    92    96    1
  100    96    97    1
  101    96    98    1
  102    98    99    1
  103    85   100    1
  104    98   100    1
  105    98   101    1
  106   101   102    1
  107   101   103    1
  108   101   104    1
  109   104   105    1
  110   106   107    1
  111    12   108    1
  112   106   108    1
  113   106   109    1
  114   109   110    1
  115   109   111    1
  116   111   112    1
  117   109   113    1
  118   113   114    1
  119   113   115    1
  120   115   116    1
  121    87   117    1
  122   113   117    1
  123   117   118    1
  124   117   119    1
  125   119   120    1
  126   106   121    1
  127   119   121    1
  128   119   122    1
  129   122   123    1
  130   122   124    1
  131   122   125    1
  132   125   126    1
  133   127   128    1
  134   127   129    1
  135   127   130    1
  136   130   131    1
  137   130   132    1
  138   130   133    1
  139   133   134    1
  140   127   135    1
  141   133   135    1
  142   135   136    1
  143   135   137    1
  144   133   138    1
  145   138   139    1
@<TRIPOS>SUBSTRUCTURE
       1 MOL1            1 RESIDUE      1      MOL     
       2 MOL1          139 RESIDUE      1      MOL     
@<SCITEGIC>MOL_PROPERTY
feprocess Rank
SciTegic.value.IntegerValue
82

@<SCITEGIC>MOL_PROPERTY
Conf_Id
SciTegic.value.IntegerValue
40

@<SCITEGIC>MOL_PROPERTY
Probability
SciTegic.value.DoubleValue
0.05

@<SCITEGIC>MOL_PROPERTY
G
SciTegic.value.DoubleValue
548.602

@<SCITEGIC>MOL_PROPERTY
E
SciTegic.value.DoubleValue
369.736

@<SCITEGIC>MOL_PROPERTY
-TS
SciTegic.value.DoubleValue
178.866

@<SCITEGIC>MOL_PROPERTY
U+W
SciTegic.value.DoubleValue
247.225

@<SCITEGIC>MOL_PROPERTY
U
SciTegic.value.DoubleValue
285.057

@<SCITEGIC>MOL_PROPERTY
W
SciTegic.value.DoubleValue
-37.832

@<SCITEGIC>MOL_PROPERTY
W(PB)
SciTegic.value.DoubleValue
-43.790

@<SCITEGIC>MOL_PROPERTY
W(SA)
SciTegic.value.DoubleValue
5.957

@<SCITEGIC>MOL_PROPERTY
Valence
SciTegic.value.DoubleValue
152.728

@<SCITEGIC>MOL_PROPERTY
Coulomb
SciTegic.value.DoubleValue
154.266

@<SCITEGIC>MOL_PROPERTY
VdW
SciTegic.value.DoubleValue
-21.937

@<SCITEGIC>MOL_PROPERTY
VdW6
SciTegic.value.DoubleValue
-169.002

@<SCITEGIC>MOL_PROPERTY
VdW12
SciTegic.value.DoubleValue
147.065

@<SCITEGIC>MOL_PROPERTY
Bond
SciTegic.value.DoubleValue
4.561

@<SCITEGIC>MOL_PROPERTY
Angle
SciTegic.value.DoubleValue
12.324

@<SCITEGIC>MOL_PROPERTY
Pdih
SciTegic.value.DoubleValue
135.844

@<SCITEGIC>MOL_PROPERTY
Idih
SciTegic.value.DoubleValue
0.000

@<SCITEGIC>MOL_PROPERTY
Tether
SciTegic.value.DoubleValue
0.000

@<TRIPOS>MOLECULE
CD_guest-s16_fast_vm2_rndm.mol2 : feprocess host+ligand conformer 83
         139         145           2
SMALL
USER_CHARGES
 
@<TRIPOS>ATOM
       1    C1      16.364848   15.241957   20.229486 C.3        1 MOL1         0.2972
       2    H1      15.375031   15.144576   19.765341 H          1 MOL1         0.0751
       3    O1      16.626450   16.608352   20.622971 O.3        1 MOL1        -0.3740
       4    C2      16.510700   14.285951   21.446876 C.3        1 MOL1         0.1003
       5    H2      16.424654   13.262427   21.059236 H          1 MOL1         0.0783
       6    O2      15.485182   14.487889   22.429797 O.3        1 MOL1        -0.5519
       7    H3      15.637145   15.385895   22.818091 H          1 MOL1         0.3769
       8    C3      17.914087   14.432149   22.082383 C.3        1 MOL1         0.1053
       9    H4      17.998201   15.442381   22.505145 H          1 MOL1         0.0783
      10    O3      18.078307   13.459324   23.119688 O.3        1 MOL1        -0.5519
      11    H5      17.244009   13.489660   23.638198 H          1 MOL1         0.3769
      12    C4      19.025155   14.254463   21.018023 C.3        1 MOL1         0.1018
      13    H6      19.080983   13.188982   20.759412 H          1 MOL1         0.0783
      14    C5      18.758483   15.080791   19.724526 C.3        1 MOL1         0.1043
      15    H7      18.889597   16.143934   19.955397 H          1 MOL1         0.0783
      16    O4      17.392868   14.861448   19.286081 O.3        1 MOL1        -0.3740
      17    C6      19.714172   14.771051   18.542132 C.3        1 MOL1         0.0138
      18    H8      20.573808   15.449608   18.602650 H          1 MOL1         0.0794
      19    H9      19.194600   15.005334   17.603406 H          1 MOL1         0.0794
      20    O5      20.177083   13.415721   18.520626 O.3        1 MOL1        -0.5486
      21    H10     20.884724   13.343756   19.203071 H          1 MOL1         0.3769
      22    C7      14.916085   20.225139   21.715373 C.3        1 MOL1         0.2972
      23    H11     14.246311   21.037575   22.025272 H          1 MOL1         0.0751
      24    O6      16.194564   20.730930   21.281136 O.3        1 MOL1        -0.3740
      25    C8      15.124492   19.224305   22.882741 C.3        1 MOL1         0.1003
      26    H12     14.134901   18.828310   23.145799 H          1 MOL1         0.0783
      27    O7      15.700571   19.854831   24.038063 O.3        1 MOL1        -0.5519
      28    H13     15.609102   20.830569   23.914119 H          1 MOL1         0.3769
      29    C9      16.014976   18.039600   22.449203 C.3        1 MOL1         0.1053
      30    H14     17.023038   18.428978   22.271079 H          1 MOL1         0.0783
      31    O8      16.049938   17.083093   23.512055 O.3        1 MOL1        -0.5519
      32    H15     16.194559   17.623129   24.321935 H          1 MOL1         0.3769
      33    C10     15.521201   17.384124   21.134921 C.3        1 MOL1         0.1018
      34    H16     14.643744   16.762118   21.354691 H          1 MOL1         0.0783
      35    C11     15.161434   18.438814   20.049563 C.3        1 MOL1         0.1043
      36    H17     16.097529   18.876304   19.678515 H          1 MOL1         0.0783
      37    O9      14.337579   19.492118   20.614417 O.3        1 MOL1        -0.3740
      38    C12     14.422601   17.838534   18.829508 C.3        1 MOL1         0.0138
      39    H18     15.135429   17.230810   18.255891 H          1 MOL1         0.0794
      40    H19     14.096757   18.660600   18.178179 H          1 MOL1         0.0794
      41    O10     13.301218   17.034404   19.216654 O.3        1 MOL1        -0.5486
      42    H20     12.837051   16.755860   18.397063 H          1 MOL1         0.3769
      43    C13     18.418335   24.245694   21.387286 C.3        1 MOL1         0.2972
      44    H21     18.772824   25.281907   21.316200 H          1 MOL1         0.0751
      45    O11     19.486634   23.341271   21.727225 O.3        1 MOL1        -0.3740
      46    C14     17.348200   24.135480   22.498255 C.3        1 MOL1         0.1003
      47    H22     16.522780   24.807395   22.228962 H          1 MOL1         0.0783
      48    O12     17.900188   24.542062   23.760741 O.3        1 MOL1        -0.5519
      49    H23     18.857710   24.297508   23.743276 H          1 MOL1         0.3769
      50    C15     16.782967   22.697484   22.595940 C.3        1 MOL1         0.1053
      51    H24     17.578695   22.041225   22.974011 H          1 MOL1         0.0783
      52    O13     15.682342   22.707706   23.511268 O.3        1 MOL1        -0.5519
      53    H25     15.980399   23.279574   24.255306 H          1 MOL1         0.3769
      54    C16     16.336319   22.164967   21.206960 C.3        1 MOL1         0.1018
      55    H26     15.392813   22.647993   20.922452 H          1 MOL1         0.0783
      56    C17     17.397934   22.434813   20.104704 C.3        1 MOL1         0.1043
      57    H27     18.262862   21.790866   20.303319 H          1 MOL1         0.0783
      58    O14     17.826272   23.819117   20.142209 O.3        1 MOL1        -0.3740
      59    C18     16.907325   22.100467   18.673815 C.3        1 MOL1         0.0138
      60    H28     16.878984   21.008404   18.560951 H          1 MOL1         0.0794
      61    H29     17.643225   22.481224   17.953399 H          1 MOL1         0.0794
      62    O15     15.614641   22.647554   18.388441 O.3        1 MOL1        -0.5486
      63    H30     14.953568   22.109409   18.874962 H          1 MOL1         0.3769
      64    C19     23.614160   22.865883   21.426765 C.3        1 MOL1         0.2972
      65    H31     24.687882   23.019436   21.259501 H          1 MOL1         0.0751
      66    O16     23.326042   21.504553   21.803238 O.3        1 MOL1        -0.3740
      67    C20     23.128639   23.782768   22.576505 C.3        1 MOL1         0.1003
      68    H32     23.339045   24.820633   22.287301 H          1 MOL1         0.0783
      69    O17     23.834924   23.470599   23.787949 O.3        1 MOL1        -0.5519
      70    H33     24.028685   22.501362   23.760707 H          1 MOL1         0.3769
      71    C21     21.602589   23.642880   22.790798 C.3        1 MOL1         0.1053
      72    H34     21.411234   22.637077   23.184234 H          1 MOL1         0.0783
      73    O18     21.154674   24.620184   23.736186 O.3        1 MOL1        -0.5519
      74    H35     21.798096   24.572683   24.477837 H          1 MOL1         0.3769
      75    C22     20.825176   23.801586   21.460692 C.3        1 MOL1         0.1018
      76    H36     20.850964   24.859705   21.168987 H          1 MOL1         0.0783
      77    C23     21.432740   22.931070   20.325021 C.3        1 MOL1         0.1043
      78    H37     21.268103   21.878947   20.585840 H          1 MOL1         0.0783
      79    O19     22.858229   23.182363   20.238044 O.3        1 MOL1        -0.3740
      80    C24     20.814585   23.148395   18.919824 C.3        1 MOL1         0.0138
      81    H38     19.956028   22.475150   18.808869 H          1 MOL1         0.0794
      82    H39     21.551573   22.848112   18.163078 H          1 MOL1         0.0794
      83    O20     20.398175   24.497579   18.685994 O.3        1 MOL1        -0.5486
      84    H40     19.488965   24.579130   19.055548 H          1 MOL1         0.3769
      85    C25     24.891874   17.631749   21.291722 C.3        1 MOL1         0.2972
      86    H41     25.564565   16.807969   21.020157 H          1 MOL1         0.0751
      87    O21     23.615271   17.147201   21.743931 O.3        1 MOL1        -0.3740
      88    C26     25.501779   18.481810   22.437625 C.3        1 MOL1         0.1003
      89    H42     26.484560   18.833526   22.097968 H          1 MOL1         0.0783
      90    O22     25.666521   17.688960   23.625285 O.3        1 MOL1        -0.5519
      91    H43     24.829645   17.174125   23.752145 H          1 MOL1         0.3769
      92    C27     24.628006   19.725862   22.740491 C.3        1 MOL1         0.1053
      93    H44     23.679126   19.380534   23.174767 H          1 MOL1         0.0783
      94    O23     25.309028   20.574664   23.671654 O.3        1 MOL1        -0.5519
      95    H45     25.626608   19.973556   24.381520 H          1 MOL1         0.3769
      96    C28     24.309860   20.514105   21.445991 C.3        1 MOL1         0.1018
      97    H46     25.238762   20.971641   21.080798 H          1 MOL1         0.0783
      98    C29     23.730340   19.574106   20.352452 C.3        1 MOL1         0.1043
      99    H47     22.771683   19.175425   20.709120 H          1 MOL1         0.0783
     100    O24     24.663682   18.486220   20.150353 O.3        1 MOL1        -0.3740
     101    C30     23.465879   20.231751   18.974761 C.3        1 MOL1         0.0138
     102    H48     22.461434   20.670725   18.984174 H          1 MOL1         0.0794
     103    H49     23.458105   19.443881   18.209821 H          1 MOL1         0.0794
     104    O25     24.428219   21.234984   18.633195 O.3        1 MOL1        -0.5486
     105    H50     24.125276   22.070544   19.057608 H          1 MOL1         0.3769
     106    C31     21.281139   13.747658   21.799372 C.3        1 MOL1         0.2972
     107    H51     20.872429   12.729320   21.826676 H          1 MOL1         0.0751
     108    O26     20.241797   14.729610   21.624547 O.3        1 MOL1        -0.3740
     109    C32     22.015570   14.047965   23.128311 C.3        1 MOL1         0.1003
     110    H52     22.836718   13.325903   23.225095 H          1 MOL1         0.0783
     111    O27     21.114407   13.895581   24.235910 O.3        1 MOL1        -0.5519
     112    H53     20.219938   14.151870   23.906807 H          1 MOL1         0.3769
     113    C33     22.626555   15.468267   23.114196 C.3        1 MOL1         0.1053
     114    H54     21.800482   16.189696   23.135606 H          1 MOL1         0.0783
     115    O28     23.452122   15.651427   24.270026 O.3        1 MOL1        -0.5519
     116    H55     22.877538   15.416316   25.031677 H          1 MOL1         0.3769
     117    C34     23.466822   15.717404   21.837420 C.3        1 MOL1         0.1018
     118    H56     24.433735   15.211677   21.960614 H          1 MOL1         0.0783
     119    C35     22.767189   15.226382   20.536128 C.3        1 MOL1         0.1043
     120    H57     21.948907   15.923811   20.317268 H          1 MOL1         0.0783
     121    O29     22.221499   13.893786   20.716689 O.3        1 MOL1        -0.3740
     122    C36     23.693046   15.198805   19.295957 C.3        1 MOL1         0.0138
     123    H58     23.889557   16.231806   18.980377 H          1 MOL1         0.0794
     124    H59     23.160395   14.705093   18.472056 H          1 MOL1         0.0794
     125    O30     24.930313   14.526241   19.560899 O.3        1 MOL1        -0.5486
     126    H60     25.431963   14.482200   18.717796 H          1 MOL1         0.3769
     127    C1      19.638419   19.536832   21.442728 C.3        1 MOL1        -0.1693
     128    H1      18.570240   19.732432   21.311483 H          1 MOL1         0.0829
     129    H2      20.161616   19.817006   20.522352 H          1 MOL1         0.0829
     130    C2      19.970988   18.121886   22.008931 C.3        1 MOL1        -0.1768
     131    H3      19.274541   17.321508   21.751870 H          1 MOL1         0.0829
     132    H4      20.992838   17.785960   21.808130 H          1 MOL1         0.0829
     133    C3      19.756239   18.747873   23.417487 C.3        1 MOL1         0.1211
     134    H5      18.707603   18.769198   23.742088 H          1 MOL1         0.0786
     135    C4      20.244377   20.079004   22.778035 C.3        1 MOL1        -0.1768
     136    H6      19.787664   20.988887   23.179468 H          1 MOL1         0.0829
     137    H7      21.332567   20.196300   22.775321 H          1 MOL1         0.0829
     138    O1      20.582892   18.230844   24.433419 O.3        1 MOL1        -0.5515
     139    H8      20.486425   18.814719   25.212314 H          1 MOL1         0.3773
@<TRIPOS>BOND
    1     1     2    1
    2     1     3    1
    3     1     4    1
    4     4     5    1
    5     4     6    1
    6     6     7    1
    7     4     8    1
    8     8     9    1
    9     8    10    1
   10    10    11    1
   11     8    12    1
   12    12    13    1
   13    12    14    1
   14    14    15    1
   15     1    16    1
   16    14    16    1
   17    14    17    1
   18    17    18    1
   19    17    19    1
   20    17    20    1
   21    20    21    1
   22    22    23    1
   23    22    24    1
   24    22    25    1
   25    25    26    1
   26    25    27    1
   27    27    28    1
   28    25    29    1
   29    29    30    1
   30    29    31    1
   31    31    32    1
   32     3    33    1
   33    29    33    1
   34    33    34    1
   35    33    35    1
   36    35    36    1
   37    22    37    1
   38    35    37    1
   39    35    38    1
   40    38    39    1
   41    38    40    1
   42    38    41    1
   43    41    42    1
   44    43    44    1
   45    43    45    1
   46    43    46    1
   47    46    47    1
   48    46    48    1
   49    48    49    1
   50    46    50    1
   51    50    51    1
   52    50    52    1
   53    52    53    1
   54    24    54    1
   55    50    54    1
   56    54    55    1
   57    54    56    1
   58    56    57    1
   59    43    58    1
   60    56    58    1
   61    56    59    1
   62    59    60    1
   63    59    61    1
   64    59    62    1
   65    62    63    1
   66    64    65    1
   67    64    66    1
   68    64    67    1
   69    67    68    1
   70    67    69    1
   71    69    70    1
   72    67    71    1
   73    71    72    1
   74    71    73    1
   75    73    74    1
   76    45    75    1
   77    71    75    1
   78    75    76    1
   79    75    77    1
   80    77    78    1
   81    64    79    1
   82    77    79    1
   83    77    80    1
   84    80    81    1
   85    80    82    1
   86    80    83    1
   87    83    84    1
   88    85    86    1
   89    85    87    1
   90    85    88    1
   91    88    89    1
   92    88    90    1
   93    90    91    1
   94    88    92    1
   95    92    93    1
   96    92    94    1
   97    94    95    1
   98    66    96    1
   99    92    96    1
  100    96    97    1
  101    96    98    1
  102    98    99    1
  103    85   100    1
  104    98   100    1
  105    98   101    1
  106   101   102    1
  107   101   103    1
  108   101   104    1
  109   104   105    1
  110   106   107    1
  111    12   108    1
  112   106   108    1
  113   106   109    1
  114   109   110    1
  115   109   111    1
  116   111   112    1
  117   109   113    1
  118   113   114    1
  119   113   115    1
  120   115   116    1
  121    87   117    1
  122   113   117    1
  123   117   118    1
  124   117   119    1
  125   119   120    1
  126   106   121    1
  127   119   121    1
  128   119   122    1
  129   122   123    1
  130   122   124    1
  131   122   125    1
  132   125   126    1
  133   127   128    1
  134   127   129    1
  135   127   130    1
  136   130   131    1
  137   130   132    1
  138   130   133    1
  139   133   134    1
  140   127   135    1
  141   133   135    1
  142   135   136    1
  143   135   137    1
  144   133   138    1
  145   138   139    1
@<TRIPOS>SUBSTRUCTURE
       1 MOL1            1 RESIDUE      1      MOL     
       2 MOL1          139 RESIDUE      1      MOL     
@<SCITEGIC>MOL_PROPERTY
feprocess Rank
SciTegic.value.IntegerValue
83

@<SCITEGIC>MOL_PROPERTY
Conf_Id
SciTegic.value.IntegerValue
246

@<SCITEGIC>MOL_PROPERTY
Probability
SciTegic.value.DoubleValue
0.05

@<SCITEGIC>MOL_PROPERTY
G
SciTegic.value.DoubleValue
548.612

@<SCITEGIC>MOL_PROPERTY
E
SciTegic.value.DoubleValue
371.149

@<SCITEGIC>MOL_PROPERTY
-TS
SciTegic.value.DoubleValue
177.463

@<SCITEGIC>MOL_PROPERTY
U+W
SciTegic.value.DoubleValue
248.638

@<SCITEGIC>MOL_PROPERTY
U
SciTegic.value.DoubleValue
287.946

@<SCITEGIC>MOL_PROPERTY
W
SciTegic.value.DoubleValue
-39.308

@<SCITEGIC>MOL_PROPERTY
W(PB)
SciTegic.value.DoubleValue
-45.291

@<SCITEGIC>MOL_PROPERTY
W(SA)
SciTegic.value.DoubleValue
5.983

@<SCITEGIC>MOL_PROPERTY
Valence
SciTegic.value.DoubleValue
153.578

@<SCITEGIC>MOL_PROPERTY
Coulomb
SciTegic.value.DoubleValue
156.010

@<SCITEGIC>MOL_PROPERTY
VdW
SciTegic.value.DoubleValue
-21.641

@<SCITEGIC>MOL_PROPERTY
VdW6
SciTegic.value.DoubleValue
-167.533

@<SCITEGIC>MOL_PROPERTY
VdW12
SciTegic.value.DoubleValue
145.892

@<SCITEGIC>MOL_PROPERTY
Bond
SciTegic.value.DoubleValue
4.602

@<SCITEGIC>MOL_PROPERTY
Angle
SciTegic.value.DoubleValue
11.879

@<SCITEGIC>MOL_PROPERTY
Pdih
SciTegic.value.DoubleValue
137.097

@<SCITEGIC>MOL_PROPERTY
Idih
SciTegic.value.DoubleValue
0.000

@<SCITEGIC>MOL_PROPERTY
Tether
SciTegic.value.DoubleValue
0.000

@<TRIPOS>MOLECULE
CD_guest-s16_fast_vm2_rndm.mol2 : feprocess host+ligand conformer 84
         139         145           2
SMALL
USER_CHARGES
 
@<TRIPOS>ATOM
       1    C1      16.359925   15.293799   20.751794 C.3        1 MOL1         0.2972
       2    H1      15.320759   15.146369   20.431597 H          1 MOL1         0.0751
       3    O1      16.637723   16.689947   20.989288 O.3        1 MOL1        -0.3740
       4    C2      16.672378   14.459271   22.027676 C.3        1 MOL1         0.1003
       5    H2      16.493585   13.407206   21.770329 H          1 MOL1         0.0783
       6    O2      15.823333   14.812081   23.130205 O.3        1 MOL1        -0.5519
       7    H3      16.018768   15.757849   23.350983 H          1 MOL1         0.3769
       8    C3      18.160903   14.597624   22.429755 C.3        1 MOL1         0.1053
       9    H4      18.341091   15.638296   22.734778 H          1 MOL1         0.0783
      10    O3      18.449794   13.710736   23.517365 O.3        1 MOL1        -0.5519
      11    H5      17.707450   13.829899   24.150376 H          1 MOL1         0.3769
      12    C4      19.087399   14.277623   21.232889 C.3        1 MOL1         0.1018
      13    H6      19.033144   13.200556   21.027884 H          1 MOL1         0.0783
      14    C5      18.671635   15.075586   19.966490 C.3        1 MOL1         0.1043
      15    H7      18.838395   16.141933   20.164647 H          1 MOL1         0.0783
      16    O4      17.261441   14.848824   19.712717 O.3        1 MOL1        -0.3740
      17    C6      19.463881   14.724800   18.681515 C.3        1 MOL1         0.0138
      18    H8      20.378045   15.330184   18.662174 H          1 MOL1         0.0794
      19    H9      18.865654   15.023768   17.810596 H          1 MOL1         0.0794
      20    O5      19.810485   13.338616   18.589556 O.3        1 MOL1        -0.5486
      21    H10     20.658248   13.230908   19.078037 H          1 MOL1         0.3769
      22    C7      14.854418   20.372068   21.690568 C.3        1 MOL1         0.2972
      23    H11     14.177233   21.197218   21.945913 H          1 MOL1         0.0751
      24    O6      16.041065   20.849757   21.023648 O.3        1 MOL1        -0.3740
      25    C8      15.241610   19.574435   22.966565 C.3        1 MOL1         0.1003
      26    H12     14.308288   19.178035   23.387426 H          1 MOL1         0.0783
      27    O7      15.882882   20.396750   23.954007 O.3        1 MOL1        -0.5519
      28    H13     15.739584   21.338206   23.692514 H          1 MOL1         0.3769
      29    C9      16.152749   18.375274   22.622266 C.3        1 MOL1         0.1053
      30    H14     17.117388   18.773659   22.284062 H          1 MOL1         0.0783
      31    O8      16.345328   17.586875   23.801295 O.3        1 MOL1        -0.5519
      32    H15     16.560154   18.243986   24.501528 H          1 MOL1         0.3769
      33    C10     15.555967   17.504649   21.488127 C.3        1 MOL1         0.1018
      34    H16     14.741760   16.897607   21.905034 H          1 MOL1         0.0783
      35    C11     15.018773   18.356499   20.301693 C.3        1 MOL1         0.1043
      36    H17     15.879815   18.768448   19.759452 H          1 MOL1         0.0783
      37    O9      14.199611   19.448989   20.794747 O.3        1 MOL1        -0.3740
      38    C12     14.185164   17.544265   19.281689 C.3        1 MOL1         0.0138
      39    H18     14.864328   16.887847   18.721053 H          1 MOL1         0.0794
      40    H19     13.738467   18.242146   18.560849 H          1 MOL1         0.0794
      41    O10     13.165155   16.761580   19.915056 O.3        1 MOL1        -0.5486
      42    H20     12.624816   16.347072   19.207283 H          1 MOL1         0.3769
      43    C13     18.386621   24.170247   20.534524 C.3        1 MOL1         0.2972
      44    H21     18.870476   25.130239   20.313599 H          1 MOL1         0.0751
      45    O11     19.365114   23.134776   20.790870 O.3        1 MOL1        -0.3740
      46    C14     17.401260   24.301070   21.725551 C.3        1 MOL1         0.1003
      47    H22     16.605241   24.985327   21.403542 H          1 MOL1         0.0783
      48    O12     18.025175   24.846941   22.896517 O.3        1 MOL1        -0.5519
      49    H23     18.675553   24.169539   23.210736 H          1 MOL1         0.3769
      50    C15     16.747625   22.935538   22.045059 C.3        1 MOL1         0.1053
      51    H24     17.528431   22.267655   22.434099 H          1 MOL1         0.0783
      52    O13     15.735869   23.136149   23.038450 O.3        1 MOL1        -0.5519
      53    H25     16.120899   23.790493   23.665257 H          1 MOL1         0.3769
      54    C16     16.133764   22.270610   20.781359 C.3        1 MOL1         0.1018
      55    H26     15.146732   22.710056   20.590927 H          1 MOL1         0.0783
      56    C17     17.012980   22.427437   19.505247 C.3        1 MOL1         0.1043
      57    H27     17.833846   21.709211   19.571381 H          1 MOL1         0.0783
      58    O14     17.582120   23.756542   19.410841 O.3        1 MOL1        -0.3740
      59    C18     16.260013   22.108472   18.190847 C.3        1 MOL1         0.0138
      60    H28     16.040278   21.032443   18.165962 H          1 MOL1         0.0794
      61    H29     16.930692   22.321563   17.347934 H          1 MOL1         0.0794
      62    O15     15.045680   22.856840   18.051468 O.3        1 MOL1        -0.5486
      63    H30     14.375305   22.450331   18.641107 H          1 MOL1         0.3769
      64    C19     23.274390   22.516589   22.142465 C.3        1 MOL1         0.2972
      65    H31     24.273005   22.657539   22.574975 H          1 MOL1         0.0751
      66    O16     23.167081   21.243491   21.472631 O.3        1 MOL1        -0.3740
      67    C20     22.191147   22.614029   23.250721 C.3        1 MOL1         0.1003
      68    H32     22.298843   23.603834   23.713362 H          1 MOL1         0.0783
      69    O17     22.360597   21.606112   24.260288 O.3        1 MOL1        -0.5519
      70    H33     23.304307   21.317454   24.226037 H          1 MOL1         0.3769
      71    C21     20.767337   22.517465   22.657408 C.3        1 MOL1         0.1053
      72    H34     20.630758   21.502174   22.264023 H          1 MOL1         0.0783
      73    O18     19.824958   22.762933   23.705057 O.3        1 MOL1        -0.5519
      74    H35     20.135194   22.199170   24.449664 H          1 MOL1         0.3769
      75    C22     20.566303   23.521529   21.494261 C.3        1 MOL1         0.1018
      76    H36     20.489665   24.534406   21.911008 H          1 MOL1         0.0783
      77    C23     21.740344   23.466216   20.477195 C.3        1 MOL1         0.1043
      78    H37     21.689078   22.508217   19.944919 H          1 MOL1         0.0783
      79    O19     23.009759   23.553206   21.173011 O.3        1 MOL1        -0.3740
      80    C24     21.686714   24.589519   19.414092 C.3        1 MOL1         0.0138
      81    H38     20.851275   24.382540   18.731564 H          1 MOL1         0.0794
      82    H39     22.609870   24.554238   18.820229 H          1 MOL1         0.0794
      83    O20     21.521789   25.885615   20.003533 O.3        1 MOL1        -0.5486
      84    H40     21.576965   26.550040   19.282355 H          1 MOL1         0.3769
      85    C25     25.192903   17.608085   21.391983 C.3        1 MOL1         0.2972
      86    H41     25.919359   16.792692   21.287441 H          1 MOL1         0.0751
      87    O21     23.855538   17.118307   21.607545 O.3        1 MOL1        -0.3740
      88    C26     25.561576   18.507784   22.595670 C.3        1 MOL1         0.1003
      89    H42     26.547293   18.944201   22.387738 H          1 MOL1         0.0783
      90    O22     25.634928   17.741622   23.808324 O.3        1 MOL1        -0.5519
      91    H43     24.906528   17.070325   23.777000 H          1 MOL1         0.3769
      92    C27     24.549838   19.670525   22.748741 C.3        1 MOL1         0.1053
      93    H44     23.577344   19.244458   23.033064 H          1 MOL1         0.0783
      94    O23     25.024414   20.540347   23.782764 O.3        1 MOL1        -0.5519
      95    H45     25.372927   19.934437   24.476743 H          1 MOL1         0.3769
      96    C28     24.369200   20.443190   21.410386 C.3        1 MOL1         0.1018
      97    H46     25.253857   21.068988   21.236994 H          1 MOL1         0.0783
      98    C29     24.182846   19.484508   20.201057 C.3        1 MOL1         0.1043
      99    H47     23.197458   19.017093   20.293930 H          1 MOL1         0.0783
     100    O24     25.189664   18.442330   20.214670 O.3        1 MOL1        -0.3740
     101    C30     24.215070   20.199298   18.827672 C.3        1 MOL1         0.0138
     102    H48     23.283370   20.768818   18.708892 H          1 MOL1         0.0794
     103    H49     24.230980   19.436356   18.038180 H          1 MOL1         0.0794
     104    O25     25.338628   21.076668   18.685809 O.3        1 MOL1        -0.5486
     105    H50     25.167529   21.867289   19.241387 H          1 MOL1         0.3769
     106    C31     21.464748   13.722164   21.494250 C.3        1 MOL1         0.2972
     107    H51     21.074155   12.699158   21.423286 H          1 MOL1         0.0751
     108    O26     20.406666   14.686685   21.631618 O.3        1 MOL1        -0.3740
     109    C32     22.361058   13.858213   22.748368 C.3        1 MOL1         0.1003
     110    H52     23.192130   13.148603   22.644768 H          1 MOL1         0.0783
     111    O27     21.607956   13.544534   23.931293 O.3        1 MOL1        -0.5519
     112    H53     20.684362   13.859931   23.768520 H          1 MOL1         0.3769
     113    C33     22.953132   15.284748   22.847034 C.3        1 MOL1         0.1053
     114    H54     22.128721   15.987419   23.032761 H          1 MOL1         0.0783
     115    O28     23.888032   15.335982   23.929925 O.3        1 MOL1        -0.5519
     116    H55     23.431837   14.890194   24.678396 H          1 MOL1         0.3769
     117    C34     23.647542   15.696274   21.526059 C.3        1 MOL1         0.1018
     118    H56     24.590209   15.141154   21.438024 H          1 MOL1         0.0783
     119    C35     22.751964   15.418581   20.286158 C.3        1 MOL1         0.1043
     120    H57     21.903709   16.112073   20.320242 H          1 MOL1         0.0783
     121    O29     22.250514   14.056675   20.328848 O.3        1 MOL1        -0.3740
     122    C36     23.461361   15.645935   18.928929 C.3        1 MOL1         0.0138
     123    H58     23.564610   16.726753   18.764133 H          1 MOL1         0.0794
     124    H59     22.815118   15.258238   18.130508 H          1 MOL1         0.0794
     125    O30     24.748160   15.020170   18.863590 O.3        1 MOL1        -0.5486
     126    H60     25.401986   15.654887   19.225747 H          1 MOL1         0.3769
     127    C1      19.739971   19.905795   19.014779 C.3        1 MOL1        -0.1693
     128    H1      20.319323   20.837016   19.037348 H          1 MOL1         0.0829
     129    H2      19.063885   19.933313   18.152454 H          1 MOL1         0.0829
     130    C2      19.093906   19.502854   20.381281 C.3        1 MOL1        -0.1768
     131    H3      18.280414   18.773603   20.298950 H          1 MOL1         0.0829
     132    H4      18.776385   20.317967   21.039410 H          1 MOL1         0.0829
     133    C3      20.480082   18.887293   20.713849 C.3        1 MOL1         0.1211
     134    H5      21.208679   19.618280   21.083702 H          1 MOL1         0.0786
     135    C4      20.581894   18.599884   19.183763 C.3        1 MOL1        -0.1768
     136    H6      20.072557   17.687544   18.856435 H          1 MOL1         0.0829
     137    H7      21.585808   18.613189   18.750487 H          1 MOL1         0.0829
     138    O1      20.442639   17.760698   21.551449 O.3        1 MOL1        -0.5515
     139    H8      20.175060   18.062630   22.440741 H          1 MOL1         0.3773
@<TRIPOS>BOND
    1     1     2    1
    2     1     3    1
    3     1     4    1
    4     4     5    1
    5     4     6    1
    6     6     7    1
    7     4     8    1
    8     8     9    1
    9     8    10    1
   10    10    11    1
   11     8    12    1
   12    12    13    1
   13    12    14    1
   14    14    15    1
   15     1    16    1
   16    14    16    1
   17    14    17    1
   18    17    18    1
   19    17    19    1
   20    17    20    1
   21    20    21    1
   22    22    23    1
   23    22    24    1
   24    22    25    1
   25    25    26    1
   26    25    27    1
   27    27    28    1
   28    25    29    1
   29    29    30    1
   30    29    31    1
   31    31    32    1
   32     3    33    1
   33    29    33    1
   34    33    34    1
   35    33    35    1
   36    35    36    1
   37    22    37    1
   38    35    37    1
   39    35    38    1
   40    38    39    1
   41    38    40    1
   42    38    41    1
   43    41    42    1
   44    43    44    1
   45    43    45    1
   46    43    46    1
   47    46    47    1
   48    46    48    1
   49    48    49    1
   50    46    50    1
   51    50    51    1
   52    50    52    1
   53    52    53    1
   54    24    54    1
   55    50    54    1
   56    54    55    1
   57    54    56    1
   58    56    57    1
   59    43    58    1
   60    56    58    1
   61    56    59    1
   62    59    60    1
   63    59    61    1
   64    59    62    1
   65    62    63    1
   66    64    65    1
   67    64    66    1
   68    64    67    1
   69    67    68    1
   70    67    69    1
   71    69    70    1
   72    67    71    1
   73    71    72    1
   74    71    73    1
   75    73    74    1
   76    45    75    1
   77    71    75    1
   78    75    76    1
   79    75    77    1
   80    77    78    1
   81    64    79    1
   82    77    79    1
   83    77    80    1
   84    80    81    1
   85    80    82    1
   86    80    83    1
   87    83    84    1
   88    85    86    1
   89    85    87    1
   90    85    88    1
   91    88    89    1
   92    88    90    1
   93    90    91    1
   94    88    92    1
   95    92    93    1
   96    92    94    1
   97    94    95    1
   98    66    96    1
   99    92    96    1
  100    96    97    1
  101    96    98    1
  102    98    99    1
  103    85   100    1
  104    98   100    1
  105    98   101    1
  106   101   102    1
  107   101   103    1
  108   101   104    1
  109   104   105    1
  110   106   107    1
  111    12   108    1
  112   106   108    1
  113   106   109    1
  114   109   110    1
  115   109   111    1
  116   111   112    1
  117   109   113    1
  118   113   114    1
  119   113   115    1
  120   115   116    1
  121    87   117    1
  122   113   117    1
  123   117   118    1
  124   117   119    1
  125   119   120    1
  126   106   121    1
  127   119   121    1
  128   119   122    1
  129   122   123    1
  130   122   124    1
  131   122   125    1
  132   125   126    1
  133   127   128    1
  134   127   129    1
  135   127   130    1
  136   130   131    1
  137   130   132    1
  138   130   133    1
  139   133   134    1
  140   127   135    1
  141   133   135    1
  142   135   136    1
  143   135   137    1
  144   133   138    1
  145   138   139    1
@<TRIPOS>SUBSTRUCTURE
       1 MOL1            1 RESIDUE      1      MOL     
       2 MOL1          139 RESIDUE      1      MOL     
@<SCITEGIC>MOL_PROPERTY
feprocess Rank
SciTegic.value.IntegerValue
84

@<SCITEGIC>MOL_PROPERTY
Conf_Id
SciTegic.value.IntegerValue
827

@<SCITEGIC>MOL_PROPERTY
Probability
SciTegic.value.DoubleValue
0.05

@<SCITEGIC>MOL_PROPERTY
G
SciTegic.value.DoubleValue
548.637

@<SCITEGIC>MOL_PROPERTY
E
SciTegic.value.DoubleValue
370.600

@<SCITEGIC>MOL_PROPERTY
-TS
SciTegic.value.DoubleValue
178.037

@<SCITEGIC>MOL_PROPERTY
U+W
SciTegic.value.DoubleValue
248.088

@<SCITEGIC>MOL_PROPERTY
U
SciTegic.value.DoubleValue
287.369

@<SCITEGIC>MOL_PROPERTY
W
SciTegic.value.DoubleValue
-39.280

@<SCITEGIC>MOL_PROPERTY
W(PB)
SciTegic.value.DoubleValue
-45.286

@<SCITEGIC>MOL_PROPERTY
W(SA)
SciTegic.value.DoubleValue
6.006

@<SCITEGIC>MOL_PROPERTY
Valence
SciTegic.value.DoubleValue
152.025

@<SCITEGIC>MOL_PROPERTY
Coulomb
SciTegic.value.DoubleValue
155.267

@<SCITEGIC>MOL_PROPERTY
VdW
SciTegic.value.DoubleValue
-19.923

@<SCITEGIC>MOL_PROPERTY
VdW6
SciTegic.value.DoubleValue
-167.906

@<SCITEGIC>MOL_PROPERTY
VdW12
SciTegic.value.DoubleValue
147.982

@<SCITEGIC>MOL_PROPERTY
Bond
SciTegic.value.DoubleValue
4.810

@<SCITEGIC>MOL_PROPERTY
Angle
SciTegic.value.DoubleValue
13.164

@<SCITEGIC>MOL_PROPERTY
Pdih
SciTegic.value.DoubleValue
134.051

@<SCITEGIC>MOL_PROPERTY
Idih
SciTegic.value.DoubleValue
0.000

@<SCITEGIC>MOL_PROPERTY
Tether
SciTegic.value.DoubleValue
0.000

@<TRIPOS>MOLECULE
CD_guest-s16_fast_vm2_rndm.mol2 : feprocess host+ligand conformer 85
         139         145           2
SMALL
USER_CHARGES
 
@<TRIPOS>ATOM
       1    C1      16.096929   15.160882   21.614237 C.3        1 MOL1         0.2972
       2    H1      15.006913   15.035112   21.650522 H          1 MOL1         0.0751
       3    O1      16.461182   16.556382   21.547760 O.3        1 MOL1        -0.3740
       4    C2      16.731309   14.535087   22.880326 C.3        1 MOL1         0.1003
       5    H2      16.483318   13.465669   22.881711 H          1 MOL1         0.0783
       6    O2      16.196773   15.149257   24.062256 O.3        1 MOL1        -0.5519
       7    H3      16.054686   16.099324   23.843651 H          1 MOL1         0.3769
       8    C3      18.269917   14.669115   22.854519 C.3        1 MOL1         0.1053
       9    H4      18.513239   15.729936   22.972674 H          1 MOL1         0.0783
      10    O3      18.839568   13.931600   23.940669 O.3        1 MOL1        -0.5519
      11    H5      18.310310   14.189373   24.728108 H          1 MOL1         0.3769
      12    C4      18.875178   14.178823   21.517015 C.3        1 MOL1         0.1018
      13    H6      18.931184   13.082376   21.540135 H          1 MOL1         0.0783
      14    C5      18.080983   14.656299   20.268331 C.3        1 MOL1         0.1043
      15    H7      18.305778   15.720442   20.131971 H          1 MOL1         0.0783
      16    O4      16.651411   14.496299   20.460704 O.3        1 MOL1        -0.3740
      17    C6      18.481521   13.930592   18.961382 C.3        1 MOL1         0.0138
      18    H8      19.486007   14.264280   18.668773 H          1 MOL1         0.0794
      19    H9      17.792417   14.237408   18.163059 H          1 MOL1         0.0794
      20    O5      18.467022   12.505740   19.110929 O.3        1 MOL1        -0.5486
      21    H10     18.660418   12.111783   18.232319 H          1 MOL1         0.3769
      22    C7      14.983162   20.275164   20.426107 C.3        1 MOL1         0.2972
      23    H11     14.430996   21.122350   19.999374 H          1 MOL1         0.0751
      24    O6      16.237459   20.692019   20.999796 O.3        1 MOL1        -0.3740
      25    C8      14.146713   19.543894   21.509272 C.3        1 MOL1         0.1003
      26    H12     13.244893   19.157930   21.016493 H          1 MOL1         0.0783
      27    O7      13.756440   20.432284   22.567575 O.3        1 MOL1        -0.5519
      28    H13     14.589029   20.786235   22.972153 H          1 MOL1         0.3769
      29    C9      14.932505   18.337744   22.079406 C.3        1 MOL1         0.1053
      30    H14     15.784585   18.733335   22.647177 H          1 MOL1         0.0783
      31    O8      14.083508   17.583391   22.949635 O.3        1 MOL1        -0.5519
      32    H15     13.651976   18.247981   23.530680 H          1 MOL1         0.3769
      33    C10     15.472495   17.420985   20.948930 C.3        1 MOL1         0.1018
      34    H16     14.626203   16.854763   20.538171 H          1 MOL1         0.0783
      35    C11     16.151723   18.218423   19.796872 C.3        1 MOL1         0.1043
      36    H17     17.099729   18.627510   20.170122 H          1 MOL1         0.0783
      37    O9      15.283190   19.307807   19.397379 O.3        1 MOL1        -0.3740
      38    C12     16.490716   17.387979   18.530301 C.3        1 MOL1         0.0138
      39    H18     17.515384   17.009572   18.621329 H          1 MOL1         0.0794
      40    H19     16.485650   18.061006   17.662453 H          1 MOL1         0.0794
      41    O10     15.590658   16.296388   18.303852 O.3        1 MOL1        -0.5486
      42    H20     15.796228   15.603659   18.974754 H          1 MOL1         0.3769
      43    C13     18.542446   23.927660   22.067582 C.3        1 MOL1         0.2972
      44    H21     18.948405   24.904411   22.361894 H          1 MOL1         0.0751
      45    O11     19.598709   22.986880   21.792651 O.3        1 MOL1        -0.3740
      46    C14     17.667661   23.359789   23.211291 C.3        1 MOL1         0.1003
      47    H22     16.846965   24.067936   23.384736 H          1 MOL1         0.0783
      48    O12     18.445254   23.228842   24.410384 O.3        1 MOL1        -0.5519
      49    H23     19.358663   23.008883   24.118953 H          1 MOL1         0.3769
      50    C15     17.050115   21.997576   22.820153 C.3        1 MOL1         0.1053
      51    H24     17.860727   21.260340   22.755065 H          1 MOL1         0.0783
      52    O13     16.116429   21.597096   23.828533 O.3        1 MOL1        -0.5519
      53    H25     16.608632   21.677737   24.675434 H          1 MOL1         0.3769
      54    C16     16.344811   22.057537   21.443025 C.3        1 MOL1         0.1018
      55    H26     15.363420   22.535197   21.564237 H          1 MOL1         0.0783
      56    C17     17.182300   22.803225   20.366700 C.3        1 MOL1         0.1043
      57    H27     18.011183   22.140843   20.094079 H          1 MOL1         0.0783
      58    O14     17.723873   24.045992   20.884911 O.3        1 MOL1        -0.3740
      59    C18     16.395347   23.112384   19.070408 C.3        1 MOL1         0.0138
      60    H28     16.215654   22.168824   18.537609 H          1 MOL1         0.0794
      61    H29     17.019758   23.738883   18.419398 H          1 MOL1         0.0794
      62    O15     15.147949   23.763329   19.340368 O.3        1 MOL1        -0.5486
      63    H30     14.744734   24.005225   18.478052 H          1 MOL1         0.3769
      64    C19     23.612254   22.736720   20.815810 C.3        1 MOL1         0.2972
      65    H31     24.638077   22.866727   20.447358 H          1 MOL1         0.0751
      66    O16     23.374587   21.393025   21.279474 O.3        1 MOL1        -0.3740
      67    C20     23.298039   23.717592   21.974142 C.3        1 MOL1         0.1003
      68    H32     23.383099   24.735614   21.572244 H          1 MOL1         0.0783
      69    O17     24.225091   23.563827   23.060063 O.3        1 MOL1        -0.5519
      70    H33     24.206147   22.611400   23.332940 H          1 MOL1         0.3769
      71    C21     21.843996   23.518779   22.469321 C.3        1 MOL1         0.1053
      72    H34     21.781579   22.530231   22.939903 H          1 MOL1         0.0783
      73    O18     21.525688   24.529994   23.429877 O.3        1 MOL1        -0.5519
      74    H35     22.300524   24.566585   24.033369 H          1 MOL1         0.3769
      75    C22     20.826508   23.558411   21.298459 C.3        1 MOL1         0.1018
      76    H36     20.698025   24.603819   20.988951 H          1 MOL1         0.0783
      77    C23     21.280477   22.713707   20.071614 C.3        1 MOL1         0.1043
      78    H37     21.192414   21.652084   20.333949 H          1 MOL1         0.0783
      79    O19     22.664261   23.012792   19.762541 O.3        1 MOL1        -0.3740
      80    C24     20.440627   22.925536   18.783755 C.3        1 MOL1         0.0138
      81    H38     19.647939   22.168786   18.754632 H          1 MOL1         0.0794
      82    H39     21.082638   22.733461   17.913654 H          1 MOL1         0.0794
      83    O20     19.865457   24.234821   18.684366 O.3        1 MOL1        -0.5486
      84    H40     19.182949   24.312515   19.391246 H          1 MOL1         0.3769
      85    C25     24.983432   17.690197   21.927160 C.3        1 MOL1         0.2972
      86    H41     25.595856   16.795117   22.097826 H          1 MOL1         0.0751
      87    O21     23.597357   17.354417   21.716838 O.3        1 MOL1        -0.3740
      88    C26     25.074973   18.628863   23.151682 C.3        1 MOL1         0.1003
      89    H42     26.121817   18.943195   23.254074 H          1 MOL1         0.0783
      90    O22     24.662414   17.942539   24.345061 O.3        1 MOL1        -0.5519
      91    H43     24.241935   17.094927   24.058717 H          1 MOL1         0.3769
      92    C27     24.210783   19.888887   22.927422 C.3        1 MOL1         0.1053
      93    H44     23.163222   19.569411   22.906871 H          1 MOL1         0.0783
      94    O23     24.411572   20.803625   24.008924 O.3        1 MOL1        -0.5519
      95    H45     24.359736   20.247260   24.818370 H          1 MOL1         0.3769
      96    C28     24.523506   20.578157   21.575384 C.3        1 MOL1         0.1018
      97    H46     25.440122   21.173042   21.683942 H          1 MOL1         0.0783
      98    C29     24.659655   19.574238   20.393728 C.3        1 MOL1         0.1043
      99    H47     23.648286   19.241870   20.130669 H          1 MOL1         0.0783
     100    O24     25.448395   18.415644   20.770348 O.3        1 MOL1        -0.3740
     101    C30     25.277711   20.198190   19.119964 C.3        1 MOL1         0.0138
     102    H48     24.551121   20.899124   18.687105 H          1 MOL1         0.0794
     103    H49     25.441039   19.401289   18.381910 H          1 MOL1         0.0794
     104    O25     26.506357   20.881416   19.396706 O.3        1 MOL1        -0.5486
     105    H50     26.879235   21.183356   18.539663 H          1 MOL1         0.3769
     106    C31     21.258255   13.968509   20.971739 C.3        1 MOL1         0.2972
     107    H51     20.908296   12.982077   20.640798 H          1 MOL1         0.0751
     108    O26     20.175403   14.791041   21.443153 O.3        1 MOL1        -0.3740
     109    C32     22.274341   13.836260   22.137548 C.3        1 MOL1         0.1003
     110    H52     23.119442   13.238328   21.772410 H          1 MOL1         0.0783
     111    O27     21.679835   13.174611   23.266220 O.3        1 MOL1        -0.5519
     112    H53     20.789547   13.582712   23.415466 H          1 MOL1         0.3769
     113    C33     22.815027   15.228247   22.552580 C.3        1 MOL1         0.1053
     114    H54     21.984334   15.803250   22.982990 H          1 MOL1         0.0783
     115    O28     23.852243   15.075216   23.527114 O.3        1 MOL1        -0.5519
     116    H55     23.513641   14.399256   24.156286 H          1 MOL1         0.3769
     117    C34     23.349820   15.995665   21.318371 C.3        1 MOL1         0.1018
     118    H56     24.263399   15.500332   20.963323 H          1 MOL1         0.0783
     119    C35     22.315263   16.024254   20.163132 C.3        1 MOL1         0.1043
     120    H57     21.446012   16.610230   20.487581 H          1 MOL1         0.0783
     121    O29     21.903643   14.664789   19.880878 O.3        1 MOL1        -0.3740
     122    C36     22.833345   16.673875   18.853015 C.3        1 MOL1         0.0138
     123    H58     22.609838   17.747428   18.887311 H          1 MOL1         0.0794
     124    H59     22.265693   16.260422   18.008751 H          1 MOL1         0.0794
     125    O30     24.238429   16.483689   18.641355 O.3        1 MOL1        -0.5486
     126    H60     24.713082   17.022672   19.316051 H          1 MOL1         0.3769
     127    C1      20.464769   19.956071   23.665852 C.3        1 MOL1        -0.1693
     128    H1      21.340965   20.565644   23.907640 H          1 MOL1         0.0829
     129    H2      19.584315   20.408824   24.138677 H          1 MOL1         0.0829
     130    C2      20.612432   18.419956   23.918995 C.3        1 MOL1        -0.1768
     131    H3      21.625389   18.028178   23.774291 H          1 MOL1         0.0829
     132    H4      20.228501   18.051878   24.876485 H          1 MOL1         0.0829
     133    C3      19.666125   18.229327   22.694444 C.3        1 MOL1         0.1211
     134    H5      19.884794   17.345964   22.083670 H          1 MOL1         0.0786
     135    C4      20.272230   19.563797   22.161591 C.3        1 MOL1        -0.1768
     136    H6      19.592183   20.195212   21.580962 H          1 MOL1         0.0829
     137    H7      21.204274   19.440247   21.598032 H          1 MOL1         0.0829
     138    O1      18.289331   18.280866   23.008518 O.3        1 MOL1        -0.5515
     139    H8      17.790917   17.844428   22.286494 H          1 MOL1         0.3773
@<TRIPOS>BOND
    1     1     2    1
    2     1     3    1
    3     1     4    1
    4     4     5    1
    5     4     6    1
    6     6     7    1
    7     4     8    1
    8     8     9    1
    9     8    10    1
   10    10    11    1
   11     8    12    1
   12    12    13    1
   13    12    14    1
   14    14    15    1
   15     1    16    1
   16    14    16    1
   17    14    17    1
   18    17    18    1
   19    17    19    1
   20    17    20    1
   21    20    21    1
   22    22    23    1
   23    22    24    1
   24    22    25    1
   25    25    26    1
   26    25    27    1
   27    27    28    1
   28    25    29    1
   29    29    30    1
   30    29    31    1
   31    31    32    1
   32     3    33    1
   33    29    33    1
   34    33    34    1
   35    33    35    1
   36    35    36    1
   37    22    37    1
   38    35    37    1
   39    35    38    1
   40    38    39    1
   41    38    40    1
   42    38    41    1
   43    41    42    1
   44    43    44    1
   45    43    45    1
   46    43    46    1
   47    46    47    1
   48    46    48    1
   49    48    49    1
   50    46    50    1
   51    50    51    1
   52    50    52    1
   53    52    53    1
   54    24    54    1
   55    50    54    1
   56    54    55    1
   57    54    56    1
   58    56    57    1
   59    43    58    1
   60    56    58    1
   61    56    59    1
   62    59    60    1
   63    59    61    1
   64    59    62    1
   65    62    63    1
   66    64    65    1
   67    64    66    1
   68    64    67    1
   69    67    68    1
   70    67    69    1
   71    69    70    1
   72    67    71    1
   73    71    72    1
   74    71    73    1
   75    73    74    1
   76    45    75    1
   77    71    75    1
   78    75    76    1
   79    75    77    1
   80    77    78    1
   81    64    79    1
   82    77    79    1
   83    77    80    1
   84    80    81    1
   85    80    82    1
   86    80    83    1
   87    83    84    1
   88    85    86    1
   89    85    87    1
   90    85    88    1
   91    88    89    1
   92    88    90    1
   93    90    91    1
   94    88    92    1
   95    92    93    1
   96    92    94    1
   97    94    95    1
   98    66    96    1
   99    92    96    1
  100    96    97    1
  101    96    98    1
  102    98    99    1
  103    85   100    1
  104    98   100    1
  105    98   101    1
  106   101   102    1
  107   101   103    1
  108   101   104    1
  109   104   105    1
  110   106   107    1
  111    12   108    1
  112   106   108    1
  113   106   109    1
  114   109   110    1
  115   109   111    1
  116   111   112    1
  117   109   113    1
  118   113   114    1
  119   113   115    1
  120   115   116    1
  121    87   117    1
  122   113   117    1
  123   117   118    1
  124   117   119    1
  125   119   120    1
  126   106   121    1
  127   119   121    1
  128   119   122    1
  129   122   123    1
  130   122   124    1
  131   122   125    1
  132   125   126    1
  133   127   128    1
  134   127   129    1
  135   127   130    1
  136   130   131    1
  137   130   132    1
  138   130   133    1
  139   133   134    1
  140   127   135    1
  141   133   135    1
  142   135   136    1
  143   135   137    1
  144   133   138    1
  145   138   139    1
@<TRIPOS>SUBSTRUCTURE
       1 MOL1            1 RESIDUE      1      MOL     
       2 MOL1          139 RESIDUE      1      MOL     
@<SCITEGIC>MOL_PROPERTY
feprocess Rank
SciTegic.value.IntegerValue
85

@<SCITEGIC>MOL_PROPERTY
Conf_Id
SciTegic.value.IntegerValue
428

@<SCITEGIC>MOL_PROPERTY
Probability
SciTegic.value.DoubleValue
0.05

@<SCITEGIC>MOL_PROPERTY
G
SciTegic.value.DoubleValue
548.638

@<SCITEGIC>MOL_PROPERTY
E
SciTegic.value.DoubleValue
370.744

@<SCITEGIC>MOL_PROPERTY
-TS
SciTegic.value.DoubleValue
177.894

@<SCITEGIC>MOL_PROPERTY
U+W
SciTegic.value.DoubleValue
248.233

@<SCITEGIC>MOL_PROPERTY
U
SciTegic.value.DoubleValue
285.025

@<SCITEGIC>MOL_PROPERTY
W
SciTegic.value.DoubleValue
-36.792

@<SCITEGIC>MOL_PROPERTY
W(PB)
SciTegic.value.DoubleValue
-42.752

@<SCITEGIC>MOL_PROPERTY
W(SA)
SciTegic.value.DoubleValue
5.959

@<SCITEGIC>MOL_PROPERTY
Valence
SciTegic.value.DoubleValue
152.453

@<SCITEGIC>MOL_PROPERTY
Coulomb
SciTegic.value.DoubleValue
153.857

@<SCITEGIC>MOL_PROPERTY
VdW
SciTegic.value.DoubleValue
-21.284

@<SCITEGIC>MOL_PROPERTY
VdW6
SciTegic.value.DoubleValue
-168.619

@<SCITEGIC>MOL_PROPERTY
VdW12
SciTegic.value.DoubleValue
147.335

@<SCITEGIC>MOL_PROPERTY
Bond
SciTegic.value.DoubleValue
4.495

@<SCITEGIC>MOL_PROPERTY
Angle
SciTegic.value.DoubleValue
11.798

@<SCITEGIC>MOL_PROPERTY
Pdih
SciTegic.value.DoubleValue
136.160

@<SCITEGIC>MOL_PROPERTY
Idih
SciTegic.value.DoubleValue
0.000

@<SCITEGIC>MOL_PROPERTY
Tether
SciTegic.value.DoubleValue
0.000

@<TRIPOS>MOLECULE
CD_guest-s16_fast_vm2_rndm.mol2 : feprocess host+ligand conformer 86
         139         145           2
SMALL
USER_CHARGES
 
@<TRIPOS>ATOM
       1    C1      16.269789   15.196797   21.296207 C.3        1 MOL1         0.2972
       2    H1      15.206968   15.012693   21.093210 H          1 MOL1         0.0751
       3    O1      16.548452   16.606438   21.409463 O.3        1 MOL1        -0.3740
       4    C2      16.665957   14.527378   22.636134 C.3        1 MOL1         0.1003
       5    H2      16.454022   13.454035   22.546078 H          1 MOL1         0.0783
       6    O2      15.891716   15.075761   23.715108 O.3        1 MOL1        -0.5519
       7    H3      15.612244   15.981508   23.433712 H          1 MOL1         0.3769
       8    C3      18.178555   14.694638   22.915005 C.3        1 MOL1         0.1053
       9    H4      18.377503   15.760816   23.087885 H          1 MOL1         0.0783
      10    O3      18.541365   13.938874   24.076004 O.3        1 MOL1        -0.5519
      11    H5      17.850942   14.150919   24.743009 H          1 MOL1         0.3769
      12    C4      19.020314   14.234456   21.701083 C.3        1 MOL1         0.1018
      13    H6      18.947400   13.141933   21.620982 H          1 MOL1         0.0783
      14    C5      18.520148   14.888487   20.382395 C.3        1 MOL1         0.1043
      15    H7      18.698823   15.965025   20.455252 H          1 MOL1         0.0783
      16    O4      17.094888   14.654476   20.240527 O.3        1 MOL1        -0.3740
      17    C6      19.231335   14.408594   19.092334 C.3        1 MOL1         0.0138
      18    H8      20.129736   15.021304   18.944883 H          1 MOL1         0.0794
      19    H9      18.571553   14.602066   18.236127 H          1 MOL1         0.0794
      20    O5      19.595129   13.024678   19.129539 O.3        1 MOL1        -0.5486
      21    H10     20.475962   12.980387   19.567530 H          1 MOL1         0.3769
      22    C7      15.034896   20.333735   20.278875 C.3        1 MOL1         0.2972
      23    H11     14.448539   21.145597   19.829424 H          1 MOL1         0.0751
      24    O6      16.229354   20.830544   20.917673 O.3        1 MOL1        -0.3740
      25    C8      14.200226   19.557646   21.333326 C.3        1 MOL1         0.1003
      26    H12     13.332473   19.133055   20.811937 H          1 MOL1         0.0783
      27    O7      13.735435   20.422774   22.380958 O.3        1 MOL1        -0.5519
      28    H13     14.525074   20.894119   22.749992 H          1 MOL1         0.3769
      29    C9      15.022389   18.383409   21.921359 C.3        1 MOL1         0.1053
      30    H14     15.864364   18.802528   22.489810 H          1 MOL1         0.0783
      31    O8      14.195418   17.599070   22.787592 O.3        1 MOL1        -0.5519
      32    H15     13.705742   18.252057   23.335817 H          1 MOL1         0.3769
      33    C10     15.594140   17.491496   20.792040 C.3        1 MOL1         0.1018
      34    H16     14.762300   16.943591   20.330092 H          1 MOL1         0.0783
      35    C11     16.319231   18.331058   19.702339 C.3        1 MOL1         0.1043
      36    H17     17.212521   18.782843   20.146149 H          1 MOL1         0.0783
      37    O9      15.436231   19.390252   19.259267 O.3        1 MOL1        -0.3740
      38    C12     16.793549   17.526226   18.465024 C.3        1 MOL1         0.0138
      39    H18     17.793989   17.126677   18.672346 H          1 MOL1         0.0794
      40    H19     16.897000   18.217289   17.617890 H          1 MOL1         0.0794
      41    O10     15.913747   16.451216   18.117449 O.3        1 MOL1        -0.5486
      42    H20     16.124237   15.703768   18.724012 H          1 MOL1         0.3769
      43    C13     18.361259   24.232589   21.812377 C.3        1 MOL1         0.2972
      44    H21     18.744321   25.239913   22.018471 H          1 MOL1         0.0751
      45    O11     19.419367   23.255783   21.738491 O.3        1 MOL1        -0.3740
      46    C14     17.371931   23.799027   22.921801 C.3        1 MOL1         0.1003
      47    H22     16.518506   24.488917   22.890038 H          1 MOL1         0.0783
      48    O12     17.983242   23.868327   24.219386 O.3        1 MOL1        -0.5519
      49    H23     18.950417   23.691950   24.100290 H          1 MOL1         0.3769
      50    C15     16.840323   22.373371   22.648426 C.3        1 MOL1         0.1053
      51    H24     17.677823   21.674465   22.761081 H          1 MOL1         0.0783
      52    O13     15.826602   22.055698   23.606676 O.3        1 MOL1        -0.5519
      53    H25     16.198425   22.345103   24.470192 H          1 MOL1         0.3769
      54    C16     16.272729   22.241418   21.210667 C.3        1 MOL1         0.1018
      55    H26     15.272716   22.694895   21.193240 H          1 MOL1         0.0783
      56    C17     17.178072   22.902643   20.128141 C.3        1 MOL1         0.1043
      57    H27     18.048389   22.252416   19.972144 H          1 MOL1         0.0783
      58    O14     17.641614   24.207504   20.562943 O.3        1 MOL1        -0.3740
      59    C18     16.482619   23.063471   18.755068 C.3        1 MOL1         0.0138
      60    H28     16.368984   22.068822   18.303009 H          1 MOL1         0.0794
      61    H29     17.139160   23.647630   18.096370 H          1 MOL1         0.0794
      62    O15     15.201127   23.694907   18.868143 O.3        1 MOL1        -0.5486
      63    H30     14.857175   23.836197   17.959059 H          1 MOL1         0.3769
      64    C19     23.527084   22.715307   21.681370 C.3        1 MOL1         0.2972
      65    H31     24.617755   22.836523   21.650205 H          1 MOL1         0.0751
      66    O16     23.147243   21.326397   21.640452 O.3        1 MOL1        -0.3740
      67    C20     22.968483   23.328705   22.987847 C.3        1 MOL1         0.1003
      68    H32     23.217076   24.397982   22.983957 H          1 MOL1         0.0783
      69    O17     23.566515   22.706962   24.136840 O.3        1 MOL1        -0.5519
      70    H33     24.017164   21.886587   23.817043 H          1 MOL1         0.3769
      71    C21     21.429632   23.193191   23.040033 C.3        1 MOL1         0.1053
      72    H34     21.185380   22.125788   23.117180 H          1 MOL1         0.0783
      73    O18     20.932842   23.885429   24.188562 O.3        1 MOL1        -0.5519
      74    H35     21.541124   23.628213   24.917858 H          1 MOL1         0.3769
      75    C22     20.771596   23.750942   21.753653 C.3        1 MOL1         0.1018
      76    H36     20.815217   24.847216   21.781374 H          1 MOL1         0.0783
      77    C23     21.464069   23.233988   20.460767 C.3        1 MOL1         0.1043
      78    H37     21.224185   22.171412   20.353458 H          1 MOL1         0.0783
      79    O19     22.904592   23.381832   20.560512 O.3        1 MOL1        -0.3740
      80    C24     20.977624   23.929278   19.165422 C.3        1 MOL1         0.0138
      81    H38     19.973259   23.556892   18.923506 H          1 MOL1         0.0794
      82    H39     21.639315   23.631527   18.341052 H          1 MOL1         0.0794
      83    O20     20.947321   25.356553   19.279903 O.3        1 MOL1        -0.5486
      84    H40     20.100546   25.597770   19.713117 H          1 MOL1         0.3769
      85    C25     24.876670   17.589371   20.849563 C.3        1 MOL1         0.2972
      86    H41     25.532339   16.795524   20.469136 H          1 MOL1         0.0751
      87    O21     23.720889   17.052585   21.517669 O.3        1 MOL1        -0.3740
      88    C26     25.620810   18.468687   21.889624 C.3        1 MOL1         0.1003
      89    H42     26.508294   18.885554   21.396122 H          1 MOL1         0.0783
      90    O22     26.029918   17.677762   23.018144 O.3        1 MOL1        -0.5519
      91    H43     25.266950   17.092365   23.253680 H          1 MOL1         0.3769
      92    C27     24.731302   19.649818   22.359190 C.3        1 MOL1         0.1053
      93    H44     23.891490   19.239118   22.936432 H          1 MOL1         0.0783
      94    O23     25.498898   20.532484   23.184230 O.3        1 MOL1        -0.5519
      95    H45     25.995222   19.943672   23.795980 H          1 MOL1         0.3769
      96    C28     24.151000   20.420659   21.148119 C.3        1 MOL1         0.1018
      97    H46     24.966597   20.950468   20.638182 H          1 MOL1         0.0783
      98    C29     23.471340   19.459775   20.139696 C.3        1 MOL1         0.1043
      99    H47     22.612397   18.991033   20.632923 H          1 MOL1         0.0783
     100    O24     24.427765   18.438698   19.768187 O.3        1 MOL1        -0.3740
     101    C30     22.934824   20.145094   18.856676 C.3        1 MOL1         0.0138
     102    H48     21.903871   20.469368   19.045827 H          1 MOL1         0.0794
     103    H49     22.888800   19.397187   18.054012 H          1 MOL1         0.0794
     104    O25     23.722465   21.268943   18.442113 O.3        1 MOL1        -0.5486
     105    H50     23.574244   21.988215   19.098994 H          1 MOL1         0.3769
     106    C31     21.398291   13.669383   21.864181 C.3        1 MOL1         0.2972
     107    H51     20.984328   12.654687   21.921005 H          1 MOL1         0.0751
     108    O26     20.367280   14.671332   21.963785 O.3        1 MOL1        -0.3740
     109    C32     22.388468   13.894499   23.031224 C.3        1 MOL1         0.1003
     110    H52     23.196718   13.158416   22.931398 H          1 MOL1         0.0783
     111    O27     21.720081   13.706756   24.289341 O.3        1 MOL1        -0.5519
     112    H53     20.787489   14.012062   24.164780 H          1 MOL1         0.3769
     113    C33     23.011459   15.307667   22.957323 C.3        1 MOL1         0.1053
     114    H54     22.217053   16.032347   23.169601 H          1 MOL1         0.0783
     115    O28     24.047234   15.433697   23.938458 O.3        1 MOL1        -0.5519
     116    H55     23.658672   15.075644   24.767324 H          1 MOL1         0.3769
     117    C34     23.582989   15.620205   21.552891 C.3        1 MOL1         0.1018
     118    H56     24.550197   15.110753   21.451133 H          1 MOL1         0.0783
     119    C35     22.625623   15.199420   20.399888 C.3        1 MOL1         0.1043
     120    H57     21.787876   15.906935   20.386140 H          1 MOL1         0.0783
     121    O29     22.110721   13.861160   20.625562 O.3        1 MOL1        -0.3740
     122    C36     23.278944   15.233810   18.997646 C.3        1 MOL1         0.0138
     123    H58     23.414147   16.281815   18.700290 H          1 MOL1         0.0794
     124    H59     22.584734   14.781213   18.277188 H          1 MOL1         0.0794
     125    O30     24.538881   14.550872   18.970313 O.3        1 MOL1        -0.5486
     126    H60     24.862900   14.561543   18.043444 H          1 MOL1         0.3769
     127    C1      19.716249   19.435983   23.229776 C.3        1 MOL1        -0.1693
     128    H1      18.709964   19.246524   23.626309 H          1 MOL1         0.0829
     129    H2      20.258479   20.073507   23.937467 H          1 MOL1         0.0829
     130    C2      19.757217   19.877949   21.731366 C.3        1 MOL1        -0.1768
     131    H3      20.695440   20.348499   21.426717 H          1 MOL1         0.0829
     132    H4      18.922789   20.484277   21.371767 H          1 MOL1         0.0829
     133    C3      19.670972   18.360764   21.412875 C.3        1 MOL1         0.1211
     134    H5      18.657053   17.953407   21.473655 H          1 MOL1         0.0786
     135    C4      20.477628   18.163463   22.729411 C.3        1 MOL1        -0.1768
     136    H6      21.561437   18.287448   22.627716 H          1 MOL1         0.0829
     137    H7      20.274810   17.237919   23.276953 H          1 MOL1         0.0829
     138    O1      20.297057   17.972397   20.211518 O.3        1 MOL1        -0.5515
     139    H8      19.858052   18.456127   19.486835 H          1 MOL1         0.3773
@<TRIPOS>BOND
    1     1     2    1
    2     1     3    1
    3     1     4    1
    4     4     5    1
    5     4     6    1
    6     6     7    1
    7     4     8    1
    8     8     9    1
    9     8    10    1
   10    10    11    1
   11     8    12    1
   12    12    13    1
   13    12    14    1
   14    14    15    1
   15     1    16    1
   16    14    16    1
   17    14    17    1
   18    17    18    1
   19    17    19    1
   20    17    20    1
   21    20    21    1
   22    22    23    1
   23    22    24    1
   24    22    25    1
   25    25    26    1
   26    25    27    1
   27    27    28    1
   28    25    29    1
   29    29    30    1
   30    29    31    1
   31    31    32    1
   32     3    33    1
   33    29    33    1
   34    33    34    1
   35    33    35    1
   36    35    36    1
   37    22    37    1
   38    35    37    1
   39    35    38    1
   40    38    39    1
   41    38    40    1
   42    38    41    1
   43    41    42    1
   44    43    44    1
   45    43    45    1
   46    43    46    1
   47    46    47    1
   48    46    48    1
   49    48    49    1
   50    46    50    1
   51    50    51    1
   52    50    52    1
   53    52    53    1
   54    24    54    1
   55    50    54    1
   56    54    55    1
   57    54    56    1
   58    56    57    1
   59    43    58    1
   60    56    58    1
   61    56    59    1
   62    59    60    1
   63    59    61    1
   64    59    62    1
   65    62    63    1
   66    64    65    1
   67    64    66    1
   68    64    67    1
   69    67    68    1
   70    67    69    1
   71    69    70    1
   72    67    71    1
   73    71    72    1
   74    71    73    1
   75    73    74    1
   76    45    75    1
   77    71    75    1
   78    75    76    1
   79    75    77    1
   80    77    78    1
   81    64    79    1
   82    77    79    1
   83    77    80    1
   84    80    81    1
   85    80    82    1
   86    80    83    1
   87    83    84    1
   88    85    86    1
   89    85    87    1
   90    85    88    1
   91    88    89    1
   92    88    90    1
   93    90    91    1
   94    88    92    1
   95    92    93    1
   96    92    94    1
   97    94    95    1
   98    66    96    1
   99    92    96    1
  100    96    97    1
  101    96    98    1
  102    98    99    1
  103    85   100    1
  104    98   100    1
  105    98   101    1
  106   101   102    1
  107   101   103    1
  108   101   104    1
  109   104   105    1
  110   106   107    1
  111    12   108    1
  112   106   108    1
  113   106   109    1
  114   109   110    1
  115   109   111    1
  116   111   112    1
  117   109   113    1
  118   113   114    1
  119   113   115    1
  120   115   116    1
  121    87   117    1
  122   113   117    1
  123   117   118    1
  124   117   119    1
  125   119   120    1
  126   106   121    1
  127   119   121    1
  128   119   122    1
  129   122   123    1
  130   122   124    1
  131   122   125    1
  132   125   126    1
  133   127   128    1
  134   127   129    1
  135   127   130    1
  136   130   131    1
  137   130   132    1
  138   130   133    1
  139   133   134    1
  140   127   135    1
  141   133   135    1
  142   135   136    1
  143   135   137    1
  144   133   138    1
  145   138   139    1
@<TRIPOS>SUBSTRUCTURE
       1 MOL1            1 RESIDUE      1      MOL     
       2 MOL1          139 RESIDUE      1      MOL     
@<SCITEGIC>MOL_PROPERTY
feprocess Rank
SciTegic.value.IntegerValue
86

@<SCITEGIC>MOL_PROPERTY
Conf_Id
SciTegic.value.IntegerValue
787

@<SCITEGIC>MOL_PROPERTY
Probability
SciTegic.value.DoubleValue
0.04

@<SCITEGIC>MOL_PROPERTY
G
SciTegic.value.DoubleValue
548.650

@<SCITEGIC>MOL_PROPERTY
E
SciTegic.value.DoubleValue
370.722

@<SCITEGIC>MOL_PROPERTY
-TS
SciTegic.value.DoubleValue
177.927

@<SCITEGIC>MOL_PROPERTY
U+W
SciTegic.value.DoubleValue
248.211

@<SCITEGIC>MOL_PROPERTY
U
SciTegic.value.DoubleValue
286.447

@<SCITEGIC>MOL_PROPERTY
W
SciTegic.value.DoubleValue
-38.236

@<SCITEGIC>MOL_PROPERTY
W(PB)
SciTegic.value.DoubleValue
-44.170

@<SCITEGIC>MOL_PROPERTY
W(SA)
SciTegic.value.DoubleValue
5.934

@<SCITEGIC>MOL_PROPERTY
Valence
SciTegic.value.DoubleValue
155.139

@<SCITEGIC>MOL_PROPERTY
Coulomb
SciTegic.value.DoubleValue
154.684

@<SCITEGIC>MOL_PROPERTY
VdW
SciTegic.value.DoubleValue
-23.375

@<SCITEGIC>MOL_PROPERTY
VdW6
SciTegic.value.DoubleValue
-169.847

@<SCITEGIC>MOL_PROPERTY
VdW12
SciTegic.value.DoubleValue
146.472

@<SCITEGIC>MOL_PROPERTY
Bond
SciTegic.value.DoubleValue
4.574

@<SCITEGIC>MOL_PROPERTY
Angle
SciTegic.value.DoubleValue
11.726

@<SCITEGIC>MOL_PROPERTY
Pdih
SciTegic.value.DoubleValue
138.839

@<SCITEGIC>MOL_PROPERTY
Idih
SciTegic.value.DoubleValue
0.000

@<SCITEGIC>MOL_PROPERTY
Tether
SciTegic.value.DoubleValue
0.000

@<TRIPOS>MOLECULE
CD_guest-s16_fast_vm2_rndm.mol2 : feprocess host+ligand conformer 87
         139         145           2
SMALL
USER_CHARGES
 
@<TRIPOS>ATOM
       1    C1      16.268050   15.166813   21.038529 C.3        1 MOL1         0.2972
       2    H1      15.232509   14.980311   20.726436 H          1 MOL1         0.0751
       3    O1      16.492689   16.561971   21.321415 O.3        1 MOL1        -0.3740
       4    C2      16.572070   14.368455   22.327782 C.3        1 MOL1         0.1003
       5    H2      16.411123   13.306014   22.103305 H          1 MOL1         0.0783
       6    O2      15.680324   14.772055   23.379633 O.3        1 MOL1        -0.5519
       7    H3      15.469156   15.724592   23.221462 H          1 MOL1         0.3769
       8    C3      18.046026   14.544606   22.765895 C.3        1 MOL1         0.1053
       9    H4      18.178272   15.577245   23.116585 H          1 MOL1         0.0783
      10    O3      18.323116   13.627127   23.828289 O.3        1 MOL1        -0.5519
      11    H5      17.623456   13.789378   24.497695 H          1 MOL1         0.3769
      12    C4      19.028309   14.304117   21.590160 C.3        1 MOL1         0.1018
      13    H6      19.087359   13.224853   21.398018 H          1 MOL1         0.0783
      14    C5      18.589676   15.034234   20.288057 C.3        1 MOL1         0.1043
      15    H7      18.711525   16.112112   20.449340 H          1 MOL1         0.0783
      16    O4      17.194892   14.749596   20.014013 O.3        1 MOL1        -0.3740
      17    C6      19.414646   14.672144   19.024165 C.3        1 MOL1         0.0138
      18    H8      20.228187   15.399181   18.916965 H          1 MOL1         0.0794
      19    H9      18.772964   14.792989   18.141044 H          1 MOL1         0.0794
      20    O5      19.953572   13.344769   19.055314 O.3        1 MOL1        -0.5486
      21    H10     20.655018   13.328033   19.747888 H          1 MOL1         0.3769
      22    C7      15.028237   20.357097   20.358924 C.3        1 MOL1         0.2972
      23    H11     14.454085   21.193243   19.939152 H          1 MOL1         0.0751
      24    O6      16.201814   20.814046   21.058346 O.3        1 MOL1        -0.3740
      25    C8      14.167450   19.531117   21.351292 C.3        1 MOL1         0.1003
      26    H12     13.303050   19.148428   20.793226 H          1 MOL1         0.0783
      27    O7      13.699954   20.343792   22.439841 O.3        1 MOL1        -0.5519
      28    H13     14.486611   20.807595   22.824378 H          1 MOL1         0.3769
      29    C9      14.965195   18.315648   21.886808 C.3        1 MOL1         0.1053
      30    H14     15.792864   18.691642   22.504315 H          1 MOL1         0.0783
      31    O8      14.106719   17.487958   22.679206 O.3        1 MOL1        -0.5519
      32    H15     13.615734   18.109798   23.261143 H          1 MOL1         0.3769
      33    C10     15.565796   17.488201   20.723493 C.3        1 MOL1         0.1018
      34    H16     14.744135   16.974721   20.207080 H          1 MOL1         0.0783
      35    C11     16.329719   18.386480   19.709007 C.3        1 MOL1         0.1043
      36    H17     17.214180   18.801591   20.207522 H          1 MOL1         0.0783
      37    O9      15.460944   19.471931   19.302143 O.3        1 MOL1        -0.3740
      38    C12     16.833340   17.662661   18.433814 C.3        1 MOL1         0.0138
      39    H18     17.829662   17.251533   18.636517 H          1 MOL1         0.0794
      40    H19     16.955821   18.407597   17.636286 H          1 MOL1         0.0794
      41    O10     15.962512   16.614203   17.995090 O.3        1 MOL1        -0.5486
      42    H20     16.179959   15.820826   18.536820 H          1 MOL1         0.3769
      43    C13     18.398718   24.136362   22.032345 C.3        1 MOL1         0.2972
      44    H21     18.804733   25.128275   22.268686 H          1 MOL1         0.0751
      45    O11     19.433313   23.137145   21.958423 O.3        1 MOL1        -0.3740
      46    C14     17.397036   23.703788   23.128537 C.3        1 MOL1         0.1003
      47    H22     16.571758   24.427733   23.130348 H          1 MOL1         0.0783
      48    O12     18.034063   23.702240   24.416406 O.3        1 MOL1        -0.5519
      49    H23     18.997766   23.540282   24.261456 H          1 MOL1         0.3769
      50    C15     16.811539   22.307899   22.814126 C.3        1 MOL1         0.1053
      51    H24     17.617333   21.572955   22.923024 H          1 MOL1         0.0783
      52    O13     15.768269   22.006667   23.746178 O.3        1 MOL1        -0.5519
      53    H25     16.138066   22.245801   24.625510 H          1 MOL1         0.3769
      54    C16     16.267109   22.219466   21.365941 C.3        1 MOL1         0.1018
      55    H26     15.277946   22.695685   21.337493 H          1 MOL1         0.0783
      56    C17     17.209233   22.868935   20.309832 C.3        1 MOL1         0.1043
      57    H27     18.060551   22.191370   20.165826 H          1 MOL1         0.0783
      58    O14     17.702266   24.154027   20.770221 O.3        1 MOL1        -0.3740
      59    C18     16.547855   23.068208   18.925038 C.3        1 MOL1         0.0138
      60    H28     16.416564   22.083992   18.455416 H          1 MOL1         0.0794
      61    H29     17.233573   23.643549   18.288569 H          1 MOL1         0.0794
      62    O15     15.282391   23.733280   19.021969 O.3        1 MOL1        -0.5486
      63    H30     14.961434   23.898204   18.108493 H          1 MOL1         0.3769
      64    C19     23.553094   22.706445   21.531177 C.3        1 MOL1         0.2972
      65    H31     24.625700   22.892967   21.391515 H          1 MOL1         0.0751
      66    O16     23.266663   21.296196   21.604772 O.3        1 MOL1        -0.3740
      67    C20     23.080483   23.352390   22.857450 C.3        1 MOL1         0.1003
      68    H32     23.283279   24.429404   22.794363 H          1 MOL1         0.0783
      69    O17     23.802372   22.795706   23.967675 O.3        1 MOL1        -0.5519
      70    H33     24.099888   21.895043   23.689640 H          1 MOL1         0.3769
      71    C21     21.558257   23.160619   23.051517 C.3        1 MOL1         0.1053
      72    H34     21.367100   22.090241   23.198594 H          1 MOL1         0.0783
      73    O18     21.120112   23.891091   24.201824 O.3        1 MOL1        -0.5519
      74    H35     21.783602   23.688242   24.898609 H          1 MOL1         0.3769
      75    C22     20.777094   23.624097   21.799209 C.3        1 MOL1         0.1018
      76    H36     20.820617   24.719759   21.743333 H          1 MOL1         0.0783
      77    C23     21.358799   23.015895   20.492926 C.3        1 MOL1         0.1043
      78    H37     21.183972   21.934341   20.519102 H          1 MOL1         0.0783
      79    O19     22.786999   23.266044   20.440273 O.3        1 MOL1        -0.3740
      80    C24     20.711853   23.540078   19.184264 C.3        1 MOL1         0.0138
      81    H38     19.851842   22.903457   18.941796 H          1 MOL1         0.0794
      82    H39     21.433675   23.422442   18.364930 H          1 MOL1         0.0794
      83    O20     20.284391   24.904045   19.269737 O.3        1 MOL1        -0.5486
      84    H40     19.421697   24.903733   19.745594 H          1 MOL1         0.3769
      85    C25     24.804322   17.571844   20.542559 C.3        1 MOL1         0.2972
      86    H41     25.387106   16.742240   20.121935 H          1 MOL1         0.0751
      87    O21     23.570206   17.109825   21.126658 O.3        1 MOL1        -0.3740
      88    C26     25.617590   18.349401   21.614022 C.3        1 MOL1         0.1003
      89    H42     26.501124   18.763131   21.110719 H          1 MOL1         0.0783
      90    O22     26.051711   17.493933   22.681949 O.3        1 MOL1        -0.5519
      91    H43     25.238915   17.112314   23.100577 H          1 MOL1         0.3769
      92    C27     24.789151   19.534514   22.169521 C.3        1 MOL1         0.1053
      93    H44     23.931806   19.124150   22.719248 H          1 MOL1         0.0783
      94    O23     25.597120   20.321107   23.051488 O.3        1 MOL1        -0.5519
      95    H45     26.068172   19.670930   23.618712 H          1 MOL1         0.3769
      96    C28     24.249896   20.421974   21.020442 C.3        1 MOL1         0.1018
      97    H46     25.092932   20.977039   20.588441 H          1 MOL1         0.0783
      98    C29     23.564003   19.584308   19.904572 C.3        1 MOL1         0.1043
      99    H47     22.643768   19.150535   20.314794 H          1 MOL1         0.0783
     100    O24     24.456861   18.514364   19.502750 O.3        1 MOL1        -0.3740
     101    C30     23.152521   20.386793   18.642826 C.3        1 MOL1         0.0138
     102    H48     22.137124   20.773757   18.792465 H          1 MOL1         0.0794
     103    H49     23.104597   19.695868   17.790587 H          1 MOL1         0.0794
     104    O25     24.038039   21.472330   18.345104 O.3        1 MOL1        -0.5486
     105    H50     23.805887   22.207249   18.959070 H          1 MOL1         0.3769
     106    C31     21.330024   13.900164   22.314168 C.3        1 MOL1         0.2972
     107    H51     20.901848   12.944556   22.643519 H          1 MOL1         0.0751
     108    O26     20.300043   14.853453   21.988058 O.3        1 MOL1        -0.3740
     109    C32     22.226923   14.486713   23.431723 C.3        1 MOL1         0.1003
     110    H52     23.051019   13.780701   23.596963 H          1 MOL1         0.0783
     111    O27     21.489601   14.647151   24.651613 O.3        1 MOL1        -0.5519
     112    H53     20.735305   15.254410   24.444653 H          1 MOL1         0.3769
     113    C33     22.830420   15.839409   22.997428 C.3        1 MOL1         0.1053
     114    H54     22.006953   16.557862   22.919154 H          1 MOL1         0.0783
     115    O28     23.759688   16.286168   23.989840 O.3        1 MOL1        -0.5519
     116    H55     23.289271   16.168548   24.845293 H          1 MOL1         0.3769
     117    C34     23.522006   15.754905   21.614239 C.3        1 MOL1         0.1018
     118    H56     24.522417   15.320043   21.740163 H          1 MOL1         0.0783
     119    C35     22.701951   14.943264   20.569671 C.3        1 MOL1         0.1043
     120    H57     21.873339   15.584867   20.249691 H          1 MOL1         0.0783
     121    O29     22.155322   13.724685   21.142554 O.3        1 MOL1        -0.3740
     122    C36     23.506403   14.574068   19.300672 C.3        1 MOL1         0.0138
     123    H58     23.688439   15.490923   18.723877 H          1 MOL1         0.0794
     124    H59     22.892318   13.912485   18.674851 H          1 MOL1         0.0794
     125    O30     24.753235   13.943984   19.618086 O.3        1 MOL1        -0.5486
     126    H60     25.169363   13.663249   18.773822 H          1 MOL1         0.3769
     127    C1      20.165847   19.666102   22.325822 C.3        1 MOL1        -0.1693
     128    H1      19.412632   20.456057   22.404482 H          1 MOL1         0.0829
     129    H2      20.850284   19.915843   21.510821 H          1 MOL1         0.0829
     130    C2      19.590109   18.215774   22.308818 C.3        1 MOL1        -0.1768
     131    H3      18.599758   18.094987   21.864401 H          1 MOL1         0.0829
     132    H4      20.264348   17.468218   21.880171 H          1 MOL1         0.0829
     133    C3      19.611634   18.309736   23.863024 C.3        1 MOL1         0.1211
     134    H5      18.725071   18.802915   24.283860 H          1 MOL1         0.0786
     135    C4      20.833191   19.259178   23.679868 C.3        1 MOL1        -0.1768
     136    H6      20.933726   20.053602   24.426865 H          1 MOL1         0.0829
     137    H7      21.797209   18.748855   23.579413 H          1 MOL1         0.0829
     138    O1      19.880736   17.105270   24.543036 O.3        1 MOL1        -0.5515
     139    H8      19.992927   17.332650   25.488543 H          1 MOL1         0.3773
@<TRIPOS>BOND
    1     1     2    1
    2     1     3    1
    3     1     4    1
    4     4     5    1
    5     4     6    1
    6     6     7    1
    7     4     8    1
    8     8     9    1
    9     8    10    1
   10    10    11    1
   11     8    12    1
   12    12    13    1
   13    12    14    1
   14    14    15    1
   15     1    16    1
   16    14    16    1
   17    14    17    1
   18    17    18    1
   19    17    19    1
   20    17    20    1
   21    20    21    1
   22    22    23    1
   23    22    24    1
   24    22    25    1
   25    25    26    1
   26    25    27    1
   27    27    28    1
   28    25    29    1
   29    29    30    1
   30    29    31    1
   31    31    32    1
   32     3    33    1
   33    29    33    1
   34    33    34    1
   35    33    35    1
   36    35    36    1
   37    22    37    1
   38    35    37    1
   39    35    38    1
   40    38    39    1
   41    38    40    1
   42    38    41    1
   43    41    42    1
   44    43    44    1
   45    43    45    1
   46    43    46    1
   47    46    47    1
   48    46    48    1
   49    48    49    1
   50    46    50    1
   51    50    51    1
   52    50    52    1
   53    52    53    1
   54    24    54    1
   55    50    54    1
   56    54    55    1
   57    54    56    1
   58    56    57    1
   59    43    58    1
   60    56    58    1
   61    56    59    1
   62    59    60    1
   63    59    61    1
   64    59    62    1
   65    62    63    1
   66    64    65    1
   67    64    66    1
   68    64    67    1
   69    67    68    1
   70    67    69    1
   71    69    70    1
   72    67    71    1
   73    71    72    1
   74    71    73    1
   75    73    74    1
   76    45    75    1
   77    71    75    1
   78    75    76    1
   79    75    77    1
   80    77    78    1
   81    64    79    1
   82    77    79    1
   83    77    80    1
   84    80    81    1
   85    80    82    1
   86    80    83    1
   87    83    84    1
   88    85    86    1
   89    85    87    1
   90    85    88    1
   91    88    89    1
   92    88    90    1
   93    90    91    1
   94    88    92    1
   95    92    93    1
   96    92    94    1
   97    94    95    1
   98    66    96    1
   99    92    96    1
  100    96    97    1
  101    96    98    1
  102    98    99    1
  103    85   100    1
  104    98   100    1
  105    98   101    1
  106   101   102    1
  107   101   103    1
  108   101   104    1
  109   104   105    1
  110   106   107    1
  111    12   108    1
  112   106   108    1
  113   106   109    1
  114   109   110    1
  115   109   111    1
  116   111   112    1
  117   109   113    1
  118   113   114    1
  119   113   115    1
  120   115   116    1
  121    87   117    1
  122   113   117    1
  123   117   118    1
  124   117   119    1
  125   119   120    1
  126   106   121    1
  127   119   121    1
  128   119   122    1
  129   122   123    1
  130   122   124    1
  131   122   125    1
  132   125   126    1
  133   127   128    1
  134   127   129    1
  135   127   130    1
  136   130   131    1
  137   130   132    1
  138   130   133    1
  139   133   134    1
  140   127   135    1
  141   133   135    1
  142   135   136    1
  143   135   137    1
  144   133   138    1
  145   138   139    1
@<TRIPOS>SUBSTRUCTURE
       1 MOL1            1 RESIDUE      1      MOL     
       2 MOL1          139 RESIDUE      1      MOL     
@<SCITEGIC>MOL_PROPERTY
feprocess Rank
SciTegic.value.IntegerValue
87

@<SCITEGIC>MOL_PROPERTY
Conf_Id
SciTegic.value.IntegerValue
256

@<SCITEGIC>MOL_PROPERTY
Probability
SciTegic.value.DoubleValue
0.04

@<SCITEGIC>MOL_PROPERTY
G
SciTegic.value.DoubleValue
548.670

@<SCITEGIC>MOL_PROPERTY
E
SciTegic.value.DoubleValue
370.374

@<SCITEGIC>MOL_PROPERTY
-TS
SciTegic.value.DoubleValue
178.296

@<SCITEGIC>MOL_PROPERTY
U+W
SciTegic.value.DoubleValue
247.863

@<SCITEGIC>MOL_PROPERTY
U
SciTegic.value.DoubleValue
286.710

@<SCITEGIC>MOL_PROPERTY
W
SciTegic.value.DoubleValue
-38.847

@<SCITEGIC>MOL_PROPERTY
W(PB)
SciTegic.value.DoubleValue
-44.795

@<SCITEGIC>MOL_PROPERTY
W(SA)
SciTegic.value.DoubleValue
5.948

@<SCITEGIC>MOL_PROPERTY
Valence
SciTegic.value.DoubleValue
154.330

@<SCITEGIC>MOL_PROPERTY
Coulomb
SciTegic.value.DoubleValue
153.761

@<SCITEGIC>MOL_PROPERTY
VdW
SciTegic.value.DoubleValue
-21.381

@<SCITEGIC>MOL_PROPERTY
VdW6
SciTegic.value.DoubleValue
-167.663

@<SCITEGIC>MOL_PROPERTY
VdW12
SciTegic.value.DoubleValue
146.281

@<SCITEGIC>MOL_PROPERTY
Bond
SciTegic.value.DoubleValue
4.603

@<SCITEGIC>MOL_PROPERTY
Angle
SciTegic.value.DoubleValue
11.818

@<SCITEGIC>MOL_PROPERTY
Pdih
SciTegic.value.DoubleValue
137.909

@<SCITEGIC>MOL_PROPERTY
Idih
SciTegic.value.DoubleValue
0.000

@<SCITEGIC>MOL_PROPERTY
Tether
SciTegic.value.DoubleValue
0.000

@<TRIPOS>MOLECULE
CD_guest-s16_fast_vm2_rndm.mol2 : feprocess host+ligand conformer 88
         139         145           2
SMALL
USER_CHARGES
 
@<TRIPOS>ATOM
       1    C1      16.146927   15.051077   21.337973 C.3        1 MOL1         0.2972
       2    H1      15.056414   14.947101   21.270438 H          1 MOL1         0.0751
       3    O1      16.539126   16.417063   21.574375 O.3        1 MOL1        -0.3740
       4    C2      16.682443   14.183792   22.501993 C.3        1 MOL1         0.1003
       5    H2      16.431419   13.138078   22.281592 H          1 MOL1         0.0783
       6    O2      16.066799   14.571569   23.740801 O.3        1 MOL1        -0.5519
       7    H3      15.799294   15.519754   23.644713 H          1 MOL1         0.3769
       8    C3      18.219991   14.297415   22.602847 C.3        1 MOL1         0.1053
       9    H4      18.458844   15.321398   22.917198 H          1 MOL1         0.0783
      10    O3      18.712866   13.371782   23.578180 O.3        1 MOL1        -0.5519
      11    H5      18.122012   13.484274   24.355858 H          1 MOL1         0.3769
      12    C4      18.906973   14.034672   21.240071 C.3        1 MOL1         0.1018
      13    H6      18.915866   12.952190   21.056969 H          1 MOL1         0.0783
      14    C5      18.219699   14.780346   20.059273 C.3        1 MOL1         0.1043
      15    H7      18.464396   15.846614   20.152465 H          1 MOL1         0.0783
      16    O4      16.778992   14.611221   20.119315 O.3        1 MOL1        -0.3740
      17    C6      18.694137   14.318222   18.660712 C.3        1 MOL1         0.0138
      18    H8      19.710612   14.695007   18.491273 H          1 MOL1         0.0794
      19    H9      18.049027   14.781351   17.901994 H          1 MOL1         0.0794
      20    O5      18.673149   12.891430   18.527301 O.3        1 MOL1        -0.5486
      21    H10     18.935264   12.674843   17.606109 H          1 MOL1         0.3769
      22    C7      14.876284   20.271397   21.219253 C.3        1 MOL1         0.2972
      23    H11     14.156152   21.064582   20.981930 H          1 MOL1         0.0751
      24    O6      16.112909   20.817024   21.715019 O.3        1 MOL1        -0.3740
      25    C8      14.293254   19.357500   22.328595 C.3        1 MOL1         0.1003
      26    H12     13.324152   18.984202   21.972848 H          1 MOL1         0.0783
      27    O7      14.098216   20.108629   23.537888 O.3        1 MOL1        -0.5519
      28    H13     14.833785   20.767981   23.583201 H          1 MOL1         0.3769
      29    C9      15.205894   18.135514   22.594982 C.3        1 MOL1         0.1053
      30    H14     16.141782   18.493930   23.045925 H          1 MOL1         0.0783
      31    O8      14.547387   17.231501   23.489112 O.3        1 MOL1        -0.5519
      32    H15     14.194572   17.798183   24.211003 H          1 MOL1         0.3769
      33    C10     15.550553   17.417181   21.269840 C.3        1 MOL1         0.1018
      34    H16     14.633288   16.975566   20.858190 H          1 MOL1         0.0783
      35    C11     16.135283   18.417782   20.237587 C.3        1 MOL1         0.1043
      36    H17     17.065770   18.836560   20.643724 H          1 MOL1         0.0783
      37    O9      15.164865   19.478344   20.045939 O.3        1 MOL1        -0.3740
      38    C12     16.478194   17.806275   18.855131 C.3        1 MOL1         0.0138
      39    H18     17.499264   17.406570   18.896727 H          1 MOL1         0.0794
      40    H19     16.484952   18.610809   18.108433 H          1 MOL1         0.0794
      41    O10     15.570164   16.773772   18.453545 O.3        1 MOL1        -0.5486
      42    H20     15.823783   15.960999   18.950205 H          1 MOL1         0.3769
      43    C13     18.465152   24.255859   21.362098 C.3        1 MOL1         0.2972
      44    H21     18.810877   25.283631   21.192821 H          1 MOL1         0.0751
      45    O11     19.560040   23.382813   21.700987 O.3        1 MOL1        -0.3740
      46    C14     17.467043   24.231121   22.545697 C.3        1 MOL1         0.1003
      47    H22     16.631786   24.896735   22.291843 H          1 MOL1         0.0783
      48    O12     18.108855   24.702946   23.740828 O.3        1 MOL1        -0.5519
      49    H23     19.049609   24.408711   23.686029 H          1 MOL1         0.3769
      50    C15     16.899313   22.808632   22.764963 C.3        1 MOL1         0.1053
      51    H24     17.716415   22.166179   23.118992 H          1 MOL1         0.0783
      52    O13     15.860096   22.853917   23.749178 O.3        1 MOL1        -0.5519
      53    H25     16.229364   23.387142   24.487693 H          1 MOL1         0.3769
      54    C16     16.347259   22.214192   21.446582 C.3        1 MOL1         0.1018
      55    H26     15.419464   22.745758   21.197445 H          1 MOL1         0.0783
      56    C17     17.364153   22.356688   20.276540 C.3        1 MOL1         0.1043
      57    H27     18.228042   21.717365   20.496325 H          1 MOL1         0.0783
      58    O14     17.802719   23.736727   20.189162 O.3        1 MOL1        -0.3740
      59    C18     16.836351   21.934601   18.881704 C.3        1 MOL1         0.0138
      60    H28     16.981920   20.853237   18.767466 H          1 MOL1         0.0794
      61    H29     17.451588   22.419264   18.112337 H          1 MOL1         0.0794
      62    O15     15.458325   22.261729   18.675869 O.3        1 MOL1        -0.5486
      63    H30     14.944362   21.453596   18.897685 H          1 MOL1         0.3769
      64    C19     23.598952   22.708716   20.951802 C.3        1 MOL1         0.2972
      65    H31     24.647503   22.772974   20.633585 H          1 MOL1         0.0751
      66    O16     23.267489   21.392960   21.436949 O.3        1 MOL1        -0.3740
      67    C20     23.292843   23.736018   22.071847 C.3        1 MOL1         0.1003
      68    H32     23.497803   24.734585   21.664503 H          1 MOL1         0.0783
      69    O17     24.125400   23.516198   23.221880 O.3        1 MOL1        -0.5519
      70    H33     24.023629   22.565896   23.483779 H          1 MOL1         0.3769
      71    C21     21.797891   23.680042   22.471277 C.3        1 MOL1         0.1053
      72    H34     21.617893   22.715910   22.964885 H          1 MOL1         0.0783
      73    O18     21.505621   24.745919   23.381244 O.3        1 MOL1        -0.5519
      74    H35     22.234823   24.729994   24.040097 H          1 MOL1         0.3769
      75    C22     20.866765   23.775485   21.234138 C.3        1 MOL1         0.1018
      76    H36     20.881926   24.813240   20.876195 H          1 MOL1         0.0783
      77    C23     21.311232   22.818659   20.087470 C.3        1 MOL1         0.1043
      78    H37     21.129814   21.786455   20.411246 H          1 MOL1         0.0783
      79    O19     22.726331   22.999906   19.841210 O.3        1 MOL1        -0.3740
      80    C24     20.576109   22.998759   18.734942 C.3        1 MOL1         0.0138
      81    H38     19.695985   22.346313   18.726671 H          1 MOL1         0.0794
      82    H39     21.235100   22.644616   17.930905 H          1 MOL1         0.0794
      83    O20     20.178147   24.349506   18.478740 O.3        1 MOL1        -0.5486
      84    H40     19.308811   24.473602   18.924395 H          1 MOL1         0.3769
      85    C25     24.848101   17.639980   22.063168 C.3        1 MOL1         0.2972
      86    H41     25.480860   16.761246   22.244647 H          1 MOL1         0.0751
      87    O21     23.486826   17.260543   21.784918 O.3        1 MOL1        -0.3740
      88    C26     24.852224   18.553873   23.311328 C.3        1 MOL1         0.1003
      89    H42     25.887481   18.876302   23.483092 H          1 MOL1         0.0783
      90    O22     24.379183   17.833249   24.460802 O.3        1 MOL1        -0.5519
      91    H43     24.019166   16.976321   24.128610 H          1 MOL1         0.3769
      92    C27     23.987888   19.811943   23.070512 C.3        1 MOL1         0.1053
      93    H44     22.942501   19.491592   22.991013 H          1 MOL1         0.0783
      94    O23     24.131594   20.710016   24.175488 O.3        1 MOL1        -0.5519
      95    H45     24.037688   20.143339   24.973748 H          1 MOL1         0.3769
      96    C28     24.374153   20.528455   21.753957 C.3        1 MOL1         0.1018
      97    H46     25.303305   21.089589   21.921515 H          1 MOL1         0.0783
      98    C29     24.542932   19.549465   20.556711 C.3        1 MOL1         0.1043
      99    H47     23.541662   19.211972   20.265137 H          1 MOL1         0.0783
     100    O24     25.337634   18.397001   20.937035 O.3        1 MOL1        -0.3740
     101    C30     25.188644   20.195728   19.307546 C.3        1 MOL1         0.0138
     102    H48     24.464984   20.889542   18.858805 H          1 MOL1         0.0794
     103    H49     25.385974   19.409064   18.566839 H          1 MOL1         0.0794
     104    O25     26.398287   20.894013   19.627192 O.3        1 MOL1        -0.5486
     105    H50     26.795489   21.203762   18.784028 H          1 MOL1         0.3769
     106    C31     21.321865   13.828101   20.813679 C.3        1 MOL1         0.2972
     107    H51     20.995902   12.854838   20.424718 H          1 MOL1         0.0751
     108    O26     20.232465   14.569432   21.391143 O.3        1 MOL1        -0.3740
     109    C32     22.368228   13.648497   21.943915 C.3        1 MOL1         0.1003
     110    H52     23.225022   13.106316   21.523270 H          1 MOL1         0.0783
     111    O27     21.807224   12.891850   23.029687 O.3        1 MOL1        -0.5519
     112    H53     20.885538   13.225168   23.167219 H          1 MOL1         0.3769
     113    C33     22.867723   15.025203   22.454280 C.3        1 MOL1         0.1053
     114    H54     22.033232   15.523130   22.964632 H          1 MOL1         0.0783
     115    O28     23.945024   14.837279   23.377748 O.3        1 MOL1        -0.5519
     116    H55     23.651799   14.108039   23.968767 H          1 MOL1         0.3769
     117    C34     23.320036   15.925433   21.276557 C.3        1 MOL1         0.1018
     118    H56     24.257032   15.524741   20.867353 H          1 MOL1         0.0783
     119    C35     22.262868   15.980921   20.141307 C.3        1 MOL1         0.1043
     120    H57     21.367808   16.490797   20.516957 H          1 MOL1         0.0783
     121    O29     21.919123   14.626115   19.766588 O.3        1 MOL1        -0.3740
     122    C36     22.716545   16.754245   18.876196 C.3        1 MOL1         0.0138
     123    H58     22.434278   17.807493   18.997135 H          1 MOL1         0.0794
     124    H59     22.153032   16.375402   18.013214 H          1 MOL1         0.0794
     125    O30     24.125241   16.657758   18.626404 O.3        1 MOL1        -0.5486
     126    H60     24.587969   17.129805   19.356718 H          1 MOL1         0.3769
     127    C1      19.947984   18.961866   23.567766 C.3        1 MOL1        -0.1693
     128    H1      20.956295   18.973636   23.999702 H          1 MOL1         0.0829
     129    H2      19.217174   18.985437   24.384538 H          1 MOL1         0.0829
     130    C2      19.716196   17.870964   22.475107 C.3        1 MOL1        -0.1768
     131    H3      20.272882   16.940137   22.606097 H          1 MOL1         0.0829
     132    H4      18.665072   17.632494   22.288578 H          1 MOL1         0.0829
     133    C3      20.326266   18.898144   21.476812 C.3        1 MOL1         0.1211
     134    H5      21.422840   18.897181   21.456894 H          1 MOL1         0.0786
     135    C4      19.711603   19.982856   22.409411 C.3        1 MOL1        -0.1768
     136    H6      20.265175   20.921842   22.484525 H          1 MOL1         0.0829
     137    H7      18.657396   20.202328   22.213851 H          1 MOL1         0.0829
     138    O1      19.804006   18.851508   20.167349 O.3        1 MOL1        -0.5515
     139    H8      20.188720   19.599984   19.673861 H          1 MOL1         0.3773
@<TRIPOS>BOND
    1     1     2    1
    2     1     3    1
    3     1     4    1
    4     4     5    1
    5     4     6    1
    6     6     7    1
    7     4     8    1
    8     8     9    1
    9     8    10    1
   10    10    11    1
   11     8    12    1
   12    12    13    1
   13    12    14    1
   14    14    15    1
   15     1    16    1
   16    14    16    1
   17    14    17    1
   18    17    18    1
   19    17    19    1
   20    17    20    1
   21    20    21    1
   22    22    23    1
   23    22    24    1
   24    22    25    1
   25    25    26    1
   26    25    27    1
   27    27    28    1
   28    25    29    1
   29    29    30    1
   30    29    31    1
   31    31    32    1
   32     3    33    1
   33    29    33    1
   34    33    34    1
   35    33    35    1
   36    35    36    1
   37    22    37    1
   38    35    37    1
   39    35    38    1
   40    38    39    1
   41    38    40    1
   42    38    41    1
   43    41    42    1
   44    43    44    1
   45    43    45    1
   46    43    46    1
   47    46    47    1
   48    46    48    1
   49    48    49    1
   50    46    50    1
   51    50    51    1
   52    50    52    1
   53    52    53    1
   54    24    54    1
   55    50    54    1
   56    54    55    1
   57    54    56    1
   58    56    57    1
   59    43    58    1
   60    56    58    1
   61    56    59    1
   62    59    60    1
   63    59    61    1
   64    59    62    1
   65    62    63    1
   66    64    65    1
   67    64    66    1
   68    64    67    1
   69    67    68    1
   70    67    69    1
   71    69    70    1
   72    67    71    1
   73    71    72    1
   74    71    73    1
   75    73    74    1
   76    45    75    1
   77    71    75    1
   78    75    76    1
   79    75    77    1
   80    77    78    1
   81    64    79    1
   82    77    79    1
   83    77    80    1
   84    80    81    1
   85    80    82    1
   86    80    83    1
   87    83    84    1
   88    85    86    1
   89    85    87    1
   90    85    88    1
   91    88    89    1
   92    88    90    1
   93    90    91    1
   94    88    92    1
   95    92    93    1
   96    92    94    1
   97    94    95    1
   98    66    96    1
   99    92    96    1
  100    96    97    1
  101    96    98    1
  102    98    99    1
  103    85   100    1
  104    98   100    1
  105    98   101    1
  106   101   102    1
  107   101   103    1
  108   101   104    1
  109   104   105    1
  110   106   107    1
  111    12   108    1
  112   106   108    1
  113   106   109    1
  114   109   110    1
  115   109   111    1
  116   111   112    1
  117   109   113    1
  118   113   114    1
  119   113   115    1
  120   115   116    1
  121    87   117    1
  122   113   117    1
  123   117   118    1
  124   117   119    1
  125   119   120    1
  126   106   121    1
  127   119   121    1
  128   119   122    1
  129   122   123    1
  130   122   124    1
  131   122   125    1
  132   125   126    1
  133   127   128    1
  134   127   129    1
  135   127   130    1
  136   130   131    1
  137   130   132    1
  138   130   133    1
  139   133   134    1
  140   127   135    1
  141   133   135    1
  142   135   136    1
  143   135   137    1
  144   133   138    1
  145   138   139    1
@<TRIPOS>SUBSTRUCTURE
       1 MOL1            1 RESIDUE      1      MOL     
       2 MOL1          139 RESIDUE      1      MOL     
@<SCITEGIC>MOL_PROPERTY
feprocess Rank
SciTegic.value.IntegerValue
88

@<SCITEGIC>MOL_PROPERTY
Conf_Id
SciTegic.value.IntegerValue
986

@<SCITEGIC>MOL_PROPERTY
Probability
SciTegic.value.DoubleValue
0.04

@<SCITEGIC>MOL_PROPERTY
G
SciTegic.value.DoubleValue
548.697

@<SCITEGIC>MOL_PROPERTY
E
SciTegic.value.DoubleValue
371.515

@<SCITEGIC>MOL_PROPERTY
-TS
SciTegic.value.DoubleValue
177.181

@<SCITEGIC>MOL_PROPERTY
U+W
SciTegic.value.DoubleValue
249.004

@<SCITEGIC>MOL_PROPERTY
U
SciTegic.value.DoubleValue
285.477

@<SCITEGIC>MOL_PROPERTY
W
SciTegic.value.DoubleValue
-36.473

@<SCITEGIC>MOL_PROPERTY
W(PB)
SciTegic.value.DoubleValue
-42.371

@<SCITEGIC>MOL_PROPERTY
W(SA)
SciTegic.value.DoubleValue
5.898

@<SCITEGIC>MOL_PROPERTY
Valence
SciTegic.value.DoubleValue
154.045

@<SCITEGIC>MOL_PROPERTY
Coulomb
SciTegic.value.DoubleValue
155.439

@<SCITEGIC>MOL_PROPERTY
VdW
SciTegic.value.DoubleValue
-24.007

@<SCITEGIC>MOL_PROPERTY
VdW6
SciTegic.value.DoubleValue
-169.218

@<SCITEGIC>MOL_PROPERTY
VdW12
SciTegic.value.DoubleValue
145.211

@<SCITEGIC>MOL_PROPERTY
Bond
SciTegic.value.DoubleValue
4.380

@<SCITEGIC>MOL_PROPERTY
Angle
SciTegic.value.DoubleValue
11.407

@<SCITEGIC>MOL_PROPERTY
Pdih
SciTegic.value.DoubleValue
138.258

@<SCITEGIC>MOL_PROPERTY
Idih
SciTegic.value.DoubleValue
0.000

@<SCITEGIC>MOL_PROPERTY
Tether
SciTegic.value.DoubleValue
0.000

@<TRIPOS>MOLECULE
CD_guest-s16_fast_vm2_rndm.mol2 : feprocess host+ligand conformer 89
         139         145           2
SMALL
USER_CHARGES
 
@<TRIPOS>ATOM
       1    C1      16.236845   15.318992   20.821338 C.3        1 MOL1         0.2972
       2    H1      15.201301   15.195157   20.479188 H          1 MOL1         0.0751
       3    O1      16.481111   16.655287   21.301070 O.3        1 MOL1        -0.3740
       4    C2      16.561318   14.325432   21.968145 C.3        1 MOL1         0.1003
       5    H2      16.384215   13.312976   21.582663 H          1 MOL1         0.0783
       6    O2      15.711912   14.553336   23.104956 O.3        1 MOL1        -0.5519
       7    H3      15.763384   15.517295   23.325732 H          1 MOL1         0.3769
       8    C3      18.050038   14.423828   22.384763 C.3        1 MOL1         0.1053
       9    H4      18.200860   15.396656   22.869531 H          1 MOL1         0.0783
      10    O3      18.360996   13.375376   23.308459 O.3        1 MOL1        -0.5519
      11    H5      17.627535   13.381481   23.962776 H          1 MOL1         0.3769
      12    C4      18.993514   14.338342   21.158018 C.3        1 MOL1         0.1018
      13    H6      18.981866   13.304572   20.788318 H          1 MOL1         0.0783
      14    C5      18.550231   15.300648   20.018715 C.3        1 MOL1         0.1043
      15    H7      18.681053   16.333738   20.362909 H          1 MOL1         0.0783
      16    O4      17.150689   15.066368   19.732594 O.3        1 MOL1        -0.3740
      17    C6      19.339874   15.170403   18.691591 C.3        1 MOL1         0.0138
      18    H8      20.217011   15.826369   18.742583 H          1 MOL1         0.0794
      19    H9      18.711089   15.547909   17.874190 H          1 MOL1         0.0794
      20    O5      19.757431   13.830643   18.408915 O.3        1 MOL1        -0.5486
      21    H10     20.606838   13.694137   18.888346 H          1 MOL1         0.3769
      22    C7      14.717913   20.347247   21.683574 C.3        1 MOL1         0.2972
      23    H11     14.075303   21.229970   21.797522 H          1 MOL1         0.0751
      24    O6      16.087833   20.709526   21.424952 O.3        1 MOL1        -0.3740
      25    C8      14.687880   19.493081   22.973789 C.3        1 MOL1         0.1003
      26    H12     13.665115   19.117937   23.109269 H          1 MOL1         0.0783
      27    O7      15.064202   20.284344   24.111886 O.3        1 MOL1        -0.5519
      28    H13     15.561116   21.065878   23.766483 H          1 MOL1         0.3769
      29    C9      15.635172   18.283264   22.818709 C.3        1 MOL1         0.1053
      30    H14     16.649644   18.680620   22.725132 H          1 MOL1         0.0783
      31    O8      15.563743   17.439727   23.972511 O.3        1 MOL1        -0.5519
      32    H15     15.524565   18.060688   24.735290 H          1 MOL1         0.3769
      33    C10     15.317272   17.470827   21.540446 C.3        1 MOL1         0.1018
      34    H16     14.421203   16.864709   21.729698 H          1 MOL1         0.0783
      35    C11     15.108237   18.370071   20.284206 C.3        1 MOL1         0.1043
      36    H17     16.095272   18.727610   19.967876 H          1 MOL1         0.0783
      37    O9      14.270509   19.516694   20.591898 O.3        1 MOL1        -0.3740
      38    C12     14.487664   17.627270   19.076934 C.3        1 MOL1         0.0138
      39    H18     15.239482   16.942327   18.662332 H          1 MOL1         0.0794
      40    H19     14.253435   18.362880   18.295613 H          1 MOL1         0.0794
      41    O10     13.310660   16.896062   19.441454 O.3        1 MOL1        -0.5486
      42    H20     12.922965   16.525548   18.618590 H          1 MOL1         0.3769
      43    C13     18.515644   23.938095   20.461282 C.3        1 MOL1         0.2972
      44    H21     18.933038   24.881068   20.085425 H          1 MOL1         0.0751
      45    O11     19.558223   23.033903   20.887292 O.3        1 MOL1        -0.3740
      46    C14     17.518748   24.187867   21.628759 C.3        1 MOL1         0.1003
      47    H22     16.693653   24.786725   21.221591 H          1 MOL1         0.0783
      48    O12     18.118984   24.912935   22.711760 O.3        1 MOL1        -0.5519
      49    H23     18.834549   24.337127   23.082295 H          1 MOL1         0.3769
      50    C15     16.926921   22.847777   22.130312 C.3        1 MOL1         0.1053
      51    H24     17.741653   22.256279   22.569934 H          1 MOL1         0.0783
      52    O13     15.923271   23.097790   23.119766 O.3        1 MOL1        -0.5519
      53    H25     16.302328   23.794340   23.701182 H          1 MOL1         0.3769
      54    C16     16.319509   22.045436   20.952871 C.3        1 MOL1         0.1018
      55    H26     15.391551   22.536553   20.631638 H          1 MOL1         0.0783
      56    C17     17.290629   21.944680   19.744090 C.3        1 MOL1         0.1043
      57    H27     18.139836   21.313603   20.035583 H          1 MOL1         0.0783
      58    O14     17.774394   23.271214   19.413034 O.3        1 MOL1        -0.3740
      59    C18     16.675120   21.296772   18.475368 C.3        1 MOL1         0.0138
      60    H28     16.880730   20.219359   18.503340 H          1 MOL1         0.0794
      61    H29     17.193843   21.693707   17.592550 H          1 MOL1         0.0794
      62    O15     15.262848   21.509015   18.353212 O.3        1 MOL1        -0.5486
      63    H30     14.824527   20.958697   19.042958 H          1 MOL1         0.3769
      64    C19     23.501052   22.678750   22.046517 C.3        1 MOL1         0.2972
      65    H31     24.536828   22.821215   22.380520 H          1 MOL1         0.0751
      66    O16     23.280627   21.339698   21.558329 O.3        1 MOL1        -0.3740
      67    C20     22.516767   22.969877   23.208678 C.3        1 MOL1         0.1003
      68    H32     22.668242   24.016289   23.504174 H          1 MOL1         0.0783
      69    O17     22.762985   22.121508   24.341762 O.3        1 MOL1        -0.5519
      70    H33     23.624751   21.665476   24.182513 H          1 MOL1         0.3769
      71    C21     21.051626   22.810156   22.745220 C.3        1 MOL1         0.1053
      72    H34     20.881888   21.748602   22.534348 H          1 MOL1         0.0783
      73    O18     20.183892   23.231352   23.801573 O.3        1 MOL1        -0.5519
      74    H35     20.546336   22.793208   24.604699 H          1 MOL1         0.3769
      75    C22     20.757086   23.606684   21.448524 C.3        1 MOL1         0.1018
      76    H36     20.629989   24.666775   21.704451 H          1 MOL1         0.0783
      77    C23     21.875681   23.446436   20.378156 C.3        1 MOL1         0.1043
      78    H37     21.792491   22.438568   19.951317 H          1 MOL1         0.0783
      79    O19     23.188628   23.596380   20.977547 O.3        1 MOL1        -0.3740
      80    C24     21.754158   24.447924   19.204748 C.3        1 MOL1         0.0138
      81    H38     20.885230   24.165637   18.595024 H          1 MOL1         0.0794
      82    H39     22.644052   24.351266   18.568388 H          1 MOL1         0.0794
      83    O20     21.610131   25.799641   19.658587 O.3        1 MOL1        -0.5486
      84    H40     21.621418   26.382368   18.867953 H          1 MOL1         0.3769
      85    C25     25.169472   17.637503   21.477148 C.3        1 MOL1         0.2972
      86    H41     25.877083   16.806260   21.365041 H          1 MOL1         0.0751
      87    O21     23.841980   17.170280   21.783343 O.3        1 MOL1        -0.3740
      88    C26     25.616765   18.554439   22.640524 C.3        1 MOL1         0.1003
      89    H42     26.618228   18.932182   22.396353 H          1 MOL1         0.0783
      90    O22     25.675460   17.808396   23.867042 O.3        1 MOL1        -0.5519
      91    H43     24.947901   17.138990   23.830317 H          1 MOL1         0.3769
      92    C27     24.670937   19.770763   22.795822 C.3        1 MOL1         0.1053
      93    H44     23.700774   19.404346   23.154911 H          1 MOL1         0.0783
      94    O23     25.234486   20.667532   23.758805 O.3        1 MOL1        -0.5519
      95    H45     25.567800   20.085643   24.479571 H          1 MOL1         0.3769
      96    C28     24.443133   20.494448   21.440703 C.3        1 MOL1         0.1018
      97    H46     25.339334   21.075024   21.187322 H          1 MOL1         0.0783
      98    C29     24.137801   19.501356   20.285611 C.3        1 MOL1         0.1043
      99    H47     23.143320   19.075150   20.461275 H          1 MOL1         0.0783
     100    O24     25.112967   18.428936   20.271874 O.3        1 MOL1        -0.3740
     101    C30     24.100109   20.164923   18.886397 C.3        1 MOL1         0.0138
     102    H48     23.168761   20.740073   18.798493 H          1 MOL1         0.0794
     103    H49     24.064985   19.374537   18.125132 H          1 MOL1         0.0794
     104    O25     25.220768   21.024870   18.648905 O.3        1 MOL1        -0.5486
     105    H50     25.085052   21.838119   19.181465 H          1 MOL1         0.3769
     106    C31     21.380930   13.820725   21.346791 C.3        1 MOL1         0.2972
     107    H51     21.012851   12.803385   21.162319 H          1 MOL1         0.0751
     108    O26     20.298805   14.730495   21.627886 O.3        1 MOL1        -0.3740
     109    C32     22.322273   13.818093   22.577376 C.3        1 MOL1         0.1003
     110    H52     23.145024   13.122858   22.365644 H          1 MOL1         0.0783
     111    O27     21.610376   13.373909   23.743376 O.3        1 MOL1        -0.5519
     112    H53     20.673160   13.666317   23.630804 H          1 MOL1         0.3769
     113    C33     22.929437   15.221205   22.816851 C.3        1 MOL1         0.1053
     114    H54     22.117457   15.894433   23.122869 H          1 MOL1         0.0783
     115    O28     23.915721   15.150593   23.852491 O.3        1 MOL1        -0.5519
     116    H55     23.493282   14.631581   24.572584 H          1 MOL1         0.3769
     117    C34     23.566138   15.781768   21.522238 C.3        1 MOL1         0.1018
     118    H56     24.479253   15.210797   21.308504 H          1 MOL1         0.0783
     119    C35     22.589403   15.681988   20.317579 C.3        1 MOL1         0.1043
     120    H57     21.739021   16.344270   20.518793 H          1 MOL1         0.0783
     121    O29     22.111141   14.317511   20.203478 O.3        1 MOL1        -0.3740
     122    C36     23.181879   16.110373   18.950738 C.3        1 MOL1         0.0138
     123    H58     23.063572   17.196008   18.844900 H          1 MOL1         0.0794
     124    H59     22.589451   15.646275   18.151087 H          1 MOL1         0.0794
     125    O30     24.562051   15.763234   18.799713 O.3        1 MOL1        -0.5486
     126    H60     25.081722   16.520159   19.153586 H          1 MOL1         0.3769
     127    C1      20.519812   19.188663   21.250242 C.3        1 MOL1        -0.1693
     128    H1      20.776748   18.420120   20.512174 H          1 MOL1         0.0829
     129    H2      20.884560   20.155930   20.887933 H          1 MOL1         0.0829
     130    C2      20.863575   18.824860   22.734169 C.3        1 MOL1        -0.1768
     131    H3      21.749197   18.206335   22.893659 H          1 MOL1         0.0829
     132    H4      20.901433   19.672349   23.428798 H          1 MOL1         0.0829
     133    C3      19.508917   18.060444   22.730269 C.3        1 MOL1         0.1211
     134    H5      19.581026   17.059095   22.294694 H          1 MOL1         0.0786
     135    C4      19.034979   19.156546   21.729001 C.3        1 MOL1        -0.1768
     136    H6      18.298164   18.841139   20.983989 H          1 MOL1         0.0829
     137    H7      18.688861   20.082333   22.203887 H          1 MOL1         0.0829
     138    O1      18.831574   18.016275   23.965326 O.3        1 MOL1        -0.5515
     139    H8      17.932109   17.659860   23.805788 H          1 MOL1         0.3773
@<TRIPOS>BOND
    1     1     2    1
    2     1     3    1
    3     1     4    1
    4     4     5    1
    5     4     6    1
    6     6     7    1
    7     4     8    1
    8     8     9    1
    9     8    10    1
   10    10    11    1
   11     8    12    1
   12    12    13    1
   13    12    14    1
   14    14    15    1
   15     1    16    1
   16    14    16    1
   17    14    17    1
   18    17    18    1
   19    17    19    1
   20    17    20    1
   21    20    21    1
   22    22    23    1
   23    22    24    1
   24    22    25    1
   25    25    26    1
   26    25    27    1
   27    27    28    1
   28    25    29    1
   29    29    30    1
   30    29    31    1
   31    31    32    1
   32     3    33    1
   33    29    33    1
   34    33    34    1
   35    33    35    1
   36    35    36    1
   37    22    37    1
   38    35    37    1
   39    35    38    1
   40    38    39    1
   41    38    40    1
   42    38    41    1
   43    41    42    1
   44    43    44    1
   45    43    45    1
   46    43    46    1
   47    46    47    1
   48    46    48    1
   49    48    49    1
   50    46    50    1
   51    50    51    1
   52    50    52    1
   53    52    53    1
   54    24    54    1
   55    50    54    1
   56    54    55    1
   57    54    56    1
   58    56    57    1
   59    43    58    1
   60    56    58    1
   61    56    59    1
   62    59    60    1
   63    59    61    1
   64    59    62    1
   65    62    63    1
   66    64    65    1
   67    64    66    1
   68    64    67    1
   69    67    68    1
   70    67    69    1
   71    69    70    1
   72    67    71    1
   73    71    72    1
   74    71    73    1
   75    73    74    1
   76    45    75    1
   77    71    75    1
   78    75    76    1
   79    75    77    1
   80    77    78    1
   81    64    79    1
   82    77    79    1
   83    77    80    1
   84    80    81    1
   85    80    82    1
   86    80    83    1
   87    83    84    1
   88    85    86    1
   89    85    87    1
   90    85    88    1
   91    88    89    1
   92    88    90    1
   93    90    91    1
   94    88    92    1
   95    92    93    1
   96    92    94    1
   97    94    95    1
   98    66    96    1
   99    92    96    1
  100    96    97    1
  101    96    98    1
  102    98    99    1
  103    85   100    1
  104    98   100    1
  105    98   101    1
  106   101   102    1
  107   101   103    1
  108   101   104    1
  109   104   105    1
  110   106   107    1
  111    12   108    1
  112   106   108    1
  113   106   109    1
  114   109   110    1
  115   109   111    1
  116   111   112    1
  117   109   113    1
  118   113   114    1
  119   113   115    1
  120   115   116    1
  121    87   117    1
  122   113   117    1
  123   117   118    1
  124   117   119    1
  125   119   120    1
  126   106   121    1
  127   119   121    1
  128   119   122    1
  129   122   123    1
  130   122   124    1
  131   122   125    1
  132   125   126    1
  133   127   128    1
  134   127   129    1
  135   127   130    1
  136   130   131    1
  137   130   132    1
  138   130   133    1
  139   133   134    1
  140   127   135    1
  141   133   135    1
  142   135   136    1
  143   135   137    1
  144   133   138    1
  145   138   139    1
@<TRIPOS>SUBSTRUCTURE
       1 MOL1            1 RESIDUE      1      MOL     
       2 MOL1          139 RESIDUE      1      MOL     
@<SCITEGIC>MOL_PROPERTY
feprocess Rank
SciTegic.value.IntegerValue
89

@<SCITEGIC>MOL_PROPERTY
Conf_Id
SciTegic.value.IntegerValue
321

@<SCITEGIC>MOL_PROPERTY
Probability
SciTegic.value.DoubleValue
0.04

@<SCITEGIC>MOL_PROPERTY
G
SciTegic.value.DoubleValue
548.714

@<SCITEGIC>MOL_PROPERTY
E
SciTegic.value.DoubleValue
370.303

@<SCITEGIC>MOL_PROPERTY
-TS
SciTegic.value.DoubleValue
178.412

@<SCITEGIC>MOL_PROPERTY
U+W
SciTegic.value.DoubleValue
247.791

@<SCITEGIC>MOL_PROPERTY
U
SciTegic.value.DoubleValue
285.562

@<SCITEGIC>MOL_PROPERTY
W
SciTegic.value.DoubleValue
-37.771

@<SCITEGIC>MOL_PROPERTY
W(PB)
SciTegic.value.DoubleValue
-43.768

@<SCITEGIC>MOL_PROPERTY
W(SA)
SciTegic.value.DoubleValue
5.997

@<SCITEGIC>MOL_PROPERTY
Valence
SciTegic.value.DoubleValue
153.548

@<SCITEGIC>MOL_PROPERTY
Coulomb
SciTegic.value.DoubleValue
154.224

@<SCITEGIC>MOL_PROPERTY
VdW
SciTegic.value.DoubleValue
-22.210

@<SCITEGIC>MOL_PROPERTY
VdW6
SciTegic.value.DoubleValue
-170.495

@<SCITEGIC>MOL_PROPERTY
VdW12
SciTegic.value.DoubleValue
148.285

@<SCITEGIC>MOL_PROPERTY
Bond
SciTegic.value.DoubleValue
4.635

@<SCITEGIC>MOL_PROPERTY
Angle
SciTegic.value.DoubleValue
12.190

@<SCITEGIC>MOL_PROPERTY
Pdih
SciTegic.value.DoubleValue
136.723

@<SCITEGIC>MOL_PROPERTY
Idih
SciTegic.value.DoubleValue
0.000

@<SCITEGIC>MOL_PROPERTY
Tether
SciTegic.value.DoubleValue
0.000

@<TRIPOS>MOLECULE
CD_guest-s16_fast_vm2_rndm.mol2 : feprocess host+ligand conformer 90
         139         145           2
SMALL
USER_CHARGES
 
@<TRIPOS>ATOM
       1    C1      16.086659   15.067418   21.585907 C.3        1 MOL1         0.2972
       2    H1      15.013215   14.861829   21.680556 H          1 MOL1         0.0751
       3    O1      16.364450   16.481760   21.528791 O.3        1 MOL1        -0.3740
       4    C2      16.862177   14.457279   22.781101 C.3        1 MOL1         0.1003
       5    H2      16.731790   13.368127   22.736338 H          1 MOL1         0.0783
       6    O2      16.358175   14.934903   24.037108 O.3        1 MOL1        -0.5519
       7    H3      16.116820   15.888508   23.918579 H          1 MOL1         0.3769
       8    C3      18.372085   14.759115   22.650301 C.3        1 MOL1         0.1053
       9    H4      18.506370   15.843381   22.727067 H          1 MOL1         0.0783
      10    O3      19.084920   14.109487   23.707248 O.3        1 MOL1        -0.5519
      11    H5      18.541023   14.268909   24.511532 H          1 MOL1         0.3769
      12    C4      18.916009   14.296599   21.276714 C.3        1 MOL1         0.1018
      13    H6      19.001912   13.201857   21.294417 H          1 MOL1         0.0783
      14    C5      18.007150   14.741269   20.092021 C.3        1 MOL1         0.1043
      15    H7      18.133529   15.822783   19.952951 H          1 MOL1         0.0783
      16    O4      16.612276   14.464066   20.385006 O.3        1 MOL1        -0.3740
      17    C6      18.365021   14.063126   18.747742 C.3        1 MOL1         0.0138
      18    H8      19.318433   14.475940   18.391239 H          1 MOL1         0.0794
      19    H9      17.598519   14.328009   18.007189 H          1 MOL1         0.0794
      20    O5      18.467540   12.638860   18.870874 O.3        1 MOL1        -0.5486
      21    H10     18.616063   12.272181   17.971934 H          1 MOL1         0.3769
      22    C7      14.772390   20.287373   21.396517 C.3        1 MOL1         0.2972
      23    H11     14.139036   21.182882   21.351531 H          1 MOL1         0.0751
      24    O6      16.171410   20.620458   21.315683 O.3        1 MOL1        -0.3740
      25    C8      14.531103   19.541459   22.729248 C.3        1 MOL1         0.1003
      26    H12     13.478361   19.230816   22.748409 H          1 MOL1         0.0783
      27    O7      14.789647   20.405798   23.847505 O.3        1 MOL1        -0.5519
      28    H13     15.333895   21.159109   23.509389 H          1 MOL1         0.3769
      29    C9      15.406808   18.270267   22.809420 C.3        1 MOL1         0.1053
      30    H14     16.456894   18.583706   22.874018 H          1 MOL1         0.0783
      31    O8      15.050033   17.533553   23.981441 O.3        1 MOL1        -0.5519
      32    H15     15.042399   18.201851   24.703043 H          1 MOL1         0.3769
      33    C10     15.238730   17.382073   21.549789 C.3        1 MOL1         0.1018
      34    H16     14.280617   16.851745   21.619876 H          1 MOL1         0.0783
      35    C11     15.291361   18.197020   20.225054 C.3        1 MOL1         0.1043
      36    H17     16.330121   18.502386   20.062146 H          1 MOL1         0.0783
      37    O9      14.463381   19.386056   20.311939 O.3        1 MOL1        -0.3740
      38    C12     14.866886   17.386525   18.976253 C.3        1 MOL1         0.0138
      39    H18     15.636652   16.630900   18.768185 H          1 MOL1         0.0794
      40    H19     14.839968   18.066719   18.114520 H          1 MOL1         0.0794
      41    O10     13.592948   16.751249   19.137626 O.3        1 MOL1        -0.5486
      42    H20     13.734977   15.922366   19.641561 H          1 MOL1         0.3769
      43    C13     18.681632   23.832053   20.431276 C.3        1 MOL1         0.2972
      44    H21     19.116384   24.760844   20.039905 H          1 MOL1         0.0751
      45    O11     19.684264   22.994385   21.042263 O.3        1 MOL1        -0.3740
      46    C14     17.567170   24.125551   21.473532 C.3        1 MOL1         0.1003
      47    H22     16.781386   24.689985   20.954770 H          1 MOL1         0.0783
      48    O12     18.053571   24.913480   22.570295 O.3        1 MOL1        -0.5519
      49    H23     18.794134   24.406814   22.990181 H          1 MOL1         0.3769
      50    C15     16.941864   22.803935   21.986503 C.3        1 MOL1         0.1053
      51    H24     17.711186   22.249829   22.542189 H          1 MOL1         0.0783
      52    O13     15.836295   23.094809   22.847495 O.3        1 MOL1        -0.5519
      53    H25     16.145357   23.830424   23.422511 H          1 MOL1         0.3769
      54    C16     16.471764   21.928277   20.798815 C.3        1 MOL1         0.1018
      55    H26     15.593916   22.401392   20.339194 H          1 MOL1         0.0783
      56    C17     17.576816   21.764148   19.721809 C.3        1 MOL1         0.1043
      57    H27     18.392558   21.175200   20.154878 H          1 MOL1         0.0783
      58    O14     18.077928   23.074500   19.356054 O.3        1 MOL1        -0.3740
      59    C18     17.120856   21.015215   18.441953 C.3        1 MOL1         0.0138
      60    H28     17.299718   19.942323   18.587466 H          1 MOL1         0.0794
      61    H29     17.757671   21.331961   17.605250 H          1 MOL1         0.0794
      62    O15     15.740754   21.227674   18.119163 O.3        1 MOL1        -0.5486
      63    H30     15.206812   20.717843   18.771790 H          1 MOL1         0.3769
      64    C19     23.599144   22.783911   22.300020 C.3        1 MOL1         0.2972
      65    H31     24.631683   22.949110   22.634022 H          1 MOL1         0.0751
      66    O16     23.339606   21.393461   22.036009 O.3        1 MOL1        -0.3740
      67    C20     22.608355   23.250671   23.391655 C.3        1 MOL1         0.1003
      68    H32     22.758104   24.328329   23.538045 H          1 MOL1         0.0783
      69    O17     22.860327   22.562003   24.627576 O.3        1 MOL1        -0.5519
      70    H33     23.393111   21.759166   24.406473 H          1 MOL1         0.3769
      71    C21     21.148029   23.024965   22.935762 C.3        1 MOL1         0.1053
      72    H34     20.975817   21.943575   22.875757 H          1 MOL1         0.0783
      73    O18     20.261816   23.594069   23.903636 O.3        1 MOL1        -0.5519
      74    H35     20.611490   23.290721   24.771624 H          1 MOL1         0.3769
      75    C22     20.879294   23.633453   21.534778 C.3        1 MOL1         0.1018
      76    H36     20.755014   24.719568   21.638941 H          1 MOL1         0.0783
      77    C23     22.009076   23.314669   20.511378 C.3        1 MOL1         0.1043
      78    H37     21.911857   22.258338   20.231586 H          1 MOL1         0.0783
      79    O19     23.322065   23.526198   21.094423 O.3        1 MOL1        -0.3740
      80    C24     21.913846   24.140464   19.206443 C.3        1 MOL1         0.0138
      81    H38     21.046683   23.786836   18.632378 H          1 MOL1         0.0794
      82    H39     22.808340   23.943248   18.600328 H          1 MOL1         0.0794
      83    O20     21.785918   25.544040   19.464613 O.3        1 MOL1        -0.5486
      84    H40     21.814552   26.010108   18.600546 H          1 MOL1         0.3769
      85    C25     25.146094   17.708002   21.537271 C.3        1 MOL1         0.2972
      86    H41     25.836142   16.872395   21.363428 H          1 MOL1         0.0751
      87    O21     23.783716   17.251999   21.677847 O.3        1 MOL1        -0.3740
      88    C26     25.529724   18.440412   22.846931 C.3        1 MOL1         0.1003
      89    H42     26.551565   18.824283   22.730406 H          1 MOL1         0.0783
      90    O22     25.483288   17.527995   23.955359 O.3        1 MOL1        -0.5519
      91    H43     24.791067   16.856325   23.739795 H          1 MOL1         0.3769
      92    C27     24.587080   19.641349   23.096450 C.3        1 MOL1         0.1053
      93    H44     23.589678   19.238074   23.305549 H          1 MOL1         0.0783
      94    O23     25.041874   20.396053   24.223787 O.3        1 MOL1        -0.5519
      95    H45     25.265083   19.724636   24.906845 H          1 MOL1         0.3769
      96    C28     24.491768   20.554279   21.848703 C.3        1 MOL1         0.1018
      97    H46     25.420827   21.132234   21.758262 H          1 MOL1         0.0783
      98    C29     24.253065   19.750641   20.542370 C.3        1 MOL1         0.1043
      99    H47     23.243375   19.332870   20.596680 H          1 MOL1         0.0783
     100    O24     25.204847   18.660750   20.451891 O.3        1 MOL1        -0.3740
     101    C30     24.315149   20.593874   19.241296 C.3        1 MOL1         0.0138
     102    H48     23.304702   20.957294   19.015616 H          1 MOL1         0.0794
     103    H49     24.608299   19.937764   18.410788 H          1 MOL1         0.0794
     104    O25     25.211719   21.707744   19.327403 O.3        1 MOL1        -0.5486
     105    H50     24.776025   22.387467   19.891879 H          1 MOL1         0.3769
     106    C31     21.248880   14.113324   20.555875 C.3        1 MOL1         0.2972
     107    H51     20.851017   13.188898   20.117779 H          1 MOL1         0.0751
     108    O26     20.198810   14.933411   21.108248 O.3        1 MOL1        -0.3740
     109    C32     22.270236   13.796408   21.681235 C.3        1 MOL1         0.1003
     110    H52     23.072996   13.197224   21.232239 H          1 MOL1         0.0783
     111    O27     21.661854   13.042916   22.742159 O.3        1 MOL1        -0.5519
     112    H53     20.839255   13.523894   23.014429 H          1 MOL1         0.3769
     113    C33     22.902551   15.097459   22.235621 C.3        1 MOL1         0.1053
     114    H54     22.116062   15.667096   22.749053 H          1 MOL1         0.0783
     115    O28     23.946109   14.771242   23.160070 O.3        1 MOL1        -0.5519
     116    H55     23.570601   14.065809   23.732625 H          1 MOL1         0.3769
     117    C34     23.468674   15.974535   21.091403 C.3        1 MOL1         0.1018
     118    H56     24.358070   15.478712   20.680747 H          1 MOL1         0.0783
     119    C35     22.421385   16.179566   19.960355 C.3        1 MOL1         0.1043
     120    H57     21.588420   16.767839   20.363938 H          1 MOL1         0.0783
     121    O29     21.928697   14.884255   19.541797 O.3        1 MOL1        -0.3740
     122    C36     22.939895   16.922927   18.702185 C.3        1 MOL1         0.0138
     123    H58     22.795400   17.999959   18.845504 H          1 MOL1         0.0794
     124    H59     22.315545   16.634107   17.846140 H          1 MOL1         0.0794
     125    O30     24.317036   16.657216   18.414001 O.3        1 MOL1        -0.5486
     126    H60     24.848623   17.235334   19.008835 H          1 MOL1         0.3769
     127    C1      20.453956   19.387523   21.258976 C.3        1 MOL1        -0.1693
     128    H1      20.311925   20.461807   21.104070 H          1 MOL1         0.0829
     129    H2      21.090908   19.004074   20.457782 H          1 MOL1         0.0829
     130    C2      19.146837   18.576534   21.524639 C.3        1 MOL1        -0.1768
     131    H3      18.249106   18.935353   21.018773 H          1 MOL1         0.0829
     132    H4      19.239295   17.498979   21.356077 H          1 MOL1         0.0829
     133    C3      19.311039   19.029787   23.005210 C.3        1 MOL1         0.1211
     134    H5      18.917263   20.035609   23.204957 H          1 MOL1         0.0786
     135    C4      20.841214   18.991887   22.721149 C.3        1 MOL1        -0.1768
     136    H6      21.306476   18.004319   22.821686 H          1 MOL1         0.0829
     137    H7      21.433258   19.720996   23.281624 H          1 MOL1         0.0829
     138    O1      18.860605   18.120524   23.979645 O.3        1 MOL1        -0.5515
     139    H8      19.360269   17.291678   23.850635 H          1 MOL1         0.3773
@<TRIPOS>BOND
    1     1     2    1
    2     1     3    1
    3     1     4    1
    4     4     5    1
    5     4     6    1
    6     6     7    1
    7     4     8    1
    8     8     9    1
    9     8    10    1
   10    10    11    1
   11     8    12    1
   12    12    13    1
   13    12    14    1
   14    14    15    1
   15     1    16    1
   16    14    16    1
   17    14    17    1
   18    17    18    1
   19    17    19    1
   20    17    20    1
   21    20    21    1
   22    22    23    1
   23    22    24    1
   24    22    25    1
   25    25    26    1
   26    25    27    1
   27    27    28    1
   28    25    29    1
   29    29    30    1
   30    29    31    1
   31    31    32    1
   32     3    33    1
   33    29    33    1
   34    33    34    1
   35    33    35    1
   36    35    36    1
   37    22    37    1
   38    35    37    1
   39    35    38    1
   40    38    39    1
   41    38    40    1
   42    38    41    1
   43    41    42    1
   44    43    44    1
   45    43    45    1
   46    43    46    1
   47    46    47    1
   48    46    48    1
   49    48    49    1
   50    46    50    1
   51    50    51    1
   52    50    52    1
   53    52    53    1
   54    24    54    1
   55    50    54    1
   56    54    55    1
   57    54    56    1
   58    56    57    1
   59    43    58    1
   60    56    58    1
   61    56    59    1
   62    59    60    1
   63    59    61    1
   64    59    62    1
   65    62    63    1
   66    64    65    1
   67    64    66    1
   68    64    67    1
   69    67    68    1
   70    67    69    1
   71    69    70    1
   72    67    71    1
   73    71    72    1
   74    71    73    1
   75    73    74    1
   76    45    75    1
   77    71    75    1
   78    75    76    1
   79    75    77    1
   80    77    78    1
   81    64    79    1
   82    77    79    1
   83    77    80    1
   84    80    81    1
   85    80    82    1
   86    80    83    1
   87    83    84    1
   88    85    86    1
   89    85    87    1
   90    85    88    1
   91    88    89    1
   92    88    90    1
   93    90    91    1
   94    88    92    1
   95    92    93    1
   96    92    94    1
   97    94    95    1
   98    66    96    1
   99    92    96    1
  100    96    97    1
  101    96    98    1
  102    98    99    1
  103    85   100    1
  104    98   100    1
  105    98   101    1
  106   101   102    1
  107   101   103    1
  108   101   104    1
  109   104   105    1
  110   106   107    1
  111    12   108    1
  112   106   108    1
  113   106   109    1
  114   109   110    1
  115   109   111    1
  116   111   112    1
  117   109   113    1
  118   113   114    1
  119   113   115    1
  120   115   116    1
  121    87   117    1
  122   113   117    1
  123   117   118    1
  124   117   119    1
  125   119   120    1
  126   106   121    1
  127   119   121    1
  128   119   122    1
  129   122   123    1
  130   122   124    1
  131   122   125    1
  132   125   126    1
  133   127   128    1
  134   127   129    1
  135   127   130    1
  136   130   131    1
  137   130   132    1
  138   130   133    1
  139   133   134    1
  140   127   135    1
  141   133   135    1
  142   135   136    1
  143   135   137    1
  144   133   138    1
  145   138   139    1
@<TRIPOS>SUBSTRUCTURE
       1 MOL1            1 RESIDUE      1      MOL     
       2 MOL1          139 RESIDUE      1      MOL     
@<SCITEGIC>MOL_PROPERTY
feprocess Rank
SciTegic.value.IntegerValue
90

@<SCITEGIC>MOL_PROPERTY
Conf_Id
SciTegic.value.IntegerValue
484

@<SCITEGIC>MOL_PROPERTY
Probability
SciTegic.value.DoubleValue
0.04

@<SCITEGIC>MOL_PROPERTY
G
SciTegic.value.DoubleValue
548.724

@<SCITEGIC>MOL_PROPERTY
E
SciTegic.value.DoubleValue
371.426

@<SCITEGIC>MOL_PROPERTY
-TS
SciTegic.value.DoubleValue
177.297

@<SCITEGIC>MOL_PROPERTY
U+W
SciTegic.value.DoubleValue
248.915

@<SCITEGIC>MOL_PROPERTY
U
SciTegic.value.DoubleValue
287.523

@<SCITEGIC>MOL_PROPERTY
W
SciTegic.value.DoubleValue
-38.608

@<SCITEGIC>MOL_PROPERTY
W(PB)
SciTegic.value.DoubleValue
-44.571

@<SCITEGIC>MOL_PROPERTY
W(SA)
SciTegic.value.DoubleValue
5.963

@<SCITEGIC>MOL_PROPERTY
Valence
SciTegic.value.DoubleValue
155.580

@<SCITEGIC>MOL_PROPERTY
Coulomb
SciTegic.value.DoubleValue
154.336

@<SCITEGIC>MOL_PROPERTY
VdW
SciTegic.value.DoubleValue
-22.393

@<SCITEGIC>MOL_PROPERTY
VdW6
SciTegic.value.DoubleValue
-168.463

@<SCITEGIC>MOL_PROPERTY
VdW12
SciTegic.value.DoubleValue
146.069

@<SCITEGIC>MOL_PROPERTY
Bond
SciTegic.value.DoubleValue
4.621

@<SCITEGIC>MOL_PROPERTY
Angle
SciTegic.value.DoubleValue
11.815

@<SCITEGIC>MOL_PROPERTY
Pdih
SciTegic.value.DoubleValue
139.144

@<SCITEGIC>MOL_PROPERTY
Idih
SciTegic.value.DoubleValue
0.000

@<SCITEGIC>MOL_PROPERTY
Tether
SciTegic.value.DoubleValue
0.000

@<TRIPOS>MOLECULE
CD_guest-s16_fast_vm2_rndm.mol2 : feprocess host+ligand conformer 91
         139         145           2
SMALL
USER_CHARGES
 
@<TRIPOS>ATOM
       1    C1      16.288083   15.145388   20.885378 C.3        1 MOL1         0.2972
       2    H1      15.274160   14.963615   20.506934 H          1 MOL1         0.0751
       3    O1      16.437202   16.497825   21.364063 O.3        1 MOL1        -0.3740
       4    C2      16.576256   14.186897   22.065062 C.3        1 MOL1         0.1003
       5    H2      16.447638   13.162005   21.693276 H          1 MOL1         0.0783
       6    O2      15.643498   14.426782   23.131019 O.3        1 MOL1        -0.5519
       7    H3      15.478422   15.400841   23.146440 H          1 MOL1         0.3769
       8    C3      18.030369   14.327357   22.578018 C.3        1 MOL1         0.1053
       9    H4      18.113265   15.286012   23.104474 H          1 MOL1         0.0783
      10    O3      18.302217   13.254183   23.484406 O.3        1 MOL1        -0.5519
      11    H5      17.571747   13.276965   24.140349 H          1 MOL1         0.3769
      12    C4      19.062650   14.315553   21.418697 C.3        1 MOL1         0.1018
      13    H6      19.180408   13.281312   21.069755 H          1 MOL1         0.0783
      14    C5      18.634652   15.208895   20.220082 C.3        1 MOL1         0.1043
      15    H7      18.699990   16.258342   20.534882 H          1 MOL1         0.0783
      16    O4      17.267064   14.903076   19.854609 O.3        1 MOL1        -0.3740
      17    C6      19.517373   15.061950   18.951864 C.3        1 MOL1         0.0138
      18    H8      20.305978   15.822967   18.985727 H          1 MOL1         0.0794
      19    H9      18.904707   15.290293   18.069585 H          1 MOL1         0.0794
      20    O5      20.102118   13.760780   18.811184 O.3        1 MOL1        -0.5486
      21    H10     20.730362   13.634582   19.559721 H          1 MOL1         0.3769
      22    C7      14.943684   20.346242   20.607241 C.3        1 MOL1         0.2972
      23    H11     14.328803   21.183337   20.252076 H          1 MOL1         0.0751
      24    O6      16.168790   20.805035   21.211465 O.3        1 MOL1        -0.3740
      25    C8      14.173689   19.503433   21.657385 C.3        1 MOL1         0.1003
      26    H12     13.256562   19.140780   21.175287 H          1 MOL1         0.0783
      27    O7      13.819177   20.297156   22.801293 O.3        1 MOL1        -0.5519
      28    H13     14.628167   20.797640   23.079163 H          1 MOL1         0.3769
      29    C9      15.002262   18.268151   22.090806 C.3        1 MOL1         0.1053
      30    H14     15.886079   18.621270   22.639549 H          1 MOL1         0.0783
      31    O8      14.205447   17.432720   22.938091 O.3        1 MOL1        -0.5519
      32    H15     13.785207   18.046177   23.580954 H          1 MOL1         0.3769
      33    C10     15.485731   17.459226   20.861548 C.3        1 MOL1         0.1018
      34    H16     14.611193   16.972229   20.410436 H          1 MOL1         0.0783
      35    C11     16.170561   18.378221   19.808460 C.3        1 MOL1         0.1043
      36    H17     17.096534   18.768257   20.244340 H          1 MOL1         0.0783
      37    O9      15.284624   19.481936   19.502519 O.3        1 MOL1        -0.3740
      38    C12     16.554469   17.699412   18.469590 C.3        1 MOL1         0.0138
      39    H18     17.551538   17.256062   18.575798 H          1 MOL1         0.0794
      40    H19     16.636501   18.476038   17.697479 H          1 MOL1         0.0794
      41    O10     15.621383   16.696045   18.055569 O.3        1 MOL1        -0.5486
      42    H20     15.930432   15.849088   18.449706 H          1 MOL1         0.3769
      43    C13     18.416539   24.198652   21.885078 C.3        1 MOL1         0.2972
      44    H21     18.818571   25.208428   22.037614 H          1 MOL1         0.0751
      45    O11     19.456705   23.204864   21.849459 O.3        1 MOL1        -0.3740
      46    C14     17.454416   23.829520   23.039034 C.3        1 MOL1         0.1003
      47    H22     16.613400   24.534612   23.013023 H          1 MOL1         0.0783
      48    O12     18.124037   23.931485   24.306157 O.3        1 MOL1        -0.5519
      49    H23     19.086111   23.770283   24.139316 H          1 MOL1         0.3769
      50    C15     16.894574   22.402967   22.836673 C.3        1 MOL1         0.1053
      51    H24     17.728961   21.699680   22.936524 H          1 MOL1         0.0783
      52    O13     15.910338   22.127392   23.838276 O.3        1 MOL1        -0.5519
      53    H25     16.314801   22.435642   24.679933 H          1 MOL1         0.3769
      54    C16     16.280121   22.226640   21.426516 C.3        1 MOL1         0.1018
      55    H26     15.300849   22.723451   21.415087 H          1 MOL1         0.0783
      56    C17     17.183890   22.798639   20.294787 C.3        1 MOL1         0.1043
      57    H27     18.033940   22.115452   20.171296 H          1 MOL1         0.0783
      58    O14     17.683182   24.116947   20.645594 O.3        1 MOL1        -0.3740
      59    C18     16.473390   22.897367   18.923636 C.3        1 MOL1         0.0138
      60    H28     16.327312   21.881904   18.531473 H          1 MOL1         0.0794
      61    H29     17.134773   23.424754   18.223148 H          1 MOL1         0.0794
      62    O15     15.210674   23.568399   19.017574 O.3        1 MOL1        -0.5486
      63    H30     14.852661   23.658264   18.107494 H          1 MOL1         0.3769
      64    C19     23.568330   22.733910   21.435059 C.3        1 MOL1         0.2972
      65    H31     24.640403   22.907529   21.276218 H          1 MOL1         0.0751
      66    O16     23.278437   21.331700   21.605968 O.3        1 MOL1        -0.3740
      67    C20     23.108107   23.470081   22.717856 C.3        1 MOL1         0.1003
      68    H32     23.315537   24.539284   22.580366 H          1 MOL1         0.0783
      69    O17     23.836185   22.986464   23.857968 O.3        1 MOL1        -0.5519
      70    H33     24.110771   22.060101   23.648241 H          1 MOL1         0.3769
      71    C21     21.586208   23.300670   22.935302 C.3        1 MOL1         0.1053
      72    H34     21.390842   22.244123   23.162938 H          1 MOL1         0.0783
      73    O18     21.161512   24.115582   24.032370 O.3        1 MOL1        -0.5519
      74    H35     21.828749   23.959574   24.737738 H          1 MOL1         0.3769
      75    C22     20.799138   23.679400   21.657161 C.3        1 MOL1         0.1018
      76    H36     20.842338   24.768374   21.523935 H          1 MOL1         0.0783
      77    C23     21.370345   22.978300   20.393852 C.3        1 MOL1         0.1043
      78    H37     21.197518   21.900213   20.497888 H          1 MOL1         0.0783
      79    O19     22.797475   23.223597   20.314248 O.3        1 MOL1        -0.3740
      80    C24     20.709352   23.407482   19.057815 C.3        1 MOL1         0.0138
      81    H38     19.846088   22.755794   18.872606 H          1 MOL1         0.0794
      82    H39     21.421883   23.230683   18.241006 H          1 MOL1         0.0794
      83    O20     20.281767   24.774090   19.049927 O.3        1 MOL1        -0.5486
      84    H40     19.425632   24.808163   19.535789 H          1 MOL1         0.3769
      85    C25     24.840084   17.559472   20.702267 C.3        1 MOL1         0.2972
      86    H41     25.447329   16.730291   20.316812 H          1 MOL1         0.0751
      87    O21     23.604260   17.090979   21.272387 O.3        1 MOL1        -0.3740
      88    C26     25.610509   18.370420   21.780165 C.3        1 MOL1         0.1003
      89    H42     26.513548   18.769831   21.300506 H          1 MOL1         0.0783
      90    O22     25.999196   17.543902   22.888392 O.3        1 MOL1        -0.5519
      91    H43     25.175207   17.132816   23.254095 H          1 MOL1         0.3769
      92    C27     24.762773   19.570664   22.271708 C.3        1 MOL1         0.1053
      93    H44     23.887998   19.177105   22.807359 H          1 MOL1         0.0783
      94    O23     25.543425   20.385885   23.152497 O.3        1 MOL1        -0.5519
      95    H45     25.993859   19.754312   23.756462 H          1 MOL1         0.3769
      96    C28     24.260505   20.420017   21.078221 C.3        1 MOL1         0.1018
      97    H46     25.120789   20.945372   20.642948 H          1 MOL1         0.0783
      98    C29     23.591594   19.542750   19.983776 C.3        1 MOL1         0.1043
      99    H47     22.666922   19.121148   20.397516 H          1 MOL1         0.0783
     100    O24     24.498330   18.467363   19.630781 O.3        1 MOL1        -0.3740
     101    C30     23.197824   20.296000   18.686970 C.3        1 MOL1         0.0138
     102    H48     22.186443   20.701190   18.812807 H          1 MOL1         0.0794
     103    H49     23.146862   19.570002   17.864597 H          1 MOL1         0.0794
     104    O25     24.099899   21.355919   18.349880 O.3        1 MOL1        -0.5486
     105    H50     23.854995   22.127578   18.911506 H          1 MOL1         0.3769
     106    C31     21.305467   13.877282   22.272614 C.3        1 MOL1         0.2972
     107    H51     20.852127   12.918495   22.556108 H          1 MOL1         0.0751
     108    O26     20.298343   14.852036   21.933351 O.3        1 MOL1        -0.3740
     109    C32     22.163768   14.415949   23.443176 C.3        1 MOL1         0.1003
     110    H52     22.962096   13.686296   23.630697 H          1 MOL1         0.0783
     111    O27     21.371673   14.572047   24.629585 O.3        1 MOL1        -0.5519
     112    H53     20.634666   15.189539   24.394296 H          1 MOL1         0.3769
     113    C33     22.816604   15.763255   23.071639 C.3        1 MOL1         0.1053
     114    H54     22.011623   16.499151   22.991922 H          1 MOL1         0.0783
     115    O28     23.723485   16.159917   24.105304 O.3        1 MOL1        -0.5519
     116    H55     23.237891   15.997485   24.944700 H          1 MOL1         0.3769
     117    C34     23.547922   15.719105   21.708657 C.3        1 MOL1         0.1018
     118    H56     24.545747   15.283768   21.852530 H          1 MOL1         0.0783
     119    C35     22.762996   14.943665   20.611665 C.3        1 MOL1         0.1043
     120    H57     21.958350   15.604676   20.273599 H          1 MOL1         0.0783
     121    O29     22.173788   13.721071   21.129445 O.3        1 MOL1        -0.3740
     122    C36     23.615075   14.594191   19.368223 C.3        1 MOL1         0.0138
     123    H58     23.830896   15.521710   18.820897 H          1 MOL1         0.0794
     124    H59     23.020558   13.954856   18.701784 H          1 MOL1         0.0794
     125    O30     24.840461   13.941701   19.721637 O.3        1 MOL1        -0.5486
     126    H60     25.288522   13.676500   18.888731 H          1 MOL1         0.3769
     127    C1      19.520772   19.720609   22.163153 C.3        1 MOL1        -0.1693
     128    H1      18.780549   19.616425   21.363170 H          1 MOL1         0.0829
     129    H2      19.999961   20.697494   22.070114 H          1 MOL1         0.0829
     130    C2      20.489841   18.509177   22.328948 C.3        1 MOL1        -0.1768
     131    H3      20.737509   17.957309   21.415984 H          1 MOL1         0.0829
     132    H4      21.418094   18.744637   22.863399 H          1 MOL1         0.0829
     133    C3      19.365577   17.884416   23.208571 C.3        1 MOL1         0.1211
     134    H5      18.584627   17.377495   22.629735 H          1 MOL1         0.0786
     135    C4      19.004206   19.348544   23.591534 C.3        1 MOL1        -0.1768
     136    H6      19.594709   19.771372   24.413257 H          1 MOL1         0.0829
     137    H7      17.942953   19.534873   23.788336 H          1 MOL1         0.0829
     138    O1      19.801698   17.075526   24.275594 O.3        1 MOL1        -0.5515
     139    H8      20.354305   17.644839   24.847107 H          1 MOL1         0.3773
@<TRIPOS>BOND
    1     1     2    1
    2     1     3    1
    3     1     4    1
    4     4     5    1
    5     4     6    1
    6     6     7    1
    7     4     8    1
    8     8     9    1
    9     8    10    1
   10    10    11    1
   11     8    12    1
   12    12    13    1
   13    12    14    1
   14    14    15    1
   15     1    16    1
   16    14    16    1
   17    14    17    1
   18    17    18    1
   19    17    19    1
   20    17    20    1
   21    20    21    1
   22    22    23    1
   23    22    24    1
   24    22    25    1
   25    25    26    1
   26    25    27    1
   27    27    28    1
   28    25    29    1
   29    29    30    1
   30    29    31    1
   31    31    32    1
   32     3    33    1
   33    29    33    1
   34    33    34    1
   35    33    35    1
   36    35    36    1
   37    22    37    1
   38    35    37    1
   39    35    38    1
   40    38    39    1
   41    38    40    1
   42    38    41    1
   43    41    42    1
   44    43    44    1
   45    43    45    1
   46    43    46    1
   47    46    47    1
   48    46    48    1
   49    48    49    1
   50    46    50    1
   51    50    51    1
   52    50    52    1
   53    52    53    1
   54    24    54    1
   55    50    54    1
   56    54    55    1
   57    54    56    1
   58    56    57    1
   59    43    58    1
   60    56    58    1
   61    56    59    1
   62    59    60    1
   63    59    61    1
   64    59    62    1
   65    62    63    1
   66    64    65    1
   67    64    66    1
   68    64    67    1
   69    67    68    1
   70    67    69    1
   71    69    70    1
   72    67    71    1
   73    71    72    1
   74    71    73    1
   75    73    74    1
   76    45    75    1
   77    71    75    1
   78    75    76    1
   79    75    77    1
   80    77    78    1
   81    64    79    1
   82    77    79    1
   83    77    80    1
   84    80    81    1
   85    80    82    1
   86    80    83    1
   87    83    84    1
   88    85    86    1
   89    85    87    1
   90    85    88    1
   91    88    89    1
   92    88    90    1
   93    90    91    1
   94    88    92    1
   95    92    93    1
   96    92    94    1
   97    94    95    1
   98    66    96    1
   99    92    96    1
  100    96    97    1
  101    96    98    1
  102    98    99    1
  103    85   100    1
  104    98   100    1
  105    98   101    1
  106   101   102    1
  107   101   103    1
  108   101   104    1
  109   104   105    1
  110   106   107    1
  111    12   108    1
  112   106   108    1
  113   106   109    1
  114   109   110    1
  115   109   111    1
  116   111   112    1
  117   109   113    1
  118   113   114    1
  119   113   115    1
  120   115   116    1
  121    87   117    1
  122   113   117    1
  123   117   118    1
  124   117   119    1
  125   119   120    1
  126   106   121    1
  127   119   121    1
  128   119   122    1
  129   122   123    1
  130   122   124    1
  131   122   125    1
  132   125   126    1
  133   127   128    1
  134   127   129    1
  135   127   130    1
  136   130   131    1
  137   130   132    1
  138   130   133    1
  139   133   134    1
  140   127   135    1
  141   133   135    1
  142   135   136    1
  143   135   137    1
  144   133   138    1
  145   138   139    1
@<TRIPOS>SUBSTRUCTURE
       1 MOL1            1 RESIDUE      1      MOL     
       2 MOL1          139 RESIDUE      1      MOL     
@<SCITEGIC>MOL_PROPERTY
feprocess Rank
SciTegic.value.IntegerValue
91

@<SCITEGIC>MOL_PROPERTY
Conf_Id
SciTegic.value.IntegerValue
384

@<SCITEGIC>MOL_PROPERTY
Probability
SciTegic.value.DoubleValue
0.04

@<SCITEGIC>MOL_PROPERTY
G
SciTegic.value.DoubleValue
548.767

@<SCITEGIC>MOL_PROPERTY
E
SciTegic.value.DoubleValue
370.636

@<SCITEGIC>MOL_PROPERTY
-TS
SciTegic.value.DoubleValue
178.131

@<SCITEGIC>MOL_PROPERTY
U+W
SciTegic.value.DoubleValue
248.125

@<SCITEGIC>MOL_PROPERTY
U
SciTegic.value.DoubleValue
287.381

@<SCITEGIC>MOL_PROPERTY
W
SciTegic.value.DoubleValue
-39.256

@<SCITEGIC>MOL_PROPERTY
W(PB)
SciTegic.value.DoubleValue
-45.225

@<SCITEGIC>MOL_PROPERTY
W(SA)
SciTegic.value.DoubleValue
5.970

@<SCITEGIC>MOL_PROPERTY
Valence
SciTegic.value.DoubleValue
154.599

@<SCITEGIC>MOL_PROPERTY
Coulomb
SciTegic.value.DoubleValue
154.797

@<SCITEGIC>MOL_PROPERTY
VdW
SciTegic.value.DoubleValue
-22.015

@<SCITEGIC>MOL_PROPERTY
VdW6
SciTegic.value.DoubleValue
-168.247

@<SCITEGIC>MOL_PROPERTY
VdW12
SciTegic.value.DoubleValue
146.232

@<SCITEGIC>MOL_PROPERTY
Bond
SciTegic.value.DoubleValue
4.574

@<SCITEGIC>MOL_PROPERTY
Angle
SciTegic.value.DoubleValue
11.822

@<SCITEGIC>MOL_PROPERTY
Pdih
SciTegic.value.DoubleValue
138.202

@<SCITEGIC>MOL_PROPERTY
Idih
SciTegic.value.DoubleValue
0.000

@<SCITEGIC>MOL_PROPERTY
Tether
SciTegic.value.DoubleValue
0.000

@<TRIPOS>MOLECULE
CD_guest-s16_fast_vm2_rndm.mol2 : feprocess host+ligand conformer 92
         139         145           2
SMALL
USER_CHARGES
 
@<TRIPOS>ATOM
       1    C1      16.193280   15.175503   21.214977 C.3        1 MOL1         0.2972
       2    H1      15.145269   14.959980   20.970091 H          1 MOL1         0.0751
       3    O1      16.402579   16.586410   21.424220 O.3        1 MOL1        -0.3740
       4    C2      16.582257   14.443918   22.524674 C.3        1 MOL1         0.1003
       5    H2      16.418555   13.369845   22.367577 H          1 MOL1         0.0783
       6    O2      15.757235   14.898599   23.608679 O.3        1 MOL1        -0.5519
       7    H3      15.508374   15.830008   23.396981 H          1 MOL1         0.3769
       8    C3      18.078043   14.658007   22.857821 C.3        1 MOL1         0.1053
       9    H4      18.225307   15.719683   23.099102 H          1 MOL1         0.0783
      10    O3      18.444351   13.851566   23.982528 O.3        1 MOL1        -0.5519
      11    H5      17.724257   13.986355   24.638285 H          1 MOL1         0.3769
      12    C4      18.970134   14.309378   21.642857 C.3        1 MOL1         0.1018
      13    H6      18.952661   13.222392   21.488872 H          1 MOL1         0.0783
      14    C5      18.478048   15.025035   20.354887 C.3        1 MOL1         0.1043
      15    H7      18.602784   16.104097   20.501703 H          1 MOL1         0.0783
      16    O4      17.071124   14.732140   20.155852 O.3        1 MOL1        -0.3740
      17    C6      19.248684   14.654711   19.061502 C.3        1 MOL1         0.0138
      18    H8      20.100711   15.338150   18.958328 H          1 MOL1         0.0794
      19    H9      18.593482   14.835675   18.199101 H          1 MOL1         0.0794
      20    O5      19.713333   13.300285   19.047329 O.3        1 MOL1        -0.5486
      21    H10     20.530667   13.274889   19.597702 H          1 MOL1         0.3769
      22    C7      15.001349   20.343100   20.294756 C.3        1 MOL1         0.2972
      23    H11     14.466059   21.186872   19.840470 H          1 MOL1         0.0751
      24    O6      16.160020   20.779465   21.030353 O.3        1 MOL1        -0.3740
      25    C8      14.083420   19.557062   21.266222 C.3        1 MOL1         0.1003
      26    H12     13.229852   19.186762   20.683707 H          1 MOL1         0.0783
      27    O7      13.603159   20.403097   22.323832 O.3        1 MOL1        -0.5519
      28    H13     14.391710   20.842426   22.732484 H          1 MOL1         0.3769
      29    C9      14.829248   18.333824   21.855076 C.3        1 MOL1         0.1053
      30    H14     15.620850   18.710054   22.516045 H          1 MOL1         0.0783
      31    O8      13.915480   17.533028   22.611882 O.3        1 MOL1        -0.5519
      32    H15     13.410825   18.170113   23.164733 H          1 MOL1         0.3769
      33    C10     15.489516   17.473101   20.746456 C.3        1 MOL1         0.1018
      34    H16     14.697015   16.925706   20.219567 H          1 MOL1         0.0783
      35    C11     16.286828   18.336831   19.724951 C.3        1 MOL1         0.1043
      36    H17     17.168614   18.746376   20.230484 H          1 MOL1         0.0783
      37    O9      15.446766   19.426753   19.271818 O.3        1 MOL1        -0.3740
      38    C12     16.808548   17.582788   18.475162 C.3        1 MOL1         0.0138
      39    H18     17.809825   17.194126   18.695902 H          1 MOL1         0.0794
      40    H19     16.928239   18.306146   17.657672 H          1 MOL1         0.0794
      41    O10     15.953629   16.512242   18.058587 O.3        1 MOL1        -0.5486
      42    H20     16.148266   15.748665   18.650410 H          1 MOL1         0.3769
      43    C13     18.414930   24.070959   21.999081 C.3        1 MOL1         0.2972
      44    H21     18.821969   25.063381   22.231915 H          1 MOL1         0.0751
      45    O11     19.452004   23.070442   21.941923 O.3        1 MOL1        -0.3740
      46    C14     17.397053   23.659730   23.089103 C.3        1 MOL1         0.1003
      47    H22     16.584634   24.398022   23.081125 H          1 MOL1         0.0783
      48    O12     18.024738   23.654231   24.381454 O.3        1 MOL1        -0.5519
      49    H23     18.993914   23.529125   24.229245 H          1 MOL1         0.3769
      50    C15     16.788967   22.273743   22.777930 C.3        1 MOL1         0.1053
      51    H24     17.584424   21.530402   22.903406 H          1 MOL1         0.0783
      52    O13     15.728564   21.995213   23.698277 O.3        1 MOL1        -0.5519
      53    H25     16.095466   22.219983   24.582370 H          1 MOL1         0.3769
      54    C16     16.257075   22.185346   21.324799 C.3        1 MOL1         0.1018
      55    H26     15.280161   22.685034   21.280145 H          1 MOL1         0.0783
      56    C17     17.227996   22.801887   20.276203 C.3        1 MOL1         0.1043
      57    H27     18.068701   22.106987   20.158300 H          1 MOL1         0.0783
      58    O14     17.734712   24.084046   20.728115 O.3        1 MOL1        -0.3740
      59    C18     16.596262   22.994432   18.876677 C.3        1 MOL1         0.0138
      60    H28     16.457381   22.006846   18.416472 H          1 MOL1         0.0794
      61    H29     17.303389   23.550177   18.246191 H          1 MOL1         0.0794
      62    O15     15.340760   23.681793   18.941641 O.3        1 MOL1        -0.5486
      63    H30     15.040496   23.842248   18.020409 H          1 MOL1         0.3769
      64    C19     23.604314   22.768420   21.531806 C.3        1 MOL1         0.2972
      65    H31     24.665497   22.999925   21.373643 H          1 MOL1         0.0751
      66    O16     23.396126   21.355701   21.713739 O.3        1 MOL1        -0.3740
      67    C20     23.098071   23.477570   22.813783 C.3        1 MOL1         0.1003
      68    H32     23.249743   24.556539   22.679860 H          1 MOL1         0.0783
      69    O17     23.845561   23.029052   23.955194 O.3        1 MOL1        -0.5519
      70    H33     24.127948   22.103653   23.758139 H          1 MOL1         0.3769
      71    C21     21.585360   23.227314   23.026896 C.3        1 MOL1         0.1053
      72    H34     21.440346   22.161324   23.247171 H          1 MOL1         0.0783
      73    O18     21.114669   24.014600   24.125849 O.3        1 MOL1        -0.5519
      74    H35     21.784536   23.888741   24.834550 H          1 MOL1         0.3769
      75    C22     20.787310   23.573650   21.747900 C.3        1 MOL1         0.1018
      76    H36     20.804164   24.662965   21.610696 H          1 MOL1         0.0783
      77    C23     21.391191   22.894788   20.488071 C.3        1 MOL1         0.1043
      78    H37     21.264965   21.811141   20.594498 H          1 MOL1         0.0783
      79    O19     22.806250   23.206709   20.408826 O.3        1 MOL1        -0.3740
      80    C24     20.721772   23.297770   19.147900 C.3        1 MOL1         0.0138
      81    H38     19.882389   22.617668   18.958259 H          1 MOL1         0.0794
      82    H39     21.443842   23.142364   18.335117 H          1 MOL1         0.0794
      83    O20     20.252670   24.650795   19.133001 O.3        1 MOL1        -0.5486
      84    H40     19.409100   24.669324   19.642503 H          1 MOL1         0.3769
      85    C25     24.906378   17.602697   20.759154 C.3        1 MOL1         0.2972
      86    H41     25.483896   16.754179   20.370254 H          1 MOL1         0.0751
      87    O21     23.677666   17.175650   21.378981 O.3        1 MOL1        -0.3740
      88    C26     25.719918   18.391433   21.817084 C.3        1 MOL1         0.1003
      89    H42     26.632979   18.753993   21.327341 H          1 MOL1         0.0783
      90    O22     26.077805   17.548370   22.924392 O.3        1 MOL1        -0.5519
      91    H43     25.251856   17.090309   23.224570 H          1 MOL1         0.3769
      92    C27     24.921198   19.621499   22.316104 C.3        1 MOL1         0.1053
      93    H44     24.063036   19.253274   22.892767 H          1 MOL1         0.0783
      94    O23     25.752178   20.426330   23.159151 O.3        1 MOL1        -0.5519
      95    H45     26.193694   19.792236   23.766771 H          1 MOL1         0.3769
      96    C28     24.380836   20.474922   21.139721 C.3        1 MOL1         0.1018
      97    H46     25.221206   21.025143   20.696676 H          1 MOL1         0.0783
      98    C29     23.693773   19.603967   20.047263 C.3        1 MOL1         0.1043
      99    H47     22.767429   19.190789   20.463933 H          1 MOL1         0.0783
     100    O24     24.577379   18.514628   19.689219 O.3        1 MOL1        -0.3740
     101    C30     23.301044   20.353953   18.748282 C.3        1 MOL1         0.0138
     102    H48     22.280011   20.736591   18.861165 H          1 MOL1         0.0794
     103    H49     23.274524   19.629629   17.923222 H          1 MOL1         0.0794
     104    O25     24.184913   21.432803   18.423933 O.3        1 MOL1        -0.5486
     105    H50     23.923351   22.194446   18.991605 H          1 MOL1         0.3769
     106    C31     21.340598   13.816248   22.009603 C.3        1 MOL1         0.2972
     107    H51     20.946556   12.802491   22.156677 H          1 MOL1         0.0751
     108    O26     20.286599   14.793873   21.959846 O.3        1 MOL1        -0.3740
     109    C32     22.272556   14.194953   23.185919 C.3        1 MOL1         0.1003
     110    H52     23.102855   13.476938   23.198707 H          1 MOL1         0.0783
     111    O27     21.557584   14.121397   24.430167 O.3        1 MOL1        -0.5519
     112    H53     20.604221   14.280923   24.221279 H          1 MOL1         0.3769
     113    C33     22.863220   15.610522   22.984931 C.3        1 MOL1         0.1053
     114    H54     22.041826   16.334442   23.061941 H          1 MOL1         0.0783
     115    O28     23.835758   15.873498   24.002383 O.3        1 MOL1        -0.5519
     116    H55     23.406680   15.592378   24.841202 H          1 MOL1         0.3769
     117    C34     23.511713   15.761166   21.587747 C.3        1 MOL1         0.1018
     118    H56     24.472543   15.229444   21.589670 H          1 MOL1         0.0783
     119    C35     22.600403   15.223298   20.448327 C.3        1 MOL1         0.1043
     120    H57     21.758235   15.919294   20.341715 H          1 MOL1         0.0783
     121    O29     22.093711   13.903842   20.782243 O.3        1 MOL1        -0.3740
     122    C36     23.304109   15.138854   19.072927 C.3        1 MOL1         0.0138
     123    H58     23.456343   16.159088   18.695728 H          1 MOL1         0.0794
     124    H59     22.634796   14.628337   18.367541 H          1 MOL1         0.0794
     125    O30     24.561281   14.455062   19.151032 O.3        1 MOL1        -0.5486
     126    H60     24.912935   14.373174   18.237829 H          1 MOL1         0.3769
     127    C1      19.743842   19.371998   23.598433 C.3        1 MOL1        -0.1693
     128    H1      19.658476   18.604383   24.378528 H          1 MOL1         0.0829
     129    H2      19.657993   20.360523   24.065225 H          1 MOL1         0.0829
     130    C2      18.850120   19.127894   22.340792 C.3        1 MOL1        -0.1768
     131    H3      17.894995   18.629807   22.527922 H          1 MOL1         0.0829
     132    H4      18.678057   20.013500   21.719432 H          1 MOL1         0.0829
     133    C3      20.002844   18.214023   21.838849 C.3        1 MOL1         0.1211
     134    H5      19.972026   17.201082   22.252555 H          1 MOL1         0.0786
     135    C4      20.943997   19.177345   22.618707 C.3        1 MOL1        -0.1768
     136    H6      21.224488   20.079634   22.070804 H          1 MOL1         0.0829
     137    H7      21.844059   18.724337   23.044992 H          1 MOL1         0.0829
     138    O1      20.176168   18.183260   20.440736 O.3        1 MOL1        -0.5515
     139    H8      20.137921   19.107851   20.135418 H          1 MOL1         0.3773
@<TRIPOS>BOND
    1     1     2    1
    2     1     3    1
    3     1     4    1
    4     4     5    1
    5     4     6    1
    6     6     7    1
    7     4     8    1
    8     8     9    1
    9     8    10    1
   10    10    11    1
   11     8    12    1
   12    12    13    1
   13    12    14    1
   14    14    15    1
   15     1    16    1
   16    14    16    1
   17    14    17    1
   18    17    18    1
   19    17    19    1
   20    17    20    1
   21    20    21    1
   22    22    23    1
   23    22    24    1
   24    22    25    1
   25    25    26    1
   26    25    27    1
   27    27    28    1
   28    25    29    1
   29    29    30    1
   30    29    31    1
   31    31    32    1
   32     3    33    1
   33    29    33    1
   34    33    34    1
   35    33    35    1
   36    35    36    1
   37    22    37    1
   38    35    37    1
   39    35    38    1
   40    38    39    1
   41    38    40    1
   42    38    41    1
   43    41    42    1
   44    43    44    1
   45    43    45    1
   46    43    46    1
   47    46    47    1
   48    46    48    1
   49    48    49    1
   50    46    50    1
   51    50    51    1
   52    50    52    1
   53    52    53    1
   54    24    54    1
   55    50    54    1
   56    54    55    1
   57    54    56    1
   58    56    57    1
   59    43    58    1
   60    56    58    1
   61    56    59    1
   62    59    60    1
   63    59    61    1
   64    59    62    1
   65    62    63    1
   66    64    65    1
   67    64    66    1
   68    64    67    1
   69    67    68    1
   70    67    69    1
   71    69    70    1
   72    67    71    1
   73    71    72    1
   74    71    73    1
   75    73    74    1
   76    45    75    1
   77    71    75    1
   78    75    76    1
   79    75    77    1
   80    77    78    1
   81    64    79    1
   82    77    79    1
   83    77    80    1
   84    80    81    1
   85    80    82    1
   86    80    83    1
   87    83    84    1
   88    85    86    1
   89    85    87    1
   90    85    88    1
   91    88    89    1
   92    88    90    1
   93    90    91    1
   94    88    92    1
   95    92    93    1
   96    92    94    1
   97    94    95    1
   98    66    96    1
   99    92    96    1
  100    96    97    1
  101    96    98    1
  102    98    99    1
  103    85   100    1
  104    98   100    1
  105    98   101    1
  106   101   102    1
  107   101   103    1
  108   101   104    1
  109   104   105    1
  110   106   107    1
  111    12   108    1
  112   106   108    1
  113   106   109    1
  114   109   110    1
  115   109   111    1
  116   111   112    1
  117   109   113    1
  118   113   114    1
  119   113   115    1
  120   115   116    1
  121    87   117    1
  122   113   117    1
  123   117   118    1
  124   117   119    1
  125   119   120    1
  126   106   121    1
  127   119   121    1
  128   119   122    1
  129   122   123    1
  130   122   124    1
  131   122   125    1
  132   125   126    1
  133   127   128    1
  134   127   129    1
  135   127   130    1
  136   130   131    1
  137   130   132    1
  138   130   133    1
  139   133   134    1
  140   127   135    1
  141   133   135    1
  142   135   136    1
  143   135   137    1
  144   133   138    1
  145   138   139    1
@<TRIPOS>SUBSTRUCTURE
       1 MOL1            1 RESIDUE      1      MOL     
       2 MOL1          139 RESIDUE      1      MOL     
@<SCITEGIC>MOL_PROPERTY
feprocess Rank
SciTegic.value.IntegerValue
92

@<SCITEGIC>MOL_PROPERTY
Conf_Id
SciTegic.value.IntegerValue
679

@<SCITEGIC>MOL_PROPERTY
Probability
SciTegic.value.DoubleValue
0.03

@<SCITEGIC>MOL_PROPERTY
G
SciTegic.value.DoubleValue
548.820

@<SCITEGIC>MOL_PROPERTY
E
SciTegic.value.DoubleValue
371.080

@<SCITEGIC>MOL_PROPERTY
-TS
SciTegic.value.DoubleValue
177.740

@<SCITEGIC>MOL_PROPERTY
U+W
SciTegic.value.DoubleValue
248.569

@<SCITEGIC>MOL_PROPERTY
U
SciTegic.value.DoubleValue
285.344

@<SCITEGIC>MOL_PROPERTY
W
SciTegic.value.DoubleValue
-36.775

@<SCITEGIC>MOL_PROPERTY
W(PB)
SciTegic.value.DoubleValue
-42.658

@<SCITEGIC>MOL_PROPERTY
W(SA)
SciTegic.value.DoubleValue
5.882

@<SCITEGIC>MOL_PROPERTY
Valence
SciTegic.value.DoubleValue
155.159

@<SCITEGIC>MOL_PROPERTY
Coulomb
SciTegic.value.DoubleValue
154.105

@<SCITEGIC>MOL_PROPERTY
VdW
SciTegic.value.DoubleValue
-23.921

@<SCITEGIC>MOL_PROPERTY
VdW6
SciTegic.value.DoubleValue
-170.800

@<SCITEGIC>MOL_PROPERTY
VdW12
SciTegic.value.DoubleValue
146.880

@<SCITEGIC>MOL_PROPERTY
Bond
SciTegic.value.DoubleValue
4.503

@<SCITEGIC>MOL_PROPERTY
Angle
SciTegic.value.DoubleValue
11.440

@<SCITEGIC>MOL_PROPERTY
Pdih
SciTegic.value.DoubleValue
139.216

@<SCITEGIC>MOL_PROPERTY
Idih
SciTegic.value.DoubleValue
0.000

@<SCITEGIC>MOL_PROPERTY
Tether
SciTegic.value.DoubleValue
0.000

@<TRIPOS>MOLECULE
CD_guest-s16_fast_vm2_rndm.mol2 : feprocess host+ligand conformer 93
         139         145           2
SMALL
USER_CHARGES
 
@<TRIPOS>ATOM
       1    C1      16.068533   15.032958   21.125511 C.3        1 MOL1         0.2972
       2    H1      15.015811   14.804121   20.916462 H          1 MOL1         0.0751
       3    O1      16.231789   16.380615   21.605547 O.3        1 MOL1        -0.3740
       4    C2      16.602904   14.100893   22.241848 C.3        1 MOL1         0.1003
       5    H2      16.500763   13.066045   21.889977 H          1 MOL1         0.0783
       6    O2      15.832930   14.277555   23.441606 O.3        1 MOL1        -0.5519
       7    H3      15.620461   15.240934   23.497365 H          1 MOL1         0.3769
       8    C3      18.102688   14.370042   22.524581 C.3        1 MOL1         0.1053
       9    H4      18.192324   15.367838   22.973477 H          1 MOL1         0.0783
      10    O3      18.592223   13.385062   23.440887 O.3        1 MOL1        -0.5519
      11    H5      17.886629   13.299494   24.121557 H          1 MOL1         0.3769
      12    C4      18.928664   14.353316   21.212211 C.3        1 MOL1         0.1018
      13    H6      19.006533   13.318808   20.853126 H          1 MOL1         0.0783
      14    C5      18.277523   15.223031   20.104132 C.3        1 MOL1         0.1043
      15    H7      18.328414   16.271517   20.418076 H          1 MOL1         0.0783
      16    O4      16.885822   14.846658   19.947344 O.3        1 MOL1        -0.3740
      17    C6      18.996037   15.135826   18.732973 C.3        1 MOL1         0.0138
      18    H8      19.833210   15.846267   18.739266 H          1 MOL1         0.0794
      19    H9      18.302269   15.465686   17.948707 H          1 MOL1         0.0794
      20    O5      19.486667   13.822479   18.436765 O.3        1 MOL1        -0.5486
      21    H10     20.236856   13.648224   19.047669 H          1 MOL1         0.3769
      22    C7      14.690176   20.249451   21.193288 C.3        1 MOL1         0.2972
      23    H11     14.020739   21.096391   20.995866 H          1 MOL1         0.0751
      24    O6      16.005276   20.700069   21.578594 O.3        1 MOL1        -0.3740
      25    C8      14.116040   19.398474   22.352652 C.3        1 MOL1         0.1003
      26    H12     13.107793   19.077438   22.060358 H          1 MOL1         0.0783
      27    O7      14.036642   20.187264   23.550587 O.3        1 MOL1        -0.5519
      28    H13     14.775601   20.841433   23.503898 H          1 MOL1         0.3769
      29    C9      14.969251   18.130746   22.595567 C.3        1 MOL1         0.1053
      30    H14     15.944654   18.450403   22.987643 H          1 MOL1         0.0783
      31    O8      14.314221   17.290422   23.552804 O.3        1 MOL1        -0.5519
      32    H15     14.052089   17.892514   24.284124 H          1 MOL1         0.3769
      33    C10     15.212320   17.345710   21.282250 C.3        1 MOL1         0.1018
      34    H16     14.272528   16.865839   20.979319 H          1 MOL1         0.0783
      35    C11     15.721933   18.289728   20.154515 C.3        1 MOL1         0.1043
      36    H17     16.710083   18.661194   20.451527 H          1 MOL1         0.0783
      37    O9      14.810837   19.411067   20.024787 O.3        1 MOL1        -0.3740
      38    C12     15.881741   17.645290   18.754647 C.3        1 MOL1         0.0138
      39    H18     16.893610   17.229925   18.678294 H          1 MOL1         0.0794
      40    H19     15.809625   18.435388   17.995607 H          1 MOL1         0.0794
      41    O10     14.915331   16.624055   18.487042 O.3        1 MOL1        -0.5486
      42    H20     15.307353   15.781843   18.811215 H          1 MOL1         0.3769
      43    C13     18.606312   23.942957   20.968826 C.3        1 MOL1         0.2972
      44    H21     19.023131   24.909345   20.657145 H          1 MOL1         0.0751
      45    O11     19.618955   23.082409   21.521995 O.3        1 MOL1        -0.3740
      46    C14     17.505925   24.139030   22.044653 C.3        1 MOL1         0.1003
      47    H22     16.738599   24.793850   21.611757 H          1 MOL1         0.0783
      48    O12     18.045762   24.758407   23.224101 O.3        1 MOL1        -0.5519
      49    H23     18.864011   24.257926   23.472095 H          1 MOL1         0.3769
      50    C15     16.833312   22.791208   22.408104 C.3        1 MOL1         0.1053
      51    H24     17.572787   22.175068   22.936250 H          1 MOL1         0.0783
      52    O13     15.709373   23.033344   23.261737 O.3        1 MOL1        -0.5519
      53    H25     16.034085   23.663656   23.942443 H          1 MOL1         0.3769
      54    C16     16.376155   22.024809   21.140976 C.3        1 MOL1         0.1018
      55    H26     15.525320   22.564322   20.704687 H          1 MOL1         0.0783
      56    C17     17.517757   21.932421   20.087065 C.3        1 MOL1         0.1043
      57    H27     18.324459   21.311150   20.494175 H          1 MOL1         0.0783
      58    O14     18.020110   23.267431   19.835595 O.3        1 MOL1        -0.3740
      59    C18     17.120874   21.311164   18.724821 C.3        1 MOL1         0.0138
      60    H28     17.236981   20.223252   18.793499 H          1 MOL1         0.0794
      61    H29     17.834327   21.655804   17.964675 H          1 MOL1         0.0794
      62    O15     15.784204   21.631614   18.323784 O.3        1 MOL1        -0.5486
      63    H30     15.196021   20.980256   18.771229 H          1 MOL1         0.3769
      64    C19     23.683334   22.752808   22.054642 C.3        1 MOL1         0.2972
      65    H31     24.762081   22.885820   22.208735 H          1 MOL1         0.0751
      66    O16     23.350410   21.370943   21.822608 O.3        1 MOL1        -0.3740
      67    C20     22.911662   23.227328   23.309226 C.3        1 MOL1         0.1003
      68    H32     23.119904   24.296618   23.444954 H          1 MOL1         0.0783
      69    O17     23.355682   22.502810   24.466900 O.3        1 MOL1        -0.5519
      70    H33     23.695852   21.636341   24.140253 H          1 MOL1         0.3769
      71    C21     21.387395   23.054300   23.114952 C.3        1 MOL1         0.1053
      72    H34     21.171539   21.979076   23.086840 H          1 MOL1         0.0783
      73    O18     20.689988   23.651515   24.213585 O.3        1 MOL1        -0.5519
      74    H35     21.153035   23.323710   25.016415 H          1 MOL1         0.3769
      75    C22     20.900699   23.684543   21.786968 C.3        1 MOL1         0.1018
      76    H36     20.824147   24.770986   21.927791 H          1 MOL1         0.0783
      77    C23     21.824910   23.361438   20.576275 C.3        1 MOL1         0.1043
      78    H37     21.645940   22.316528   20.300483 H          1 MOL1         0.0783
      79    O19     23.224651   23.523768   20.925356 O.3        1 MOL1        -0.3740
      80    C24     21.537356   24.218697   19.320271 C.3        1 MOL1         0.0138
      81    H38     20.580897   23.896723   18.887064 H          1 MOL1         0.0794
      82    H39     22.315800   24.017087   18.572084 H          1 MOL1         0.0794
      83    O20     21.488781   25.618319   19.622882 O.3        1 MOL1        -0.5486
      84    H40     21.387864   26.103494   18.774941 H          1 MOL1         0.3769
      85    C25     24.917276   17.727927   20.611074 C.3        1 MOL1         0.2972
      86    H41     25.510397   16.906428   20.189026 H          1 MOL1         0.0751
      87    O21     23.602898   17.280688   21.010079 O.3        1 MOL1        -0.3740
      88    C26     25.639987   18.381208   21.820944 C.3        1 MOL1         0.1003
      89    H42     26.579405   18.805591   21.443310 H          1 MOL1         0.0783
      90    O22     25.946418   17.425819   22.846997 O.3        1 MOL1        -0.5519
      91    H43     25.084425   17.062486   23.172418 H          1 MOL1         0.3769
      92    C27     24.790948   19.543176   22.391576 C.3        1 MOL1         0.1053
      93    H44     23.871494   19.115983   22.813196 H          1 MOL1         0.0783
      94    O23     25.521839   20.218975   23.419951 O.3        1 MOL1        -0.5519
      95    H45     25.914870   19.505199   23.969788 H          1 MOL1         0.3769
      96    C28     24.398617   20.548130   21.278118 C.3        1 MOL1         0.1018
      97    H46     25.288015   21.134485   21.012562 H          1 MOL1         0.0783
      98    C29     23.847598   19.844974   20.002633 C.3        1 MOL1         0.1043
      99    H47     22.862700   19.424583   20.238206 H          1 MOL1         0.0783
     100    O24     24.740601   18.767806   19.623703 O.3        1 MOL1        -0.3740
     101    C30     23.651702   20.773252   18.774353 C.3        1 MOL1         0.0138
     102    H48     22.618749   21.140904   18.774777 H          1 MOL1         0.0794
     103    H49     23.767594   20.172889   17.862075 H          1 MOL1         0.0794
     104    O25     24.557017   21.883522   18.745675 O.3        1 MOL1        -0.5486
     105    H50     24.265019   22.516067   19.443269 H          1 MOL1         0.3769
     106    C31     21.260352   13.988238   21.838017 C.3        1 MOL1         0.2972
     107    H51     20.847737   12.998395   22.072403 H          1 MOL1         0.0751
     108    O26     20.224817   14.922473   21.476819 O.3        1 MOL1        -0.3740
     109    C32     22.030419   14.545324   23.060520 C.3        1 MOL1         0.1003
     110    H52     22.848491   13.845647   23.276036 H          1 MOL1         0.0783
     111    O27     21.176835   14.645545   24.212487 O.3        1 MOL1        -0.5519
     112    H53     20.311772   14.233183   23.969834 H          1 MOL1         0.3769
     113    C33     22.647821   15.925047   22.740023 C.3        1 MOL1         0.1053
     114    H54     21.825945   16.638726   22.617155 H          1 MOL1         0.0783
     115    O28     23.469702   16.332590   23.837323 O.3        1 MOL1        -0.5519
     116    H55     22.923108   16.150733   24.635107 H          1 MOL1         0.3769
     117    C34     23.467391   15.905719   21.424120 C.3        1 MOL1         0.1018
     118    H56     24.439843   15.435373   21.621383 H          1 MOL1         0.0783
     119    C35     22.736978   15.159161   20.269163 C.3        1 MOL1         0.1043
     120    H57     21.917043   15.798582   19.919075 H          1 MOL1         0.0783
     121    O29     22.184108   13.900658   20.733259 O.3        1 MOL1        -0.3740
     122    C36     23.643034   14.875935   19.047215 C.3        1 MOL1         0.0138
     123    H58     23.851147   15.827763   18.539993 H          1 MOL1         0.0794
     124    H59     23.089832   14.243858   18.339584 H          1 MOL1         0.0794
     125    O30     24.874488   14.245859   19.421493 O.3        1 MOL1        -0.5486
     126    H60     25.357836   14.022138   18.596227 H          1 MOL1         0.3769
     127    C1      19.383475   19.574586   22.810684 C.3        1 MOL1        -0.1693
     128    H1      19.523167   19.840590   23.864648 H          1 MOL1         0.0829
     129    H2      18.578386   20.189333   22.398589 H          1 MOL1         0.0829
     130    C2      19.242685   18.053161   22.497367 C.3        1 MOL1        -0.1768
     131    H3      19.768125   17.395630   23.198964 H          1 MOL1         0.0829
     132    H4      18.218705   17.694699   22.385758 H          1 MOL1         0.0829
     133    C3      20.015080   18.338384   21.170581 C.3        1 MOL1         0.1211
     134    H5      20.708720   17.545579   20.868374 H          1 MOL1         0.0786
     135    C4      20.678032   19.518291   21.939048 C.3        1 MOL1        -0.1768
     136    H6      20.885776   20.410826   21.343429 H          1 MOL1         0.0829
     137    H7      21.580903   19.241491   22.494115 H          1 MOL1         0.0829
     138    O1      19.222623   18.722300   20.064639 O.3        1 MOL1        -0.5515
     139    H8      19.831288   19.063063   19.381852 H          1 MOL1         0.3773
@<TRIPOS>BOND
    1     1     2    1
    2     1     3    1
    3     1     4    1
    4     4     5    1
    5     4     6    1
    6     6     7    1
    7     4     8    1
    8     8     9    1
    9     8    10    1
   10    10    11    1
   11     8    12    1
   12    12    13    1
   13    12    14    1
   14    14    15    1
   15     1    16    1
   16    14    16    1
   17    14    17    1
   18    17    18    1
   19    17    19    1
   20    17    20    1
   21    20    21    1
   22    22    23    1
   23    22    24    1
   24    22    25    1
   25    25    26    1
   26    25    27    1
   27    27    28    1
   28    25    29    1
   29    29    30    1
   30    29    31    1
   31    31    32    1
   32     3    33    1
   33    29    33    1
   34    33    34    1
   35    33    35    1
   36    35    36    1
   37    22    37    1
   38    35    37    1
   39    35    38    1
   40    38    39    1
   41    38    40    1
   42    38    41    1
   43    41    42    1
   44    43    44    1
   45    43    45    1
   46    43    46    1
   47    46    47    1
   48    46    48    1
   49    48    49    1
   50    46    50    1
   51    50    51    1
   52    50    52    1
   53    52    53    1
   54    24    54    1
   55    50    54    1
   56    54    55    1
   57    54    56    1
   58    56    57    1
   59    43    58    1
   60    56    58    1
   61    56    59    1
   62    59    60    1
   63    59    61    1
   64    59    62    1
   65    62    63    1
   66    64    65    1
   67    64    66    1
   68    64    67    1
   69    67    68    1
   70    67    69    1
   71    69    70    1
   72    67    71    1
   73    71    72    1
   74    71    73    1
   75    73    74    1
   76    45    75    1
   77    71    75    1
   78    75    76    1
   79    75    77    1
   80    77    78    1
   81    64    79    1
   82    77    79    1
   83    77    80    1
   84    80    81    1
   85    80    82    1
   86    80    83    1
   87    83    84    1
   88    85    86    1
   89    85    87    1
   90    85    88    1
   91    88    89    1
   92    88    90    1
   93    90    91    1
   94    88    92    1
   95    92    93    1
   96    92    94    1
   97    94    95    1
   98    66    96    1
   99    92    96    1
  100    96    97    1
  101    96    98    1
  102    98    99    1
  103    85   100    1
  104    98   100    1
  105    98   101    1
  106   101   102    1
  107   101   103    1
  108   101   104    1
  109   104   105    1
  110   106   107    1
  111    12   108    1
  112   106   108    1
  113   106   109    1
  114   109   110    1
  115   109   111    1
  116   111   112    1
  117   109   113    1
  118   113   114    1
  119   113   115    1
  120   115   116    1
  121    87   117    1
  122   113   117    1
  123   117   118    1
  124   117   119    1
  125   119   120    1
  126   106   121    1
  127   119   121    1
  128   119   122    1
  129   122   123    1
  130   122   124    1
  131   122   125    1
  132   125   126    1
  133   127   128    1
  134   127   129    1
  135   127   130    1
  136   130   131    1
  137   130   132    1
  138   130   133    1
  139   133   134    1
  140   127   135    1
  141   133   135    1
  142   135   136    1
  143   135   137    1
  144   133   138    1
  145   138   139    1
@<TRIPOS>SUBSTRUCTURE
       1 MOL1            1 RESIDUE      1      MOL     
       2 MOL1          139 RESIDUE      1      MOL     
@<SCITEGIC>MOL_PROPERTY
feprocess Rank
SciTegic.value.IntegerValue
93

@<SCITEGIC>MOL_PROPERTY
Conf_Id
SciTegic.value.IntegerValue
433

@<SCITEGIC>MOL_PROPERTY
Probability
SciTegic.value.DoubleValue
0.03

@<SCITEGIC>MOL_PROPERTY
G
SciTegic.value.DoubleValue
548.822

@<SCITEGIC>MOL_PROPERTY
E
SciTegic.value.DoubleValue
370.146

@<SCITEGIC>MOL_PROPERTY
-TS
SciTegic.value.DoubleValue
178.677

@<SCITEGIC>MOL_PROPERTY
U+W
SciTegic.value.DoubleValue
247.634

@<SCITEGIC>MOL_PROPERTY
U
SciTegic.value.DoubleValue
285.018

@<SCITEGIC>MOL_PROPERTY
W
SciTegic.value.DoubleValue
-37.383

@<SCITEGIC>MOL_PROPERTY
W(PB)
SciTegic.value.DoubleValue
-43.338

@<SCITEGIC>MOL_PROPERTY
W(SA)
SciTegic.value.DoubleValue
5.955

@<SCITEGIC>MOL_PROPERTY
Valence
SciTegic.value.DoubleValue
154.378

@<SCITEGIC>MOL_PROPERTY
Coulomb
SciTegic.value.DoubleValue
153.984

@<SCITEGIC>MOL_PROPERTY
VdW
SciTegic.value.DoubleValue
-23.344

@<SCITEGIC>MOL_PROPERTY
VdW6
SciTegic.value.DoubleValue
-173.204

@<SCITEGIC>MOL_PROPERTY
VdW12
SciTegic.value.DoubleValue
149.861

@<SCITEGIC>MOL_PROPERTY
Bond
SciTegic.value.DoubleValue
4.615

@<SCITEGIC>MOL_PROPERTY
Angle
SciTegic.value.DoubleValue
11.865

@<SCITEGIC>MOL_PROPERTY
Pdih
SciTegic.value.DoubleValue
137.897

@<SCITEGIC>MOL_PROPERTY
Idih
SciTegic.value.DoubleValue
0.000

@<SCITEGIC>MOL_PROPERTY
Tether
SciTegic.value.DoubleValue
0.000

@<TRIPOS>MOLECULE
CD_guest-s16_fast_vm2_rndm.mol2 : feprocess host+ligand conformer 94
         139         145           2
SMALL
USER_CHARGES
 
@<TRIPOS>ATOM
       1    C1      16.070882   15.011581   21.539279 C.3        1 MOL1         0.2972
       2    H1      14.988637   14.838230   21.592698 H          1 MOL1         0.0751
       3    O1      16.399560   16.413381   21.613332 O.3        1 MOL1        -0.3740
       4    C2      16.795404   14.297629   22.707325 C.3        1 MOL1         0.1003
       5    H2      16.621143   13.219485   22.596042 H          1 MOL1         0.0783
       6    O2      16.279968   14.730865   23.976253 O.3        1 MOL1        -0.5519
       7    H3      16.084336   15.699163   23.901410 H          1 MOL1         0.3769
       8    C3      18.320726   14.546346   22.627655 C.3        1 MOL1         0.1053
       9    H4      18.499862   15.613007   22.811044 H          1 MOL1         0.0783
      10    O3      18.988059   13.769056   23.627575 O.3        1 MOL1        -0.5519
      11    H5      18.461176   13.904611   24.446645 H          1 MOL1         0.3769
      12    C4      18.882416   14.191768   21.228276 C.3        1 MOL1         0.1018
      13    H6      18.959197   13.098561   21.158376 H          1 MOL1         0.0783
      14    C5      18.009976   14.742728   20.062270 C.3        1 MOL1         0.1043
      15    H7      18.161706   15.827989   20.003102 H          1 MOL1         0.0783
      16    O4      16.606872   14.478448   20.310390 O.3        1 MOL1        -0.3740
      17    C6      18.377369   14.154812   18.678425 C.3        1 MOL1         0.0138
      18    H8      19.342331   14.575271   18.365009 H          1 MOL1         0.0794
      19    H9      17.626749   14.484889   17.947884 H          1 MOL1         0.0794
      20    O5      18.454677   12.723785   18.700615 O.3        1 MOL1        -0.5486
      21    H10     18.616569   12.420052   17.780783 H          1 MOL1         0.3769
      22    C7      14.891128   20.254696   21.492032 C.3        1 MOL1         0.2972
      23    H11     14.268976   21.158548   21.456074 H          1 MOL1         0.0751
      24    O6      16.292351   20.572712   21.392165 O.3        1 MOL1        -0.3740
      25    C8      14.655165   19.511675   22.828070 C.3        1 MOL1         0.1003
      26    H12     13.597244   19.220919   22.865561 H          1 MOL1         0.0783
      27    O7      14.953835   20.370171   23.940861 O.3        1 MOL1        -0.5519
      28    H13     15.466153   21.135357   23.581009 H          1 MOL1         0.3769
      29    C9      15.511021   18.227445   22.890268 C.3        1 MOL1         0.1053
      30    H14     16.563563   18.531416   22.920674 H          1 MOL1         0.0783
      31    O8      15.187760   17.492992   24.074648 O.3        1 MOL1        -0.5519
      32    H15     15.154837   18.169827   24.787566 H          1 MOL1         0.3769
      33    C10     15.299237   17.342678   21.637310 C.3        1 MOL1         0.1018
      34    H16     14.327452   16.838930   21.721564 H          1 MOL1         0.0783
      35    C11     15.361327   18.154809   20.313419 C.3        1 MOL1         0.1043
      36    H17     16.409028   18.430614   20.143247 H          1 MOL1         0.0783
      37    O9      14.560732   19.362618   20.407088 O.3        1 MOL1        -0.3740
      38    C12     14.888349   17.349873   19.079798 C.3        1 MOL1         0.0138
      39    H18     15.620461   16.556325   18.879399 H          1 MOL1         0.0794
      40    H19     14.881103   18.015662   18.206326 H          1 MOL1         0.0794
      41    O10     13.591126   16.774242   19.279097 O.3        1 MOL1        -0.5486
      42    H20     13.343638   16.304688   18.452995 H          1 MOL1         0.3769
      43    C13     18.712343   23.825362   20.338290 C.3        1 MOL1         0.2972
      44    H21     19.096908   24.748553   19.887788 H          1 MOL1         0.0751
      45    O11     19.755714   23.080233   20.992737 O.3        1 MOL1        -0.3740
      46    C14     17.585393   24.125224   21.365614 C.3        1 MOL1         0.1003
      47    H22     16.777221   24.627788   20.818429 H          1 MOL1         0.0783
      48    O12     18.039243   24.991733   22.416430 O.3        1 MOL1        -0.5519
      49    H23     18.787997   24.532241   22.874332 H          1 MOL1         0.3769
      50    C15     17.013631   22.808491   21.950077 C.3        1 MOL1         0.1053
      51    H24     17.803054   22.317124   22.535778 H          1 MOL1         0.0783
      52    O13     15.892111   23.099351   22.791229 O.3        1 MOL1        -0.5519
      53    H25     16.168691   23.874115   23.329930 H          1 MOL1         0.3769
      54    C16     16.588751   21.852984   20.807999 C.3        1 MOL1         0.1018
      55    H26     15.715411   22.280734   20.297836 H          1 MOL1         0.0783
      56    C17     17.724659   21.659257   19.769583 C.3        1 MOL1         0.1043
      57    H27     18.559749   21.144074   20.260783 H          1 MOL1         0.0783
      58    O14     18.156733   22.967582   19.314910 O.3        1 MOL1        -0.3740
      59    C18     17.332795   20.801180   18.538863 C.3        1 MOL1         0.0138
      60    H28     17.545586   19.750064   18.770725 H          1 MOL1         0.0794
      61    H29     17.984325   21.076822   17.699022 H          1 MOL1         0.0794
      62    O15     15.956286   20.941758   18.162972 O.3        1 MOL1        -0.5486
      63    H30     15.415749   20.506092   18.862623 H          1 MOL1         0.3769
      64    C19     23.592976   22.852920   22.268661 C.3        1 MOL1         0.2972
      65    H31     24.631241   22.957289   22.609305 H          1 MOL1         0.0751
      66    O16     23.254005   21.479644   21.984859 O.3        1 MOL1        -0.3740
      67    C20     22.628311   23.385990   23.351862 C.3        1 MOL1         0.1003
      68    H32     22.826670   24.458707   23.475087 H          1 MOL1         0.0783
      69    O17     22.842290   22.715938   24.604509 O.3        1 MOL1        -0.5519
      70    H33     23.336179   21.880723   24.410176 H          1 MOL1         0.3769
      71    C21     21.163395   23.217086   22.896501 C.3        1 MOL1         0.1053
      72    H34     20.947198   22.142795   22.874786 H          1 MOL1         0.0783
      73    O18     20.298793   23.852686   23.841995 O.3        1 MOL1        -0.5519
      74    H35     20.633682   23.563220   24.720510 H          1 MOL1         0.3769
      75    C22     20.913356   23.785583   21.474607 C.3        1 MOL1         0.1018
      76    H36     20.740694   24.866459   21.551415 H          1 MOL1         0.0783
      77    C23     22.059755   23.481685   20.461453 C.3        1 MOL1         0.1043
      78    H37     21.938604   22.443128   20.129080 H          1 MOL1         0.0783
      79    O19     23.369058   23.622536   21.071355 O.3        1 MOL1        -0.3740
      80    C24     22.017758   24.362409   19.189418 C.3        1 MOL1         0.0138
      81    H38     21.106623   24.125286   18.623744 H          1 MOL1         0.0794
      82    H39     22.870416   24.090124   18.553158 H          1 MOL1         0.0794
      83    O20     22.063159   25.764040   19.488207 O.3        1 MOL1        -0.5486
      84    H40     21.221656   26.017051   19.920762 H          1 MOL1         0.3769
      85    C25     25.017384   17.726526   21.617402 C.3        1 MOL1         0.2972
      86    H41     25.718131   16.890718   21.493786 H          1 MOL1         0.0751
      87    O21     23.651238   17.271207   21.666076 O.3        1 MOL1        -0.3740
      88    C26     25.303787   18.461549   22.950418 C.3        1 MOL1         0.1003
      89    H42     26.333048   18.840936   22.907435 H          1 MOL1         0.0783
      90    O22     25.175685   17.554376   24.056816 O.3        1 MOL1        -0.5519
      91    H43     24.566116   16.833586   23.763675 H          1 MOL1         0.3769
      92    C27     24.352037   19.669013   23.128560 C.3        1 MOL1         0.1053
      93    H44     23.332809   19.284243   23.263740 H          1 MOL1         0.0783
      94    O23     24.738687   20.418730   24.283874 O.3        1 MOL1        -0.5519
      95    H45     24.910648   19.743398   24.978181 H          1 MOL1         0.3769
      96    C28     24.369611   20.576172   21.874016 C.3        1 MOL1         0.1018
      97    H46     25.330636   21.106053   21.836767 H          1 MOL1         0.0783
      98    C29     24.189971   19.767138   20.560683 C.3        1 MOL1         0.1043
      99    H47     23.178005   19.350974   20.555492 H          1 MOL1         0.0783
     100    O24     25.142539   18.674088   20.531745 O.3        1 MOL1        -0.3740
     101    C30     24.328515   20.605945   19.263429 C.3        1 MOL1         0.0138
     102    H48     23.339944   21.006309   19.003782 H          1 MOL1         0.0794
     103    H49     24.625858   19.938759   18.443345 H          1 MOL1         0.0794
     104    O25     25.262278   21.685838   19.383934 O.3        1 MOL1        -0.5486
     105    H50     24.823550   22.391412   19.912781 H          1 MOL1         0.3769
     106    C31     21.225416   14.065838   20.525231 C.3        1 MOL1         0.2972
     107    H51     20.847100   13.139132   20.074678 H          1 MOL1         0.0751
     108    O26     20.171333   14.828205   21.143211 O.3        1 MOL1        -0.3740
     109    C32     22.284336   13.758293   21.616582 C.3        1 MOL1         0.1003
     110    H52     23.097700   13.198261   21.137210 H          1 MOL1         0.0783
     111    O27     21.720494   12.962585   22.672110 O.3        1 MOL1        -0.5519
     112    H53     20.861996   13.382651   22.933733 H          1 MOL1         0.3769
     113    C33     22.878469   15.069260   22.189785 C.3        1 MOL1         0.1053
     114    H54     22.083387   15.594369   22.737296 H          1 MOL1         0.0783
     115    O28     23.957049   14.763425   23.080102 O.3        1 MOL1        -0.5519
     116    H55     23.625428   14.027299   23.641198 H          1 MOL1         0.3769
     117    C34     23.377007   15.998250   21.055640 C.3        1 MOL1         0.1018
     118    H56     24.273991   15.553845   20.604427 H          1 MOL1         0.0783
     119    C35     22.292665   16.196757   19.959616 C.3        1 MOL1         0.1043
     120    H57     21.448565   16.741993   20.399429 H          1 MOL1         0.0783
     121    O29     21.843042   14.894088   19.515327 O.3        1 MOL1        -0.3740
     122    C36     22.749031   17.003665   18.716600 C.3        1 MOL1         0.0138
     123    H58     22.543588   18.066184   18.894904 H          1 MOL1         0.0794
     124    H59     22.128645   16.704898   17.861165 H          1 MOL1         0.0794
     125    O30     24.134969   16.825069   18.401562 O.3        1 MOL1        -0.5486
     126    H60     24.648452   17.364620   19.046925 H          1 MOL1         0.3769
     127    C1      19.414812   18.176510   23.471017 C.3        1 MOL1        -0.1693
     128    H1      20.072039   17.365983   23.813172 H          1 MOL1         0.0829
     129    H2      18.478164   18.125846   24.036972 H          1 MOL1         0.0829
     130    C2      19.287400   18.303691   21.915757 C.3        1 MOL1        -0.1768
     131    H3      18.435737   18.896614   21.564622 H          1 MOL1         0.0829
     132    H4      19.324677   17.371873   21.346529 H          1 MOL1         0.0829
     133    C3      20.623125   19.094653   22.008678 C.3        1 MOL1         0.1211
     134    H5      21.507882   18.452987   22.080997 H          1 MOL1         0.0786
     135    C4      20.094252   19.582776   23.389924 C.3        1 MOL1        -0.1768
     136    H6      19.393019   20.425346   23.341563 H          1 MOL1         0.0829
     137    H7      20.856572   19.797557   24.146716 H          1 MOL1         0.0829
     138    O1      20.811126   20.090812   21.033812 O.3        1 MOL1        -0.5515
     139    H8      21.509687   20.690130   21.372692 H          1 MOL1         0.3773
@<TRIPOS>BOND
    1     1     2    1
    2     1     3    1
    3     1     4    1
    4     4     5    1
    5     4     6    1
    6     6     7    1
    7     4     8    1
    8     8     9    1
    9     8    10    1
   10    10    11    1
   11     8    12    1
   12    12    13    1
   13    12    14    1
   14    14    15    1
   15     1    16    1
   16    14    16    1
   17    14    17    1
   18    17    18    1
   19    17    19    1
   20    17    20    1
   21    20    21    1
   22    22    23    1
   23    22    24    1
   24    22    25    1
   25    25    26    1
   26    25    27    1
   27    27    28    1
   28    25    29    1
   29    29    30    1
   30    29    31    1
   31    31    32    1
   32     3    33    1
   33    29    33    1
   34    33    34    1
   35    33    35    1
   36    35    36    1
   37    22    37    1
   38    35    37    1
   39    35    38    1
   40    38    39    1
   41    38    40    1
   42    38    41    1
   43    41    42    1
   44    43    44    1
   45    43    45    1
   46    43    46    1
   47    46    47    1
   48    46    48    1
   49    48    49    1
   50    46    50    1
   51    50    51    1
   52    50    52    1
   53    52    53    1
   54    24    54    1
   55    50    54    1
   56    54    55    1
   57    54    56    1
   58    56    57    1
   59    43    58    1
   60    56    58    1
   61    56    59    1
   62    59    60    1
   63    59    61    1
   64    59    62    1
   65    62    63    1
   66    64    65    1
   67    64    66    1
   68    64    67    1
   69    67    68    1
   70    67    69    1
   71    69    70    1
   72    67    71    1
   73    71    72    1
   74    71    73    1
   75    73    74    1
   76    45    75    1
   77    71    75    1
   78    75    76    1
   79    75    77    1
   80    77    78    1
   81    64    79    1
   82    77    79    1
   83    77    80    1
   84    80    81    1
   85    80    82    1
   86    80    83    1
   87    83    84    1
   88    85    86    1
   89    85    87    1
   90    85    88    1
   91    88    89    1
   92    88    90    1
   93    90    91    1
   94    88    92    1
   95    92    93    1
   96    92    94    1
   97    94    95    1
   98    66    96    1
   99    92    96    1
  100    96    97    1
  101    96    98    1
  102    98    99    1
  103    85   100    1
  104    98   100    1
  105    98   101    1
  106   101   102    1
  107   101   103    1
  108   101   104    1
  109   104   105    1
  110   106   107    1
  111    12   108    1
  112   106   108    1
  113   106   109    1
  114   109   110    1
  115   109   111    1
  116   111   112    1
  117   109   113    1
  118   113   114    1
  119   113   115    1
  120   115   116    1
  121    87   117    1
  122   113   117    1
  123   117   118    1
  124   117   119    1
  125   119   120    1
  126   106   121    1
  127   119   121    1
  128   119   122    1
  129   122   123    1
  130   122   124    1
  131   122   125    1
  132   125   126    1
  133   127   128    1
  134   127   129    1
  135   127   130    1
  136   130   131    1
  137   130   132    1
  138   130   133    1
  139   133   134    1
  140   127   135    1
  141   133   135    1
  142   135   136    1
  143   135   137    1
  144   133   138    1
  145   138   139    1
@<TRIPOS>SUBSTRUCTURE
       1 MOL1            1 RESIDUE      1      MOL     
       2 MOL1          139 RESIDUE      1      MOL     
@<SCITEGIC>MOL_PROPERTY
feprocess Rank
SciTegic.value.IntegerValue
94

@<SCITEGIC>MOL_PROPERTY
Conf_Id
SciTegic.value.IntegerValue
812

@<SCITEGIC>MOL_PROPERTY
Probability
SciTegic.value.DoubleValue
0.03

@<SCITEGIC>MOL_PROPERTY
G
SciTegic.value.DoubleValue
548.838

@<SCITEGIC>MOL_PROPERTY
E
SciTegic.value.DoubleValue
370.519

@<SCITEGIC>MOL_PROPERTY
-TS
SciTegic.value.DoubleValue
178.319

@<SCITEGIC>MOL_PROPERTY
U+W
SciTegic.value.DoubleValue
248.008

@<SCITEGIC>MOL_PROPERTY
U
SciTegic.value.DoubleValue
284.519

@<SCITEGIC>MOL_PROPERTY
W
SciTegic.value.DoubleValue
-36.511

@<SCITEGIC>MOL_PROPERTY
W(PB)
SciTegic.value.DoubleValue
-42.438

@<SCITEGIC>MOL_PROPERTY
W(SA)
SciTegic.value.DoubleValue
5.927

@<SCITEGIC>MOL_PROPERTY
Valence
SciTegic.value.DoubleValue
154.871

@<SCITEGIC>MOL_PROPERTY
Coulomb
SciTegic.value.DoubleValue
152.449

@<SCITEGIC>MOL_PROPERTY
VdW
SciTegic.value.DoubleValue
-22.801

@<SCITEGIC>MOL_PROPERTY
VdW6
SciTegic.value.DoubleValue
-170.414

@<SCITEGIC>MOL_PROPERTY
VdW12
SciTegic.value.DoubleValue
147.613

@<SCITEGIC>MOL_PROPERTY
Bond
SciTegic.value.DoubleValue
4.556

@<SCITEGIC>MOL_PROPERTY
Angle
SciTegic.value.DoubleValue
12.272

@<SCITEGIC>MOL_PROPERTY
Pdih
SciTegic.value.DoubleValue
138.043

@<SCITEGIC>MOL_PROPERTY
Idih
SciTegic.value.DoubleValue
0.000

@<SCITEGIC>MOL_PROPERTY
Tether
SciTegic.value.DoubleValue
0.000

@<TRIPOS>MOLECULE
CD_guest-s16_fast_vm2_rndm.mol2 : feprocess host+ligand conformer 95
         139         145           2
SMALL
USER_CHARGES
 
@<TRIPOS>ATOM
       1    C1      16.341315   15.439239   20.092596 C.3        1 MOL1         0.2972
       2    H1      15.368827   15.337344   19.594071 H          1 MOL1         0.0751
       3    O1      16.498212   16.749103   20.677912 O.3        1 MOL1        -0.3740
       4    C2      16.542955   14.340383   21.175003 C.3        1 MOL1         0.1003
       5    H2      16.538025   13.374756   20.652721 H          1 MOL1         0.0783
       6    O2      15.490416   14.334759   22.149739 O.3        1 MOL1        -0.5519
       7    H3      15.542337   15.195918   22.635411 H          1 MOL1         0.3769
       8    C3      17.925383   14.499923   21.856052 C.3        1 MOL1         0.1053
       9    H4      17.934997   15.455516   22.397735 H          1 MOL1         0.0783
      10    O3      18.146330   13.422106   22.771938 O.3        1 MOL1        -0.5519
      11    H5      17.294777   13.312304   23.251184 H          1 MOL1         0.3769
      12    C4      19.050728   14.529234   20.792113 C.3        1 MOL1         0.1018
      13    H6      19.155850   13.522713   20.366022 H          1 MOL1         0.0783
      14    C5      18.747997   15.532571   19.645114 C.3        1 MOL1         0.1043
      15    H7      18.790494   16.549298   20.055242 H          1 MOL1         0.0783
      16    O4      17.413356   15.278682   19.133501 O.3        1 MOL1        -0.3740
      17    C6      19.759595   15.487554   18.469639 C.3        1 MOL1         0.0138
      18    H8      20.563311   16.204691   18.678370 H          1 MOL1         0.0794
      19    H9      19.254286   15.836302   17.559152 H          1 MOL1         0.0794
      20    O5      20.323981   14.187832   18.252587 O.3        1 MOL1        -0.5486
      21    H10     20.924461   13.998626   19.010719 H          1 MOL1         0.3769
      22    C7      14.811667   20.194954   22.098813 C.3        1 MOL1         0.2972
      23    H11     14.187109   21.010395   22.486183 H          1 MOL1         0.0751
      24    O6      16.136733   20.658735   21.777746 O.3        1 MOL1        -0.3740
      25    C8      14.914912   19.067173   23.154071 C.3        1 MOL1         0.1003
      26    H12     13.897206   18.703201   23.345624 H          1 MOL1         0.0783
      27    O7      15.483311   19.559774   24.376606 O.3        1 MOL1        -0.5519
      28    H13     16.372704   19.923951   24.143369 H          1 MOL1         0.3769
      29    C9      15.760417   17.885287   22.633731 C.3        1 MOL1         0.1053
      30    H14     16.796733   18.227204   22.563762 H          1 MOL1         0.0783
      31    O8      15.684029   16.810951   23.574895 O.3        1 MOL1        -0.5519
      32    H15     15.787477   17.238076   24.454900 H          1 MOL1         0.3769
      33    C10     15.336799   17.410906   21.220843 C.3        1 MOL1         0.1018
      34    H16     14.471768   16.740172   21.305742 H          1 MOL1         0.0783
      35    C11     15.020927   18.588909   20.253195 C.3        1 MOL1         0.1043
      36    H17     15.980662   19.016970   19.943005 H          1 MOL1         0.0783
      37    O9      14.237831   19.626697   20.901498 O.3        1 MOL1        -0.3740
      38    C12     14.286741   18.146766   18.965284 C.3        1 MOL1         0.0138
      39    H18     14.984287   17.562519   18.350019 H          1 MOL1         0.0794
      40    H19     14.015692   19.042070   18.389637 H          1 MOL1         0.0794
      41    O10     13.120167   17.365863   19.251334 O.3        1 MOL1        -0.5486
      42    H20     12.664887   17.186273   18.399714 H          1 MOL1         0.3769
      43    C13     18.366703   24.104587   21.237508 C.3        1 MOL1         0.2972
      44    H21     18.738719   25.110918   21.006567 H          1 MOL1         0.0751
      45    O11     19.436663   23.218872   21.626649 O.3        1 MOL1        -0.3740
      46    C14     17.366147   24.176303   22.415097 C.3        1 MOL1         0.1003
      47    H22     16.544456   24.836554   22.108435 H          1 MOL1         0.0783
      48    O12     18.009589   24.726168   23.576240 O.3        1 MOL1        -0.5519
      49    H23     18.954060   24.435119   23.543272 H          1 MOL1         0.3769
      50    C15     16.764961   22.785395   22.736321 C.3        1 MOL1         0.1053
      51    H24     17.552632   22.169695   23.188912 H          1 MOL1         0.0783
      52    O13     15.689808   22.953721   23.664880 O.3        1 MOL1        -0.5519
      53    H25     16.062170   23.492480   24.396762 H          1 MOL1         0.3769
      54    C16     16.256167   22.060418   21.461441 C.3        1 MOL1         0.1018
      55    H26     15.292902   22.498448   21.169416 H          1 MOL1         0.0783
      56    C17     17.248319   22.165309   20.269516 C.3        1 MOL1         0.1043
      57    H27     18.120858   21.549509   20.508164 H          1 MOL1         0.0783
      58    O14     17.681193   23.537455   20.100408 O.3        1 MOL1        -0.3740
      59    C18     16.693539   21.642883   18.917815 C.3        1 MOL1         0.0138
      60    H28     16.959329   20.583068   18.821021 H          1 MOL1         0.0794
      61    H29     17.204622   22.169593   18.100787 H          1 MOL1         0.0794
      62    O15     15.274517   21.796305   18.786855 O.3        1 MOL1        -0.5486
      63    H30     14.851031   21.208554   19.454147 H          1 MOL1         0.3769
      64    C19     23.583552   22.734989   21.115605 C.3        1 MOL1         0.2972
      65    H31     24.626852   22.924631   20.832477 H          1 MOL1         0.0751
      66    O16     23.414726   21.410553   21.660874 O.3        1 MOL1        -0.3740
      67    C20     23.134563   23.738840   22.209664 C.3        1 MOL1         0.1003
      68    H32     23.293053   24.750818   21.814935 H          1 MOL1         0.0783
      69    O17     23.921013   23.562970   23.399758 O.3        1 MOL1        -0.5519
      70    H33     24.081341   22.591636   23.495678 H          1 MOL1         0.3769
      71    C21     21.626329   23.582323   22.533965 C.3        1 MOL1         0.1053
      72    H34     21.481257   22.609691   23.023917 H          1 MOL1         0.0783
      73    O18     21.211308   24.633955   23.412515 O.3        1 MOL1        -0.5519
      74    H35     21.899954   24.669562   24.113112 H          1 MOL1         0.3769
      75    C22     20.770552   23.605939   21.243674 C.3        1 MOL1         0.1018
      76    H36     20.800415   24.619810   20.823200 H          1 MOL1         0.0783
      77    C23     21.316589   22.594473   20.199457 C.3        1 MOL1         0.1043
      78    H37     21.222851   21.583600   20.613855 H          1 MOL1         0.0783
      79    O19     22.714488   22.886616   19.971782 O.3        1 MOL1        -0.3740
      80    C24     20.593617   22.597473   18.828424 C.3        1 MOL1         0.0138
      81    H38     19.735201   21.917337   18.883423 H          1 MOL1         0.0794
      82    H39     21.276390   22.184261   18.074171 H          1 MOL1         0.0794
      83    O20     20.150350   23.897808   18.426199 O.3        1 MOL1        -0.5486
      84    H40     19.277918   24.044991   18.858524 H          1 MOL1         0.3769
      85    C25     25.098238   17.604783   21.526495 C.3        1 MOL1         0.2972
      86    H41     25.764087   16.740292   21.407641 H          1 MOL1         0.0751
      87    O21     23.736474   17.201738   21.769966 O.3        1 MOL1        -0.3740
      88    C26     25.554242   18.487978   22.715337 C.3        1 MOL1         0.1003
      89    H42     26.576253   18.827034   22.501810 H          1 MOL1         0.0783
      90    O22     25.549464   17.737327   23.940902 O.3        1 MOL1        -0.5519
      91    H43     24.704429   17.220770   23.968701 H          1 MOL1         0.3769
      92    C27     24.651972   19.739561   22.846228 C.3        1 MOL1         0.1053
      93    H44     23.655410   19.399929   23.152622 H          1 MOL1         0.0783
      94    O23     25.185632   20.617126   23.843957 O.3        1 MOL1        -0.5519
      95    H45     25.404111   20.035987   24.606066 H          1 MOL1         0.3769
      96    C28     24.522200   20.498547   21.500447 C.3        1 MOL1         0.1018
      97    H46     25.465631   21.030886   21.321903 H          1 MOL1         0.0783
      98    C29     24.219870   19.546383   20.306409 C.3        1 MOL1         0.1043
      99    H47     23.187262   19.185832   20.403539 H          1 MOL1         0.0783
     100    O24     25.125639   18.416533   20.335794 O.3        1 MOL1        -0.3740
     101    C30     24.356209   20.210533   18.914771 C.3        1 MOL1         0.0138
     102    H48     23.491327   20.863475   18.748333 H          1 MOL1         0.0794
     103    H49     24.315265   19.425047   18.148367 H          1 MOL1         0.0794
     104    O25     25.570005   20.962666   18.788297 O.3        1 MOL1        -0.5486
     105    H50     25.597648   21.331287   17.878724 H          1 MOL1         0.3769
     106    C31     21.220730   13.930684   21.723946 C.3        1 MOL1         0.2972
     107    H51     20.754871   12.936649   21.737033 H          1 MOL1         0.0751
     108    O26     20.255362   14.962475   21.447881 O.3        1 MOL1        -0.3740
     109    C32     21.867337   14.224695   23.099108 C.3        1 MOL1         0.1003
     110    H52     22.640287   13.464301   23.270802 H          1 MOL1         0.0783
     111    O27     20.882675   14.147272   24.142649 O.3        1 MOL1        -0.5519
     112    H53     19.998838   14.147066   23.700804 H          1 MOL1         0.3769
     113    C33     22.549110   15.612409   23.101113 C.3        1 MOL1         0.1053
     114    H54     21.763281   16.372495   23.031955 H          1 MOL1         0.0783
     115    O28     23.275318   15.790384   24.321644 O.3        1 MOL1        -0.5519
     116    H55     22.653633   15.505150   25.028022 H          1 MOL1         0.3769
     117    C34     23.503143   15.784338   21.893715 C.3        1 MOL1         0.1018
     118    H56     24.426894   15.230370   22.107086 H          1 MOL1         0.0783
     119    C35     22.886800   15.295233   20.550886 C.3        1 MOL1         0.1043
     120    H57     22.134000   16.030745   20.244625 H          1 MOL1         0.0783
     121    O29     22.246814   14.002318   20.712544 O.3        1 MOL1        -0.3740
     122    C36     23.915011   15.186571   19.399468 C.3        1 MOL1         0.0138
     123    H58     24.211893   16.200003   19.098321 H          1 MOL1         0.0794
     124    H59     23.424945   14.721267   18.533630 H          1 MOL1         0.0794
     125    O30     25.073262   14.433690   19.780585 O.3        1 MOL1        -0.5486
     126    H60     25.650197   14.354373   18.989829 H          1 MOL1         0.3769
     127    C1      20.082521   18.138802   22.009731 C.3        1 MOL1        -0.1693
     128    H1      20.745431   17.644779   21.291758 H          1 MOL1         0.0829
     129    H2      19.501921   17.373462   22.539307 H          1 MOL1         0.0829
     130    C2      19.242483   19.325103   21.445968 C.3        1 MOL1        -0.1768
     131    H3      19.732878   19.866738   20.630892 H          1 MOL1         0.0829
     132    H4      18.222602   19.086665   21.132881 H          1 MOL1         0.0829
     133    C3      19.406773   19.984231   22.853912 C.3        1 MOL1         0.1211
     134    H5      19.509937   21.073437   22.847134 H          1 MOL1         0.0786
     135    C4      20.755204   19.209903   22.927797 C.3        1 MOL1        -0.1768
     136    H6      21.588690   19.739739   22.459348 H          1 MOL1         0.0829
     137    H7      21.066976   18.872171   23.922307 H          1 MOL1         0.0829
     138    O1      18.459088   19.601612   23.826663 O.3        1 MOL1        -0.5515
     139    H8      18.589252   18.642872   23.962448 H          1 MOL1         0.3773
@<TRIPOS>BOND
    1     1     2    1
    2     1     3    1
    3     1     4    1
    4     4     5    1
    5     4     6    1
    6     6     7    1
    7     4     8    1
    8     8     9    1
    9     8    10    1
   10    10    11    1
   11     8    12    1
   12    12    13    1
   13    12    14    1
   14    14    15    1
   15     1    16    1
   16    14    16    1
   17    14    17    1
   18    17    18    1
   19    17    19    1
   20    17    20    1
   21    20    21    1
   22    22    23    1
   23    22    24    1
   24    22    25    1
   25    25    26    1
   26    25    27    1
   27    27    28    1
   28    25    29    1
   29    29    30    1
   30    29    31    1
   31    31    32    1
   32     3    33    1
   33    29    33    1
   34    33    34    1
   35    33    35    1
   36    35    36    1
   37    22    37    1
   38    35    37    1
   39    35    38    1
   40    38    39    1
   41    38    40    1
   42    38    41    1
   43    41    42    1
   44    43    44    1
   45    43    45    1
   46    43    46    1
   47    46    47    1
   48    46    48    1
   49    48    49    1
   50    46    50    1
   51    50    51    1
   52    50    52    1
   53    52    53    1
   54    24    54    1
   55    50    54    1
   56    54    55    1
   57    54    56    1
   58    56    57    1
   59    43    58    1
   60    56    58    1
   61    56    59    1
   62    59    60    1
   63    59    61    1
   64    59    62    1
   65    62    63    1
   66    64    65    1
   67    64    66    1
   68    64    67    1
   69    67    68    1
   70    67    69    1
   71    69    70    1
   72    67    71    1
   73    71    72    1
   74    71    73    1
   75    73    74    1
   76    45    75    1
   77    71    75    1
   78    75    76    1
   79    75    77    1
   80    77    78    1
   81    64    79    1
   82    77    79    1
   83    77    80    1
   84    80    81    1
   85    80    82    1
   86    80    83    1
   87    83    84    1
   88    85    86    1
   89    85    87    1
   90    85    88    1
   91    88    89    1
   92    88    90    1
   93    90    91    1
   94    88    92    1
   95    92    93    1
   96    92    94    1
   97    94    95    1
   98    66    96    1
   99    92    96    1
  100    96    97    1
  101    96    98    1
  102    98    99    1
  103    85   100    1
  104    98   100    1
  105    98   101    1
  106   101   102    1
  107   101   103    1
  108   101   104    1
  109   104   105    1
  110   106   107    1
  111    12   108    1
  112   106   108    1
  113   106   109    1
  114   109   110    1
  115   109   111    1
  116   111   112    1
  117   109   113    1
  118   113   114    1
  119   113   115    1
  120   115   116    1
  121    87   117    1
  122   113   117    1
  123   117   118    1
  124   117   119    1
  125   119   120    1
  126   106   121    1
  127   119   121    1
  128   119   122    1
  129   122   123    1
  130   122   124    1
  131   122   125    1
  132   125   126    1
  133   127   128    1
  134   127   129    1
  135   127   130    1
  136   130   131    1
  137   130   132    1
  138   130   133    1
  139   133   134    1
  140   127   135    1
  141   133   135    1
  142   135   136    1
  143   135   137    1
  144   133   138    1
  145   138   139    1
@<TRIPOS>SUBSTRUCTURE
       1 MOL1            1 RESIDUE      1      MOL     
       2 MOL1          139 RESIDUE      1      MOL     
@<SCITEGIC>MOL_PROPERTY
feprocess Rank
SciTegic.value.IntegerValue
95

@<SCITEGIC>MOL_PROPERTY
Conf_Id
SciTegic.value.IntegerValue
805

@<SCITEGIC>MOL_PROPERTY
Probability
SciTegic.value.DoubleValue
0.03

@<SCITEGIC>MOL_PROPERTY
G
SciTegic.value.DoubleValue
548.841

@<SCITEGIC>MOL_PROPERTY
E
SciTegic.value.DoubleValue
370.103

@<SCITEGIC>MOL_PROPERTY
-TS
SciTegic.value.DoubleValue
178.738

@<SCITEGIC>MOL_PROPERTY
U+W
SciTegic.value.DoubleValue
247.592

@<SCITEGIC>MOL_PROPERTY
U
SciTegic.value.DoubleValue
286.718

@<SCITEGIC>MOL_PROPERTY
W
SciTegic.value.DoubleValue
-39.127

@<SCITEGIC>MOL_PROPERTY
W(PB)
SciTegic.value.DoubleValue
-45.114

@<SCITEGIC>MOL_PROPERTY
W(SA)
SciTegic.value.DoubleValue
5.987

@<SCITEGIC>MOL_PROPERTY
Valence
SciTegic.value.DoubleValue
153.901

@<SCITEGIC>MOL_PROPERTY
Coulomb
SciTegic.value.DoubleValue
155.282

@<SCITEGIC>MOL_PROPERTY
VdW
SciTegic.value.DoubleValue
-22.464

@<SCITEGIC>MOL_PROPERTY
VdW6
SciTegic.value.DoubleValue
-170.913

@<SCITEGIC>MOL_PROPERTY
VdW12
SciTegic.value.DoubleValue
148.449

@<SCITEGIC>MOL_PROPERTY
Bond
SciTegic.value.DoubleValue
4.626

@<SCITEGIC>MOL_PROPERTY
Angle
SciTegic.value.DoubleValue
12.162

@<SCITEGIC>MOL_PROPERTY
Pdih
SciTegic.value.DoubleValue
137.113

@<SCITEGIC>MOL_PROPERTY
Idih
SciTegic.value.DoubleValue
0.000

@<SCITEGIC>MOL_PROPERTY
Tether
SciTegic.value.DoubleValue
0.000

@<TRIPOS>MOLECULE
CD_guest-s16_fast_vm2_rndm.mol2 : feprocess host+ligand conformer 96
         139         145           2
SMALL
USER_CHARGES
 
@<TRIPOS>ATOM
       1    C1      16.301705   15.424844   20.491585 C.3        1 MOL1         0.2972
       2    H1      15.285922   15.366890   20.079985 H          1 MOL1         0.0751
       3    O1      16.549671   16.703417   21.109072 O.3        1 MOL1        -0.3740
       4    C2      16.538375   14.304305   21.538692 C.3        1 MOL1         0.1003
       5    H2      16.368737   13.346016   21.030797 H          1 MOL1         0.0783
       6    O2      15.626026   14.416984   22.642857 O.3        1 MOL1        -0.5519
       7    H3      15.715295   15.333465   23.008792 H          1 MOL1         0.3769
       8    C3      18.000746   14.318967   22.047411 C.3        1 MOL1         0.1053
       9    H4      18.144782   15.233778   22.637359 H          1 MOL1         0.0783
      10    O3      18.229411   13.172277   22.874064 O.3        1 MOL1        -0.5519
      11    H5      17.454777   13.130779   23.477585 H          1 MOL1         0.3769
      12    C4      19.016429   14.333081   20.876168 C.3        1 MOL1         0.1018
      13    H6      19.013503   13.340589   20.406793 H          1 MOL1         0.0783
      14    C5      18.657137   15.417182   19.816362 C.3        1 MOL1         0.1043
      15    H7      18.797937   16.405274   20.271450 H          1 MOL1         0.0783
      16    O4      17.269199   15.254868   19.435816 O.3        1 MOL1        -0.3740
      17    C6      19.498358   15.399524   18.515105 C.3        1 MOL1         0.0138
      18    H8      20.369720   16.049469   18.653518 H          1 MOL1         0.0794
      19    H9      18.901236   15.848022   17.709898 H          1 MOL1         0.0794
      20    O5      19.925766   14.087981   18.132426 O.3        1 MOL1        -0.5486
      21    H10     20.757252   13.910311   18.629064 H          1 MOL1         0.3769
      22    C7      14.782606   20.302755   21.996629 C.3        1 MOL1         0.2972
      23    H11     14.132665   21.155434   22.232933 H          1 MOL1         0.0751
      24    O6      16.141723   20.715454   21.764049 O.3        1 MOL1        -0.3740
      25    C8      14.783729   19.295767   23.170414 C.3        1 MOL1         0.1003
      26    H12     13.759806   18.917612   23.287788 H          1 MOL1         0.0783
      27    O7      15.198256   19.941055   24.385517 O.3        1 MOL1        -0.5519
      28    H13     15.609106   20.801870   24.127239 H          1 MOL1         0.3769
      29    C9      15.708771   18.099356   22.852262 C.3        1 MOL1         0.1053
      30    H14     16.738982   18.473919   22.826900 H          1 MOL1         0.0783
      31    O8      15.585015   17.109735   23.878507 O.3        1 MOL1        -0.5519
      32    H15     15.640787   17.613482   24.721233 H          1 MOL1         0.3769
      33    C10     15.385995   17.471782   21.473103 C.3        1 MOL1         0.1018
      34    H16     14.492412   16.842138   21.579631 H          1 MOL1         0.0783
      35    C11     15.166859   18.529274   20.350851 C.3        1 MOL1         0.1043
      36    H17     16.150727   18.931376   20.082499 H          1 MOL1         0.0783
      37    O9      14.324028   19.616228   20.814385 O.3        1 MOL1        -0.3740
      38    C12     14.546556   17.951902   19.056062 C.3        1 MOL1         0.0138
      39    H18     15.300234   17.330937   18.553258 H          1 MOL1         0.0794
      40    H19     14.308691   18.784144   18.379823 H          1 MOL1         0.0794
      41    O10     13.372679   17.174352   19.321013 O.3        1 MOL1        -0.5486
      42    H20     12.983466   16.917664   18.456552 H          1 MOL1         0.3769
      43    C13     18.422592   24.132071   21.141647 C.3        1 MOL1         0.2972
      44    H21     18.773696   25.140470   20.887869 H          1 MOL1         0.0751
      45    O11     19.516165   23.273392   21.523839 O.3        1 MOL1        -0.3740
      46    C14     17.450475   24.203625   22.346342 C.3        1 MOL1         0.1003
      47    H22     16.605511   24.842461   22.058179 H          1 MOL1         0.0783
      48    O12     18.116656   24.773135   23.483959 O.3        1 MOL1        -0.5519
      49    H23     19.058707   24.482530   23.429162 H          1 MOL1         0.3769
      50    C15     16.899504   22.799800   22.692989 C.3        1 MOL1         0.1053
      51    H24     17.733942   22.198492   23.073742 H          1 MOL1         0.0783
      52    O13     15.889250   22.906506   23.701015 O.3        1 MOL1        -0.5519
      53    H25     16.257791   23.528696   24.367519 H          1 MOL1         0.3769
      54    C16     16.327015   22.101600   21.434915 C.3        1 MOL1         0.1018
      55    H26     15.384655   22.590416   21.154196 H          1 MOL1         0.0783
      56    C17     17.308079   22.158801   20.234218 C.3        1 MOL1         0.1043
      57    H27     18.184159   21.546932   20.484316 H          1 MOL1         0.0783
      58    O14     17.727003   23.531069   20.026785 O.3        1 MOL1        -0.3740
      59    C18     16.733614   21.601239   18.904427 C.3        1 MOL1         0.0138
      60    H28     16.993313   20.537553   18.834338 H          1 MOL1         0.0794
      61    H29     17.236157   22.102745   18.066669 H          1 MOL1         0.0794
      62    O15     15.313821   21.757945   18.786584 O.3        1 MOL1        -0.5486
      63    H30     14.895725   21.145259   19.435285 H          1 MOL1         0.3769
      64    C19     23.554728   22.540821   20.745187 C.3        1 MOL1         0.2972
      65    H31     24.591353   22.598017   20.389053 H          1 MOL1         0.0751
      66    O16     23.273064   21.271164   21.361856 O.3        1 MOL1        -0.3740
      67    C20     23.255862   23.662852   21.773488 C.3        1 MOL1         0.1003
      68    H32     23.440058   24.622201   21.272749 H          1 MOL1         0.0783
      69    O17     24.112733   23.558029   22.922170 O.3        1 MOL1        -0.5519
      70    H33     24.016093   22.638684   23.279119 H          1 MOL1         0.3769
      71    C21     21.770277   23.628215   22.209142 C.3        1 MOL1         0.1053
      72    H34     21.611039   22.710187   22.790813 H          1 MOL1         0.0783
      73    O18     21.484086   24.770758   23.023480 O.3        1 MOL1        -0.5519
      74    H35     22.227553   24.823631   23.664175 H          1 MOL1         0.3769
      75    C22     20.814416   23.598323   20.988771 C.3        1 MOL1         0.1018
      76    H36     20.828399   24.589000   20.515790 H          1 MOL1         0.0783
      77    C23     21.237871   22.516221   19.951105 C.3        1 MOL1         0.1043
      78    H37     21.084830   21.526679   20.401011 H          1 MOL1         0.0783
      79    O19     22.641340   22.697115   19.640037 O.3        1 MOL1        -0.3740
      80    C24     20.461924   22.521445   18.609820 C.3        1 MOL1         0.0138
      81    H38     19.595246   21.857535   18.705430 H          1 MOL1         0.0794
      82    H39     21.104852   22.082007   17.835553 H          1 MOL1         0.0794
      83    O20     20.034810   23.826692   18.205356 O.3        1 MOL1        -0.5486
      84    H40     19.193484   24.006130   18.685280 H          1 MOL1         0.3769
      85    C25     24.951418   17.636776   22.306689 C.3        1 MOL1         0.2972
      86    H41     25.598772   16.790104   22.570389 H          1 MOL1         0.0751
      87    O21     23.602854   17.206183   22.039578 O.3        1 MOL1        -0.3740
      88    C26     24.911435   18.648632   23.476026 C.3        1 MOL1         0.1003
      89    H42     25.934234   19.012918   23.638454 H          1 MOL1         0.0783
      90    O22     24.435264   18.009276   24.670826 O.3        1 MOL1        -0.5519
      91    H43     23.952274   17.199220   24.381839 H          1 MOL1         0.3769
      92    C27     24.018837   19.858382   23.119671 C.3        1 MOL1         0.1053
      93    H44     22.984829   19.502194   23.042758 H          1 MOL1         0.0783
      94    O23     24.114322   20.847060   24.150469 O.3        1 MOL1        -0.5519
      95    H45     24.019118   20.345678   24.990951 H          1 MOL1         0.3769
      96    C28     24.407187   20.478503   21.757049 C.3        1 MOL1         0.1018
      97    H46     25.312812   21.085424   21.890278 H          1 MOL1         0.0783
      98    C29     24.625221   19.410602   20.647325 C.3        1 MOL1         0.1043
      99    H47     23.636879   19.023960   20.372503 H          1 MOL1         0.0783
     100    O24     25.444371   18.315206   21.132900 O.3        1 MOL1        -0.3740
     101    C30     25.273361   19.969015   19.357791 C.3        1 MOL1         0.0138
     102    H48     24.537243   20.598935   18.840335 H          1 MOL1         0.0794
     103    H49     25.507796   19.129111   18.689946 H          1 MOL1         0.0794
     104    O25     26.455453   20.729401   19.635636 O.3        1 MOL1        -0.5486
     105    H50     26.860504   20.976182   18.775586 H          1 MOL1         0.3769
     106    C31     21.406619   13.806835   21.108443 C.3        1 MOL1         0.2972
     107    H51     21.074024   12.811704   20.786604 H          1 MOL1         0.0751
     108    O26     20.290718   14.642072   21.476035 O.3        1 MOL1        -0.3740
     109    C32     22.317904   13.676251   22.354399 C.3        1 MOL1         0.1003
     110    H52     23.177069   13.052229   22.075872 H          1 MOL1         0.0783
     111    O27     21.597697   13.049529   23.427186 O.3        1 MOL1        -0.5519
     112    H53     20.663144   13.359825   23.354035 H          1 MOL1         0.3769
     113    C33     22.850674   15.059005   22.801288 C.3        1 MOL1         0.1053
     114    H54     22.004653   15.635617   23.193277 H          1 MOL1         0.0783
     115    O28     23.826064   14.891710   23.834801 O.3        1 MOL1        -0.5519
     116    H55     23.430011   14.244610   24.460078 H          1 MOL1         0.3769
     117    C34     23.466322   15.838803   21.612634 C.3        1 MOL1         0.1018
     118    H56     24.434225   15.384979   21.361761 H          1 MOL1         0.0783
     119    C35     22.557731   15.826070   20.351911 C.3        1 MOL1         0.1043
     120    H57     21.665932   16.428485   20.567231 H          1 MOL1         0.0783
     121    O29     22.156701   14.462991   20.063594 O.3        1 MOL1        -0.3740
     122    C36     23.208206   16.425784   19.076395 C.3        1 MOL1         0.0138
     123    H58     22.955464   17.491671   19.024144 H          1 MOL1         0.0794
     124    H59     22.752356   15.953962   18.195752 H          1 MOL1         0.0794
     125    O30     24.631318   16.264005   19.030871 O.3        1 MOL1        -0.5486
     126    H60     25.017753   16.859726   19.714624 H          1 MOL1         0.3769
     127    C1      20.068082   18.852122   23.802358 C.3        1 MOL1        -0.1693
     128    H1      21.121946   18.941938   24.089739 H          1 MOL1         0.0829
     129    H2      19.473872   18.688286   24.709022 H          1 MOL1         0.0829
     130    C2      19.791278   17.870638   22.619815 C.3        1 MOL1        -0.1768
     131    H3      20.474112   17.024885   22.534872 H          1 MOL1         0.0829
     132    H4      18.764163   17.495778   22.572174 H          1 MOL1         0.0829
     133    C3      20.096241   19.076300   21.683546 C.3        1 MOL1         0.1211
     134    H5      21.164636   19.223643   21.476991 H          1 MOL1         0.0786
     135    C4      19.547423   19.965410   22.837977 C.3        1 MOL1        -0.1768
     136    H6      18.460308   20.085727   22.842900 H          1 MOL1         0.0829
     137    H7      20.013112   20.949964   22.944624 H          1 MOL1         0.0829
     138    O1      19.345547   19.106364   20.492449 O.3        1 MOL1        -0.5515
     139    H8      18.432602   18.862440   20.740053 H          1 MOL1         0.3773
@<TRIPOS>BOND
    1     1     2    1
    2     1     3    1
    3     1     4    1
    4     4     5    1
    5     4     6    1
    6     6     7    1
    7     4     8    1
    8     8     9    1
    9     8    10    1
   10    10    11    1
   11     8    12    1
   12    12    13    1
   13    12    14    1
   14    14    15    1
   15     1    16    1
   16    14    16    1
   17    14    17    1
   18    17    18    1
   19    17    19    1
   20    17    20    1
   21    20    21    1
   22    22    23    1
   23    22    24    1
   24    22    25    1
   25    25    26    1
   26    25    27    1
   27    27    28    1
   28    25    29    1
   29    29    30    1
   30    29    31    1
   31    31    32    1
   32     3    33    1
   33    29    33    1
   34    33    34    1
   35    33    35    1
   36    35    36    1
   37    22    37    1
   38    35    37    1
   39    35    38    1
   40    38    39    1
   41    38    40    1
   42    38    41    1
   43    41    42    1
   44    43    44    1
   45    43    45    1
   46    43    46    1
   47    46    47    1
   48    46    48    1
   49    48    49    1
   50    46    50    1
   51    50    51    1
   52    50    52    1
   53    52    53    1
   54    24    54    1
   55    50    54    1
   56    54    55    1
   57    54    56    1
   58    56    57    1
   59    43    58    1
   60    56    58    1
   61    56    59    1
   62    59    60    1
   63    59    61    1
   64    59    62    1
   65    62    63    1
   66    64    65    1
   67    64    66    1
   68    64    67    1
   69    67    68    1
   70    67    69    1
   71    69    70    1
   72    67    71    1
   73    71    72    1
   74    71    73    1
   75    73    74    1
   76    45    75    1
   77    71    75    1
   78    75    76    1
   79    75    77    1
   80    77    78    1
   81    64    79    1
   82    77    79    1
   83    77    80    1
   84    80    81    1
   85    80    82    1
   86    80    83    1
   87    83    84    1
   88    85    86    1
   89    85    87    1
   90    85    88    1
   91    88    89    1
   92    88    90    1
   93    90    91    1
   94    88    92    1
   95    92    93    1
   96    92    94    1
   97    94    95    1
   98    66    96    1
   99    92    96    1
  100    96    97    1
  101    96    98    1
  102    98    99    1
  103    85   100    1
  104    98   100    1
  105    98   101    1
  106   101   102    1
  107   101   103    1
  108   101   104    1
  109   104   105    1
  110   106   107    1
  111    12   108    1
  112   106   108    1
  113   106   109    1
  114   109   110    1
  115   109   111    1
  116   111   112    1
  117   109   113    1
  118   113   114    1
  119   113   115    1
  120   115   116    1
  121    87   117    1
  122   113   117    1
  123   117   118    1
  124   117   119    1
  125   119   120    1
  126   106   121    1
  127   119   121    1
  128   119   122    1
  129   122   123    1
  130   122   124    1
  131   122   125    1
  132   125   126    1
  133   127   128    1
  134   127   129    1
  135   127   130    1
  136   130   131    1
  137   130   132    1
  138   130   133    1
  139   133   134    1
  140   127   135    1
  141   133   135    1
  142   135   136    1
  143   135   137    1
  144   133   138    1
  145   138   139    1
@<TRIPOS>SUBSTRUCTURE
       1 MOL1            1 RESIDUE      1      MOL     
       2 MOL1          139 RESIDUE      1      MOL     
@<SCITEGIC>MOL_PROPERTY
feprocess Rank
SciTegic.value.IntegerValue
96

@<SCITEGIC>MOL_PROPERTY
Conf_Id
SciTegic.value.IntegerValue
164

@<SCITEGIC>MOL_PROPERTY
Probability
SciTegic.value.DoubleValue
0.03

@<SCITEGIC>MOL_PROPERTY
G
SciTegic.value.DoubleValue
548.846

@<SCITEGIC>MOL_PROPERTY
E
SciTegic.value.DoubleValue
371.629

@<SCITEGIC>MOL_PROPERTY
-TS
SciTegic.value.DoubleValue
177.217

@<SCITEGIC>MOL_PROPERTY
U+W
SciTegic.value.DoubleValue
249.118

@<SCITEGIC>MOL_PROPERTY
U
SciTegic.value.DoubleValue
283.805

@<SCITEGIC>MOL_PROPERTY
W
SciTegic.value.DoubleValue
-34.687

@<SCITEGIC>MOL_PROPERTY
W(PB)
SciTegic.value.DoubleValue
-40.602

@<SCITEGIC>MOL_PROPERTY
W(SA)
SciTegic.value.DoubleValue
5.914

@<SCITEGIC>MOL_PROPERTY
Valence
SciTegic.value.DoubleValue
154.233

@<SCITEGIC>MOL_PROPERTY
Coulomb
SciTegic.value.DoubleValue
153.209

@<SCITEGIC>MOL_PROPERTY
VdW
SciTegic.value.DoubleValue
-23.637

@<SCITEGIC>MOL_PROPERTY
VdW6
SciTegic.value.DoubleValue
-169.840

@<SCITEGIC>MOL_PROPERTY
VdW12
SciTegic.value.DoubleValue
146.203

@<SCITEGIC>MOL_PROPERTY
Bond
SciTegic.value.DoubleValue
4.437

@<SCITEGIC>MOL_PROPERTY
Angle
SciTegic.value.DoubleValue
11.636

@<SCITEGIC>MOL_PROPERTY
Pdih
SciTegic.value.DoubleValue
138.160

@<SCITEGIC>MOL_PROPERTY
Idih
SciTegic.value.DoubleValue
0.000

@<SCITEGIC>MOL_PROPERTY
Tether
SciTegic.value.DoubleValue
0.000

@<TRIPOS>MOLECULE
CD_guest-s16_fast_vm2_rndm.mol2 : feprocess host+ligand conformer 97
         139         145           2
SMALL
USER_CHARGES
 
@<TRIPOS>ATOM
       1    C1      16.299765   15.481828   20.362971 C.3        1 MOL1         0.2972
       2    H1      15.311448   15.380813   19.896111 H          1 MOL1         0.0751
       3    O1      16.437957   16.739645   21.049362 O.3        1 MOL1        -0.3740
       4    C2      16.553771   14.343134   21.387206 C.3        1 MOL1         0.1003
       5    H2      16.486769   13.392665   20.842094 H          1 MOL1         0.0783
       6    O2      15.570878   14.353732   22.435017 O.3        1 MOL1        -0.5519
       7    H3      15.547014   15.270318   22.810733 H          1 MOL1         0.3769
       8    C3      17.979208   14.451526   21.984533 C.3        1 MOL1         0.1053
       9    H4      18.028667   15.368039   22.588961 H          1 MOL1         0.0783
      10    O3      18.246580   13.312899   22.810114 O.3        1 MOL1        -0.5519
      11    H5      17.435427   13.192766   23.352602 H          1 MOL1         0.3769
      12    C4      19.044148   14.553344   20.864974 C.3        1 MOL1         0.1018
      13    H6      19.112252   13.583425   20.354753 H          1 MOL1         0.0783
      14    C5      18.684156   15.653925   19.828040 C.3        1 MOL1         0.1043
      15    H7      18.731936   16.630743   20.325988 H          1 MOL1         0.0783
      16    O4      17.334474   15.418266   19.356336 O.3        1 MOL1        -0.3740
      17    C6      19.624379   15.732657   18.597422 C.3        1 MOL1         0.0138
      18    H8      20.440659   16.428801   18.825782 H          1 MOL1         0.0794
      19    H9      19.065252   16.170816   17.759995 H          1 MOL1         0.0794
      20    O5      20.164684   14.462521   18.213708 O.3        1 MOL1        -0.5486
      21    H10     20.870430   14.240597   18.864886 H          1 MOL1         0.3769
      22    C7      14.587010   20.285082   21.898123 C.3        1 MOL1         0.2972
      23    H11     13.926814   21.137678   22.102458 H          1 MOL1         0.0751
      24    O6      15.970905   20.677876   21.837592 O.3        1 MOL1        -0.3740
      25    C8      14.447837   19.228209   23.018042 C.3        1 MOL1         0.1003
      26    H12     13.413641   18.860200   23.006117 H          1 MOL1         0.0783
      27    O7      14.733566   19.815092   24.297999 O.3        1 MOL1        -0.5519
      28    H13     15.371566   20.554564   24.139787 H          1 MOL1         0.3769
      29    C9      15.389822   18.032590   22.750406 C.3        1 MOL1         0.1053
      30    H14     16.420046   18.389584   22.864156 H          1 MOL1         0.0783
      31    O8      15.137235   16.998029   23.706539 O.3        1 MOL1        -0.5519
      32    H15     15.093057   17.460470   24.573210 H          1 MOL1         0.3769
      33    C10     15.228481   17.474716   21.313706 C.3        1 MOL1         0.1018
      34    H16     14.339154   16.830953   21.288464 H          1 MOL1         0.0783
      35    C11     15.126157   18.583412   20.223816 C.3        1 MOL1         0.1043
      36    H17     16.133398   18.991740   20.072375 H          1 MOL1         0.0783
      37    O9      14.244239   19.655955   20.647060 O.3        1 MOL1        -0.3740
      38    C12     14.638229   18.063820   18.850346 C.3        1 MOL1         0.0138
      39    H18     15.437097   17.457926   18.401838 H          1 MOL1         0.0794
      40    H19     14.472608   18.924742   18.188763 H          1 MOL1         0.0794
      41    O10     13.441108   17.284497   18.962176 O.3        1 MOL1        -0.5486
      42    H20     13.144750   17.060702   18.052912 H          1 MOL1         0.3769
      43    C13     18.461675   23.968168   21.383204 C.3        1 MOL1         0.2972
      44    H21     18.872156   24.974797   21.231086 H          1 MOL1         0.0751
      45    O11     19.505172   22.979279   21.483541 O.3        1 MOL1        -0.3740
      46    C14     17.645466   23.929759   22.698767 C.3        1 MOL1         0.1003
      47    H22     16.829579   24.658356   22.606321 H          1 MOL1         0.0783
      48    O12     18.476987   24.285082   23.815053 O.3        1 MOL1        -0.5519
      49    H23     19.411461   24.112512   23.540948 H          1 MOL1         0.3769
      50    C15     17.020208   22.531943   22.912076 C.3        1 MOL1         0.1053
      51    H24     17.836924   21.818568   23.081304 H          1 MOL1         0.0783
      52    O13     16.156721   22.555243   24.053408 O.3        1 MOL1        -0.5519
      53    H25     16.665968   23.032874   24.745848 H          1 MOL1         0.3769
      54    C16     16.232539   22.079359   21.659295 C.3        1 MOL1         0.1018
      55    H26     15.310963   22.671992   21.589837 H          1 MOL1         0.0783
      56    C17     17.059647   22.246875   20.353964 C.3        1 MOL1         0.1043
      57    H27     17.890201   21.533363   20.390481 H          1 MOL1         0.0783
      58    O14     17.593742   23.594427   20.288898 O.3        1 MOL1        -0.3740
      59    C18     16.282180   21.951719   19.044664 C.3        1 MOL1         0.0138
      60    H28     16.387313   20.884920   18.810758 H          1 MOL1         0.0794
      61    H29     16.757205   22.503872   18.222657 H          1 MOL1         0.0794
      62    O15     14.892024   22.286044   19.122489 O.3        1 MOL1        -0.5486
      63    H30     14.447189   21.546739   19.597560 H          1 MOL1         0.3769
      64    C19     23.554648   22.467140   20.542776 C.3        1 MOL1         0.2972
      65    H31     24.562704   22.587403   20.125494 H          1 MOL1         0.0751
      66    O16     23.401742   21.200585   21.205772 O.3        1 MOL1        -0.3740
      67    C20     23.232189   23.587588   21.568985 C.3        1 MOL1         0.1003
      68    H32     23.312332   24.546245   21.040300 H          1 MOL1         0.0783
      69    O17     24.161213   23.577253   22.664887 O.3        1 MOL1        -0.5519
      70    H33     24.164932   22.660242   23.040328 H          1 MOL1         0.3769
      71    C21     21.779984   23.451901   22.093842 C.3        1 MOL1         0.1053
      72    H34     21.712341   22.527624   22.684519 H          1 MOL1         0.0783
      73    O18     21.456130   24.578503   22.915974 O.3        1 MOL1        -0.5519
      74    H35     22.237644   24.703471   23.499346 H          1 MOL1         0.3769
      75    C22     20.776412   23.348487   20.919659 C.3        1 MOL1         0.1018
      76    H36     20.733872   24.318805   20.407471 H          1 MOL1         0.0783
      77    C23     21.201703   22.257208   19.900436 C.3        1 MOL1         0.1043
      78    H37     21.150863   21.279304   20.396393 H          1 MOL1         0.0783
      79    O19     22.566177   22.525024   19.489301 O.3        1 MOL1        -0.3740
      80    C24     20.312449   22.162922   18.633955 C.3        1 MOL1         0.0138
      81    H38     19.490324   21.466256   18.838881 H          1 MOL1         0.0794
      82    H39     20.906447   21.719013   17.824047 H          1 MOL1         0.0794
      83    O20     19.780322   23.426733   18.218186 O.3        1 MOL1        -0.5486
      84    H40     19.053410   23.653538   18.843735 H          1 MOL1         0.3769
      85    C25     25.148113   17.657488   22.157041 C.3        1 MOL1         0.2972
      86    H41     25.774478   16.791851   22.408087 H          1 MOL1         0.0751
      87    O21     23.768896   17.285192   21.955142 O.3        1 MOL1        -0.3740
      88    C26     25.209906   18.698493   23.298338 C.3        1 MOL1         0.1003
      89    H42     26.246820   19.051381   23.372608 H          1 MOL1         0.0783
      90    O22     24.816369   18.108400   24.547781 O.3        1 MOL1        -0.5519
      91    H43     24.250557   17.324247   24.336894 H          1 MOL1         0.3769
      92    C27     24.312267   19.910272   22.968334 C.3        1 MOL1         0.1053
      93    H44     23.271151   19.567354   22.991570 H          1 MOL1         0.0783
      94    O23     24.497483   20.928734   23.956541 O.3        1 MOL1        -0.5519
      95    H45     24.464653   20.453416   24.816798 H          1 MOL1         0.3769
      96    C28     24.597467   20.484343   21.557605 C.3        1 MOL1         0.1018
      97    H46     25.473344   21.143874   21.617724 H          1 MOL1         0.0783
      98    C29     24.807266   19.394566   20.462032 C.3        1 MOL1         0.1043
      99    H47     23.819747   19.006075   20.185555 H          1 MOL1         0.0783
     100    O24     25.618819   18.295736   20.953444 O.3        1 MOL1        -0.3740
     101    C30     25.450686   19.935376   19.163182 C.3        1 MOL1         0.0138
     102    H48     24.715746   20.567627   18.646837 H          1 MOL1         0.0794
     103    H49     25.670837   19.086569   18.501838 H          1 MOL1         0.0794
     104    O25     26.642807   20.686711   19.422820 O.3        1 MOL1        -0.5486
     105    H50     27.038553   20.926979   18.556579 H          1 MOL1         0.3769
     106    C31     21.341557   13.943422   21.439430 C.3        1 MOL1         0.2972
     107    H51     20.952330   12.929933   21.277195 H          1 MOL1         0.0751
     108    O26     20.279199   14.914760   21.507432 O.3        1 MOL1        -0.3740
     109    C32     22.109784   14.002798   22.783223 C.3        1 MOL1         0.1003
     110    H52     22.939942   13.286895   22.724387 H          1 MOL1         0.0783
     111    O27     21.242758   13.639308   23.869333 O.3        1 MOL1        -0.5519
     112    H53     20.318483   13.811029   23.564175 H          1 MOL1         0.3769
     113    C33     22.704718   15.412429   23.014720 C.3        1 MOL1         0.1053
     114    H54     21.873460   16.113449   23.164436 H          1 MOL1         0.0783
     115    O28     23.536337   15.399959   24.178733 O.3        1 MOL1        -0.5519
     116    H55     23.019122   14.906751   24.854484 H          1 MOL1         0.3769
     117    C34     23.520526   15.877447   21.784208 C.3        1 MOL1         0.1018
     118    H56     24.448913   15.292957   21.738197 H          1 MOL1         0.0783
     119    C35     22.736922   15.690501   20.456013 C.3        1 MOL1         0.1043
     120    H57     21.883107   16.374713   20.468734 H          1 MOL1         0.0783
     121    O29     22.241179   14.330061   20.374946 O.3        1 MOL1        -0.3740
     122    C36     23.546132   16.019007   19.174420 C.3        1 MOL1         0.0138
     123    H58     23.423607   17.086963   18.952256 H          1 MOL1         0.0794
     124    H59     23.108660   15.467425   18.331534 H          1 MOL1         0.0794
     125    O30     24.940891   15.714999   19.291660 O.3        1 MOL1        -0.5486
     126    H60     25.351308   16.443351   19.812395 H          1 MOL1         0.3769
     127    C1      19.021711   19.057105   23.589991 C.3        1 MOL1        -0.1693
     128    H1      18.591972   18.100708   23.916084 H          1 MOL1         0.0829
     129    H2      18.564388   19.863439   24.174544 H          1 MOL1         0.0829
     130    C2      19.064595   19.264319   22.039590 C.3        1 MOL1        -0.1768
     131    H3      18.242883   18.830551   21.462441 H          1 MOL1         0.0829
     132    H4      19.214628   20.300486   21.720683 H          1 MOL1         0.0829
     133    C3      20.370937   18.424004   22.096167 C.3        1 MOL1         0.1211
     134    H5      20.196262   17.342717   22.134585 H          1 MOL1         0.0786
     135    C4      20.582810   19.074650   23.495642 C.3        1 MOL1        -0.1768
     136    H6      21.119976   18.465725   24.230902 H          1 MOL1         0.0829
     137    H7      21.026049   20.078145   23.472492 H          1 MOL1         0.0829
     138    O1      21.334492   18.740072   21.121894 O.3        1 MOL1        -0.5515
     139    H8      22.192236   18.394941   21.449921 H          1 MOL1         0.3773
@<TRIPOS>BOND
    1     1     2    1
    2     1     3    1
    3     1     4    1
    4     4     5    1
    5     4     6    1
    6     6     7    1
    7     4     8    1
    8     8     9    1
    9     8    10    1
   10    10    11    1
   11     8    12    1
   12    12    13    1
   13    12    14    1
   14    14    15    1
   15     1    16    1
   16    14    16    1
   17    14    17    1
   18    17    18    1
   19    17    19    1
   20    17    20    1
   21    20    21    1
   22    22    23    1
   23    22    24    1
   24    22    25    1
   25    25    26    1
   26    25    27    1
   27    27    28    1
   28    25    29    1
   29    29    30    1
   30    29    31    1
   31    31    32    1
   32     3    33    1
   33    29    33    1
   34    33    34    1
   35    33    35    1
   36    35    36    1
   37    22    37    1
   38    35    37    1
   39    35    38    1
   40    38    39    1
   41    38    40    1
   42    38    41    1
   43    41    42    1
   44    43    44    1
   45    43    45    1
   46    43    46    1
   47    46    47    1
   48    46    48    1
   49    48    49    1
   50    46    50    1
   51    50    51    1
   52    50    52    1
   53    52    53    1
   54    24    54    1
   55    50    54    1
   56    54    55    1
   57    54    56    1
   58    56    57    1
   59    43    58    1
   60    56    58    1
   61    56    59    1
   62    59    60    1
   63    59    61    1
   64    59    62    1
   65    62    63    1
   66    64    65    1
   67    64    66    1
   68    64    67    1
   69    67    68    1
   70    67    69    1
   71    69    70    1
   72    67    71    1
   73    71    72    1
   74    71    73    1
   75    73    74    1
   76    45    75    1
   77    71    75    1
   78    75    76    1
   79    75    77    1
   80    77    78    1
   81    64    79    1
   82    77    79    1
   83    77    80    1
   84    80    81    1
   85    80    82    1
   86    80    83    1
   87    83    84    1
   88    85    86    1
   89    85    87    1
   90    85    88    1
   91    88    89    1
   92    88    90    1
   93    90    91    1
   94    88    92    1
   95    92    93    1
   96    92    94    1
   97    94    95    1
   98    66    96    1
   99    92    96    1
  100    96    97    1
  101    96    98    1
  102    98    99    1
  103    85   100    1
  104    98   100    1
  105    98   101    1
  106   101   102    1
  107   101   103    1
  108   101   104    1
  109   104   105    1
  110   106   107    1
  111    12   108    1
  112   106   108    1
  113   106   109    1
  114   109   110    1
  115   109   111    1
  116   111   112    1
  117   109   113    1
  118   113   114    1
  119   113   115    1
  120   115   116    1
  121    87   117    1
  122   113   117    1
  123   117   118    1
  124   117   119    1
  125   119   120    1
  126   106   121    1
  127   119   121    1
  128   119   122    1
  129   122   123    1
  130   122   124    1
  131   122   125    1
  132   125   126    1
  133   127   128    1
  134   127   129    1
  135   127   130    1
  136   130   131    1
  137   130   132    1
  138   130   133    1
  139   133   134    1
  140   127   135    1
  141   133   135    1
  142   135   136    1
  143   135   137    1
  144   133   138    1
  145   138   139    1
@<TRIPOS>SUBSTRUCTURE
       1 MOL1            1 RESIDUE      1      MOL     
       2 MOL1          139 RESIDUE      1      MOL     
@<SCITEGIC>MOL_PROPERTY
feprocess Rank
SciTegic.value.IntegerValue
97

@<SCITEGIC>MOL_PROPERTY
Conf_Id
SciTegic.value.IntegerValue
81

@<SCITEGIC>MOL_PROPERTY
Probability
SciTegic.value.DoubleValue
0.03

@<SCITEGIC>MOL_PROPERTY
G
SciTegic.value.DoubleValue
548.910

@<SCITEGIC>MOL_PROPERTY
E
SciTegic.value.DoubleValue
370.186

@<SCITEGIC>MOL_PROPERTY
-TS
SciTegic.value.DoubleValue
178.724

@<SCITEGIC>MOL_PROPERTY
U+W
SciTegic.value.DoubleValue
247.675

@<SCITEGIC>MOL_PROPERTY
U
SciTegic.value.DoubleValue
282.535

@<SCITEGIC>MOL_PROPERTY
W
SciTegic.value.DoubleValue
-34.860

@<SCITEGIC>MOL_PROPERTY
W(PB)
SciTegic.value.DoubleValue
-40.707

@<SCITEGIC>MOL_PROPERTY
W(SA)
SciTegic.value.DoubleValue
5.847

@<SCITEGIC>MOL_PROPERTY
Valence
SciTegic.value.DoubleValue
155.550

@<SCITEGIC>MOL_PROPERTY
Coulomb
SciTegic.value.DoubleValue
149.986

@<SCITEGIC>MOL_PROPERTY
VdW
SciTegic.value.DoubleValue
-23.001

@<SCITEGIC>MOL_PROPERTY
VdW6
SciTegic.value.DoubleValue
-171.546

@<SCITEGIC>MOL_PROPERTY
VdW12
SciTegic.value.DoubleValue
148.545

@<SCITEGIC>MOL_PROPERTY
Bond
SciTegic.value.DoubleValue
4.590

@<SCITEGIC>MOL_PROPERTY
Angle
SciTegic.value.DoubleValue
12.087

@<SCITEGIC>MOL_PROPERTY
Pdih
SciTegic.value.DoubleValue
138.872

@<SCITEGIC>MOL_PROPERTY
Idih
SciTegic.value.DoubleValue
0.000

@<SCITEGIC>MOL_PROPERTY
Tether
SciTegic.value.DoubleValue
0.000

@<TRIPOS>MOLECULE
CD_guest-s16_fast_vm2_rndm.mol2 : feprocess host+ligand conformer 98
         139         145           2
SMALL
USER_CHARGES
 
@<TRIPOS>ATOM
       1    C1      16.255813   15.262835   21.812349 C.3        1 MOL1         0.2972
       2    H1      15.164175   15.157864   21.864152 H          1 MOL1         0.0751
       3    O1      16.644611   16.612910   21.499480 O.3        1 MOL1        -0.3740
       4    C2      16.887010   14.888492   23.173438 C.3        1 MOL1         0.1003
       5    H2      16.647709   13.836004   23.373983 H          1 MOL1         0.0783
       6    O2      16.347268   15.709810   24.222099 O.3        1 MOL1        -0.5519
       7    H3      15.831396   16.430176   23.784583 H          1 MOL1         0.3769
       8    C3      18.424353   15.032945   23.111380 C.3        1 MOL1         0.1053
       9    H4      18.653385   16.096550   22.978818 H          1 MOL1         0.0783
      10    O3      18.993663   14.570208   24.338613 O.3        1 MOL1        -0.5519
      11    H5      18.424069   14.958370   25.040538 H          1 MOL1         0.3769
      12    C4      19.022496   14.253087   21.913108 C.3        1 MOL1         0.1018
      13    H6      19.021351   13.183055   22.158618 H          1 MOL1         0.0783
      14    C5      18.240883   14.490917   20.589190 C.3        1 MOL1         0.1043
      15    H7      18.480388   15.501128   20.237967 H          1 MOL1         0.0783
      16    O4      16.807354   14.393757   20.800665 O.3        1 MOL1        -0.3740
      17    C6      18.638057   13.507842   19.462602 C.3        1 MOL1         0.0138
      18    H8      19.667215   13.732143   19.151239 H          1 MOL1         0.0794
      19    H9      17.988064   13.685015   18.595202 H          1 MOL1         0.0794
      20    O5      18.545847   12.141319   19.884482 O.3        1 MOL1        -0.5486
      21    H10     18.775907   11.576097   19.115115 H          1 MOL1         0.3769
      22    C7      15.012122   20.228628   20.246919 C.3        1 MOL1         0.2972
      23    H11     14.402956   21.007755   19.770830 H          1 MOL1         0.0751
      24    O6      16.198450   20.776320   20.860946 O.3        1 MOL1        -0.3740
      25    C8      14.204699   19.494775   21.350922 C.3        1 MOL1         0.1003
      26    H12     13.329947   19.038302   20.869785 H          1 MOL1         0.0783
      27    O7      13.759574   20.411847   22.363053 O.3        1 MOL1        -0.5519
      28    H13     14.524825   20.999340   22.589862 H          1 MOL1         0.3769
      29    C9      15.048947   18.359182   21.982585 C.3        1 MOL1         0.1053
      30    H14     15.884582   18.821019   22.522988 H          1 MOL1         0.0783
      31    O8      14.246555   17.605838   22.897362 O.3        1 MOL1        -0.5519
      32    H15     13.741689   18.278636   23.407308 H          1 MOL1         0.3769
      33    C10     15.628997   17.426728   20.889006 C.3        1 MOL1         0.1018
      34    H16     14.814776   16.823023   20.466738 H          1 MOL1         0.0783
      35    C11     16.316450   18.219912   19.748617 C.3        1 MOL1         0.1043
      36    H17     17.208176   18.695338   20.165062 H          1 MOL1         0.0783
      37    O9      15.415027   19.244462   19.266808 O.3        1 MOL1        -0.3740
      38    C12     16.790638   17.350823   18.554267 C.3        1 MOL1         0.0138
      39    H18     17.822115   17.031090   18.749032 H          1 MOL1         0.0794
      40    H19     16.818966   17.977998   17.653284 H          1 MOL1         0.0794
      41    O10     15.968451   16.198634   18.327420 O.3        1 MOL1        -0.5486
      42    H20     16.114667   15.581034   19.080873 H          1 MOL1         0.3769
      43    C13     18.470535   24.213238   21.219708 C.3        1 MOL1         0.2972
      44    H21     18.887387   25.227840   21.217376 H          1 MOL1         0.0751
      45    O11     19.486960   23.218574   21.472006 O.3        1 MOL1        -0.3740
      46    C14     17.338948   24.076022   22.270857 C.3        1 MOL1         0.1003
      47    H22     16.528683   24.749811   21.962812 H          1 MOL1         0.0783
      48    O12     17.778146   24.457550   23.582248 O.3        1 MOL1        -0.5519
      49    H23     18.567394   23.902083   23.804434 H          1 MOL1         0.3769
      50    C15     16.778169   22.633174   22.267587 C.3        1 MOL1         0.1053
      51    H24     17.575019   21.954371   22.595774 H          1 MOL1         0.0783
      52    O13     15.668465   22.547852   23.167478 O.3        1 MOL1        -0.5519
      53    H25     15.956532   23.029880   23.974695 H          1 MOL1         0.3769
      54    C16     16.333189   22.212135   20.844142 C.3        1 MOL1         0.1018
      55    H26     15.379701   22.710640   20.625261 H          1 MOL1         0.0783
      56    C17     17.382492   22.572361   19.751624 C.3        1 MOL1         0.1043
      57    H27     18.224356   21.875958   19.843138 H          1 MOL1         0.0783
      58    O14     17.876044   23.924430   19.936751 O.3        1 MOL1        -0.3740
      59    C18     16.836286   22.443678   18.309433 C.3        1 MOL1         0.0138
      60    H28     16.698899   21.377909   18.082459 H          1 MOL1         0.0794
      61    H29     17.592081   22.830280   17.612764 H          1 MOL1         0.0794
      62    O15     15.595879   23.140892   18.136487 O.3        1 MOL1        -0.5486
      63    H30     15.341156   23.064699   17.191058 H          1 MOL1         0.3769
      64    C19     23.373558   22.400021   22.544380 C.3        1 MOL1         0.2972
      65    H31     24.415489   22.408042   22.888940 H          1 MOL1         0.0751
      66    O16     23.040543   21.140301   21.922493 O.3        1 MOL1        -0.3740
      67    C20     22.427083   22.644651   23.745099 C.3        1 MOL1         0.1003
      68    H32     22.679455   23.627437   24.164025 H          1 MOL1         0.0783
      69    O17     22.600526   21.640577   24.758882 O.3        1 MOL1        -0.5519
      70    H33     22.396980   20.766713   24.347823 H          1 MOL1         0.3769
      71    C21     20.953398   22.681662   23.289918 C.3        1 MOL1         0.1053
      72    H34     20.695908   21.674399   22.957027 H          1 MOL1         0.0783
      73    O18     20.130740   23.043332   24.401232 O.3        1 MOL1        -0.5519
      74    H35     20.469897   22.507841   25.153443 H          1 MOL1         0.3769
      75    C22     20.716705   23.644441   22.099021 C.3        1 MOL1         0.1018
      76    H36     20.659638   24.672821   22.477943 H          1 MOL1         0.0783
      77    C23     21.816683   23.523645   21.005722 C.3        1 MOL1         0.1043
      78    H37     21.621827   22.594042   20.461370 H          1 MOL1         0.0783
      79    O19     23.147270   23.453329   21.581929 O.3        1 MOL1        -0.3740
      80    C24     21.788607   24.672164   19.967985 C.3        1 MOL1         0.0138
      81    H38     20.845073   24.620619   19.407597 H          1 MOL1         0.0794
      82    H39     22.600056   24.508947   19.246451 H          1 MOL1         0.0794
      83    O20     21.931027   25.963062   20.574735 O.3        1 MOL1        -0.5486
      84    H40     21.106689   26.168301   21.061821 H          1 MOL1         0.3769
      85    C25     24.773363   17.775696   20.301147 C.3        1 MOL1         0.2972
      86    H41     25.336584   17.004722   19.759639 H          1 MOL1         0.0751
      87    O21     23.568459   17.244466   20.891166 O.3        1 MOL1        -0.3740
      88    C26     25.631169   18.426370   21.414347 C.3        1 MOL1         0.1003
      89    H42     26.472222   18.930785   20.920957 H          1 MOL1         0.0783
      90    O22     26.147970   17.445140   22.325877 O.3        1 MOL1        -0.5519
      91    H43     25.370427   16.968143   22.713126 H          1 MOL1         0.3769
      92    C27     24.812115   19.499645   22.174200 C.3        1 MOL1         0.1053
      93    H44     24.033568   18.982356   22.750280 H          1 MOL1         0.0783
      94    O23     25.687230   20.197940   23.064777 O.3        1 MOL1        -0.5519
      95    H45     26.180008   19.497142   23.545748 H          1 MOL1         0.3769
      96    C28     24.122657   20.505091   21.205748 C.3        1 MOL1         0.1018
      97    H46     24.875420   21.234859   20.881283 H          1 MOL1         0.0783
      98    C29     23.493839   19.829933   19.950522 C.3        1 MOL1         0.1043
      99    H47     22.573090   19.327653   20.262332 H          1 MOL1         0.0783
     100    O24     24.399432   18.841859   19.402752 O.3        1 MOL1        -0.3740
     101    C30     23.089945   20.810244   18.818248 C.3        1 MOL1         0.0138
     102    H48     22.056760   21.134766   18.991105 H          1 MOL1         0.0794
     103    H49     23.087132   20.261825   17.866739 H          1 MOL1         0.0794
     104    O25     23.949213   21.953657   18.720048 O.3        1 MOL1        -0.5486
     105    H50     23.856079   22.469722   19.552097 H          1 MOL1         0.3769
     106    C31     21.429595   13.803501   21.686421 C.3        1 MOL1         0.2972
     107    H51     21.065559   12.779578   21.838919 H          1 MOL1         0.0751
     108    O26     20.355620   14.767353   21.711787 O.3        1 MOL1        -0.3740
     109    C32     22.446913   14.190129   22.788325 C.3        1 MOL1         0.1003
     110    H52     23.301251   13.506442   22.699572 H          1 MOL1         0.0783
     111    O27     21.873670   14.052819   24.098074 O.3        1 MOL1        -0.5519
     112    H53     20.939806   14.379885   24.050913 H          1 MOL1         0.3769
     113    C33     22.969346   15.630669   22.567598 C.3        1 MOL1         0.1053
     114    H54     22.133857   16.326608   22.719738 H          1 MOL1         0.0783
     115    O28     24.001984   15.903237   23.519872 O.3        1 MOL1        -0.5519
     116    H55     23.630390   15.614238   24.383171 H          1 MOL1         0.3769
     117    C34     23.509959   15.823986   21.126272 C.3        1 MOL1         0.1018
     118    H56     24.500832   15.355511   21.059121 H          1 MOL1         0.0783
     119    C35     22.562197   15.230464   20.042999 C.3        1 MOL1         0.1043
     120    H57     21.685803   15.884988   19.958251 H          1 MOL1         0.0783
     121    O29     22.114856   13.904936   20.420365 O.3        1 MOL1        -0.3740
     122    C36     23.207290   15.150001   18.638648 C.3        1 MOL1         0.0138
     123    H58     23.310679   16.170085   18.244443 H          1 MOL1         0.0794
     124    H59     22.524115   14.609452   17.969946 H          1 MOL1         0.0794
     125    O30     24.488658   14.508505   18.666775 O.3        1 MOL1        -0.5486
     126    H60     24.800490   14.425034   17.739198 H          1 MOL1         0.3769
     127    C1      19.679978   19.646058   21.265025 C.3        1 MOL1        -0.1693
     128    H1      18.966225   19.826073   20.458033 H          1 MOL1         0.0829
     129    H2      20.480008   20.388399   21.173562 H          1 MOL1         0.0829
     130    C2      20.162834   18.169989   21.446381 C.3        1 MOL1        -0.1768
     131    H3      19.404340   17.416834   21.208550 H          1 MOL1         0.0829
     132    H4      21.087702   17.891348   20.940756 H          1 MOL1         0.0829
     133    C3      20.280507   18.506885   22.966769 C.3        1 MOL1         0.1211
     134    H5      20.063966   17.677153   23.650413 H          1 MOL1         0.0786
     135    C4      19.081780   19.468438   22.703276 C.3        1 MOL1        -0.1768
     136    H6      18.104494   18.974901   22.730664 H          1 MOL1         0.0829
     137    H7      19.031253   20.355345   23.340806 H          1 MOL1         0.0829
     138    O1      21.484823   19.139617   23.349446 O.3        1 MOL1        -0.5515
     139    H8      21.795508   19.640717   22.566603 H          1 MOL1         0.3773
@<TRIPOS>BOND
    1     1     2    1
    2     1     3    1
    3     1     4    1
    4     4     5    1
    5     4     6    1
    6     6     7    1
    7     4     8    1
    8     8     9    1
    9     8    10    1
   10    10    11    1
   11     8    12    1
   12    12    13    1
   13    12    14    1
   14    14    15    1
   15     1    16    1
   16    14    16    1
   17    14    17    1
   18    17    18    1
   19    17    19    1
   20    17    20    1
   21    20    21    1
   22    22    23    1
   23    22    24    1
   24    22    25    1
   25    25    26    1
   26    25    27    1
   27    27    28    1
   28    25    29    1
   29    29    30    1
   30    29    31    1
   31    31    32    1
   32     3    33    1
   33    29    33    1
   34    33    34    1
   35    33    35    1
   36    35    36    1
   37    22    37    1
   38    35    37    1
   39    35    38    1
   40    38    39    1
   41    38    40    1
   42    38    41    1
   43    41    42    1
   44    43    44    1
   45    43    45    1
   46    43    46    1
   47    46    47    1
   48    46    48    1
   49    48    49    1
   50    46    50    1
   51    50    51    1
   52    50    52    1
   53    52    53    1
   54    24    54    1
   55    50    54    1
   56    54    55    1
   57    54    56    1
   58    56    57    1
   59    43    58    1
   60    56    58    1
   61    56    59    1
   62    59    60    1
   63    59    61    1
   64    59    62    1
   65    62    63    1
   66    64    65    1
   67    64    66    1
   68    64    67    1
   69    67    68    1
   70    67    69    1
   71    69    70    1
   72    67    71    1
   73    71    72    1
   74    71    73    1
   75    73    74    1
   76    45    75    1
   77    71    75    1
   78    75    76    1
   79    75    77    1
   80    77    78    1
   81    64    79    1
   82    77    79    1
   83    77    80    1
   84    80    81    1
   85    80    82    1
   86    80    83    1
   87    83    84    1
   88    85    86    1
   89    85    87    1
   90    85    88    1
   91    88    89    1
   92    88    90    1
   93    90    91    1
   94    88    92    1
   95    92    93    1
   96    92    94    1
   97    94    95    1
   98    66    96    1
   99    92    96    1
  100    96    97    1
  101    96    98    1
  102    98    99    1
  103    85   100    1
  104    98   100    1
  105    98   101    1
  106   101   102    1
  107   101   103    1
  108   101   104    1
  109   104   105    1
  110   106   107    1
  111    12   108    1
  112   106   108    1
  113   106   109    1
  114   109   110    1
  115   109   111    1
  116   111   112    1
  117   109   113    1
  118   113   114    1
  119   113   115    1
  120   115   116    1
  121    87   117    1
  122   113   117    1
  123   117   118    1
  124   117   119    1
  125   119   120    1
  126   106   121    1
  127   119   121    1
  128   119   122    1
  129   122   123    1
  130   122   124    1
  131   122   125    1
  132   125   126    1
  133   127   128    1
  134   127   129    1
  135   127   130    1
  136   130   131    1
  137   130   132    1
  138   130   133    1
  139   133   134    1
  140   127   135    1
  141   133   135    1
  142   135   136    1
  143   135   137    1
  144   133   138    1
  145   138   139    1
@<TRIPOS>SUBSTRUCTURE
       1 MOL1            1 RESIDUE      1      MOL     
       2 MOL1          139 RESIDUE      1      MOL     
@<SCITEGIC>MOL_PROPERTY
feprocess Rank
SciTegic.value.IntegerValue
98

@<SCITEGIC>MOL_PROPERTY
Conf_Id
SciTegic.value.IntegerValue
445

@<SCITEGIC>MOL_PROPERTY
Probability
SciTegic.value.DoubleValue
0.03

@<SCITEGIC>MOL_PROPERTY
G
SciTegic.value.DoubleValue
548.950

@<SCITEGIC>MOL_PROPERTY
E
SciTegic.value.DoubleValue
369.648

@<SCITEGIC>MOL_PROPERTY
-TS
SciTegic.value.DoubleValue
179.302

@<SCITEGIC>MOL_PROPERTY
U+W
SciTegic.value.DoubleValue
247.136

@<SCITEGIC>MOL_PROPERTY
U
SciTegic.value.DoubleValue
285.865

@<SCITEGIC>MOL_PROPERTY
W
SciTegic.value.DoubleValue
-38.728

@<SCITEGIC>MOL_PROPERTY
W(PB)
SciTegic.value.DoubleValue
-44.776

@<SCITEGIC>MOL_PROPERTY
W(SA)
SciTegic.value.DoubleValue
6.047

@<SCITEGIC>MOL_PROPERTY
Valence
SciTegic.value.DoubleValue
153.073

@<SCITEGIC>MOL_PROPERTY
Coulomb
SciTegic.value.DoubleValue
154.109

@<SCITEGIC>MOL_PROPERTY
VdW
SciTegic.value.DoubleValue
-21.317

@<SCITEGIC>MOL_PROPERTY
VdW6
SciTegic.value.DoubleValue
-171.081

@<SCITEGIC>MOL_PROPERTY
VdW12
SciTegic.value.DoubleValue
149.764

@<SCITEGIC>MOL_PROPERTY
Bond
SciTegic.value.DoubleValue
4.778

@<SCITEGIC>MOL_PROPERTY
Angle
SciTegic.value.DoubleValue
12.926

@<SCITEGIC>MOL_PROPERTY
Pdih
SciTegic.value.DoubleValue
135.369

@<SCITEGIC>MOL_PROPERTY
Idih
SciTegic.value.DoubleValue
0.000

@<SCITEGIC>MOL_PROPERTY
Tether
SciTegic.value.DoubleValue
0.000

@<TRIPOS>MOLECULE
CD_guest-s16_fast_vm2_rndm.mol2 : feprocess host+ligand conformer 99
         139         145           2
SMALL
USER_CHARGES
 
@<TRIPOS>ATOM
       1    C1      16.350369   15.324712   20.214788 C.3        1 MOL1         0.2972
       2    H1      15.361404   15.300580   19.739195 H          1 MOL1         0.0751
       3    O1      16.631712   16.625428   20.784649 O.3        1 MOL1        -0.3740
       4    C2      16.473449   14.231058   21.308984 C.3        1 MOL1         0.1003
       5    H2      16.384643   13.259935   20.804643 H          1 MOL1         0.0783
       6    O2      15.434804   14.331116   22.293398 O.3        1 MOL1        -0.5519
       7    H3      15.525183   15.219234   22.721901 H          1 MOL1         0.3769
       8    C3      17.872405   14.294173   21.968706 C.3        1 MOL1         0.1053
       9    H4      17.960287   15.255539   22.493946 H          1 MOL1         0.0783
      10    O3      18.016289   13.219323   22.903101 O.3        1 MOL1        -0.5519
      11    H5      17.172440   13.200895   23.407016 H          1 MOL1         0.3769
      12    C4      18.997091   14.214989   20.904170 C.3        1 MOL1         0.1018
      13    H6      19.068394   13.175185   20.559714 H          1 MOL1         0.0783
      14    C5      18.741139   15.157395   19.690062 C.3        1 MOL1         0.1043
      15    H7      18.899114   16.184698   20.027019 H          1 MOL1         0.0783
      16    O4      17.371019   15.030586   19.235698 O.3        1 MOL1        -0.3740
      17    C6      19.678749   14.937000   18.474510 C.3        1 MOL1         0.0138
      18    H8      20.568407   15.563953   18.599544 H          1 MOL1         0.0794
      19    H9      19.167145   15.293483   17.570453 H          1 MOL1         0.0794
      20    O5      20.080093   13.573463   18.304609 O.3        1 MOL1        -0.5486
      21    H10     20.837750   13.422696   18.914624 H          1 MOL1         0.3769
      22    C7      14.838729   20.203789   21.937971 C.3        1 MOL1         0.2972
      23    H11     14.141060   21.004225   22.215353 H          1 MOL1         0.0751
      24    O6      16.190483   20.685866   21.833662 O.3        1 MOL1        -0.3740
      25    C8      14.819412   19.091268   23.012877 C.3        1 MOL1         0.1003
      26    H12     13.798269   18.690281   23.054292 H          1 MOL1         0.0783
      27    O7      15.170222   19.626226   24.299726 O.3        1 MOL1        -0.5519
      28    H13     15.738548   20.420553   24.138920 H          1 MOL1         0.3769
      29    C9      15.771728   17.932684   22.630710 C.3        1 MOL1         0.1053
      30    H14     16.801307   18.306500   22.672602 H          1 MOL1         0.0783
      31    O8      15.611106   16.877758   23.582501 O.3        1 MOL1        -0.5519
      32    H15     15.620380   17.327653   24.457539 H          1 MOL1         0.3769
      33    C10     15.495162   17.421641   21.191421 C.3        1 MOL1         0.1018
      34    H16     14.567674   16.833683   21.202410 H          1 MOL1         0.0783
      35    C11     15.364718   18.590322   20.170326 C.3        1 MOL1         0.1043
      36    H17     16.359969   19.029202   20.028741 H          1 MOL1         0.0783
      37    O9      14.468350   19.616223   20.673123 O.3        1 MOL1        -0.3740
      38    C12     14.862683   18.139860   18.778129 C.3        1 MOL1         0.0138
      39    H18     15.660350   17.562817   18.290839 H          1 MOL1         0.0794
      40    H19     14.684042   19.032793   18.164133 H          1 MOL1         0.0794
      41    O10     13.672303   17.346482   18.864346 O.3        1 MOL1        -0.5486
      42    H20     13.367429   17.165953   17.948452 H          1 MOL1         0.3769
      43    C13     18.465235   24.154743   21.497920 C.3        1 MOL1         0.2972
      44    H21     18.810897   25.191430   21.397419 H          1 MOL1         0.0751
      45    O11     19.564264   23.222229   21.484113 O.3        1 MOL1        -0.3740
      46    C14     17.728016   23.971563   22.848190 C.3        1 MOL1         0.1003
      47    H22     16.866106   24.651411   22.851878 H          1 MOL1         0.0783
      48    O12     18.597790   24.300580   23.943611 O.3        1 MOL1        -0.5519
      49    H23     19.523175   24.143802   23.632086 H          1 MOL1         0.3769
      50    C15     17.198555   22.523563   22.991362 C.3        1 MOL1         0.1053
      51    H24     18.062211   21.848266   23.063834 H          1 MOL1         0.0783
      52    O13     16.402003   22.416356   24.175545 O.3        1 MOL1        -0.5519
      53    H25     16.920786   22.877411   24.872354 H          1 MOL1         0.3769
      54    C16     16.364991   22.112132   21.753575 C.3        1 MOL1         0.1018
      55    H26     15.409121   22.651401   21.778301 H          1 MOL1         0.0783
      56    C17     17.104524   22.428948   20.424612 C.3        1 MOL1         0.1043
      57    H27     17.981444   21.777215   20.365658 H          1 MOL1         0.0783
      58    O14     17.550949   23.809450   20.432402 O.3        1 MOL1        -0.3740
      59    C18     16.270634   22.168633   19.143871 C.3        1 MOL1         0.0138
      60    H28     16.394407   21.115586   18.860395 H          1 MOL1         0.0794
      61    H29     16.689189   22.769273   18.325590 H          1 MOL1         0.0794
      62    O15     14.876590   22.454735   19.307143 O.3        1 MOL1        -0.5486
      63    H30     14.475983   21.666390   19.739355 H          1 MOL1         0.3769
      64    C19     23.522986   22.631132   20.467362 C.3        1 MOL1         0.2972
      65    H31     24.550026   22.676856   20.082802 H          1 MOL1         0.0751
      66    O16     23.209927   21.316469   20.983371 O.3        1 MOL1        -0.3740
      67    C20     23.287851   23.698557   21.569737 C.3        1 MOL1         0.1003
      68    H32     23.401283   24.682057   21.095207 H          1 MOL1         0.0783
      69    O17     24.240086   23.593890   22.637544 O.3        1 MOL1        -0.5519
      70    H33     24.126499   22.696671   23.040811 H          1 MOL1         0.3769
      71    C21     21.839130   23.596027   22.104900 C.3        1 MOL1         0.1053
      72    H34     21.720983   22.617705   22.591542 H          1 MOL1         0.0783
      73    O18     21.593765   24.639139   23.054120 O.3        1 MOL1        -0.5519
      74    H35     22.397135   24.665716   23.620455 H          1 MOL1         0.3769
      75    C22     20.814265   23.691790   20.946823 C.3        1 MOL1         0.1018
      76    H36     20.757599   24.737940   20.620265 H          1 MOL1         0.0783
      77    C23     21.184844   22.786908   19.735243 C.3        1 MOL1         0.1043
      78    H37     20.998493   21.744616   20.013240 H          1 MOL1         0.0783
      79    O19     22.589932   22.931320   19.406279 O.3        1 MOL1        -0.3740
      80    C24     20.348575   23.069371   18.462580 C.3        1 MOL1         0.0138
      81    H38     19.344349   22.651102   18.602791 H          1 MOL1         0.0794
      82    H39     20.804724   22.530841   17.621534 H          1 MOL1         0.0794
      83    O20     20.247380   24.466010   18.159013 O.3        1 MOL1        -0.5486
      84    H40     19.500221   24.823069   18.685962 H          1 MOL1         0.3769
      85    C25     24.882978   17.723869   22.226893 C.3        1 MOL1         0.2972
      86    H41     25.546320   16.912463   22.552857 H          1 MOL1         0.0751
      87    O21     23.546536   17.250655   21.973866 O.3        1 MOL1        -0.3740
      88    C26     24.811590   18.815643   23.320984 C.3        1 MOL1         0.1003
      89    H42     25.827566   19.207779   23.459877 H          1 MOL1         0.0783
      90    O22     24.345577   18.264187   24.563332 O.3        1 MOL1        -0.5519
      91    H43     23.869152   17.423657   24.348455 H          1 MOL1         0.3769
      92    C27     23.906126   19.988251   22.877221 C.3        1 MOL1         0.1053
      93    H44     22.875629   19.620976   22.817882 H          1 MOL1         0.0783
      94    O23     23.985161   21.022611   23.861278 O.3        1 MOL1        -0.5519
      95    H45     23.894960   20.553929   24.721820 H          1 MOL1         0.3769
      96    C28     24.313358   20.525978   21.479658 C.3        1 MOL1         0.1018
      97    H46     25.229441   21.122020   21.586905 H          1 MOL1         0.0783
      98    C29     24.545329   19.380074   20.451292 C.3        1 MOL1         0.1043
      99    H47     23.566658   18.954942   20.198391 H          1 MOL1         0.0783
     100    O24     25.377986   18.332872   21.016076 O.3        1 MOL1        -0.3740
     101    C30     25.190462   19.860354   19.129648 C.3        1 MOL1         0.0138
     102    H48     24.452007   20.459385   18.579499 H          1 MOL1         0.0794
     103    H49     25.423210   18.981748   18.513090 H          1 MOL1         0.0794
     104    O25     26.372834   20.637213   19.357900 O.3        1 MOL1        -0.5486
     105    H50     26.769878   20.840038   18.482850 H          1 MOL1         0.3769
     106    C31     21.325422   13.753086   21.538407 C.3        1 MOL1         0.2972
     107    H51     21.005614   12.711687   21.404884 H          1 MOL1         0.0751
     108    O26     20.197723   14.650914   21.571528 O.3        1 MOL1        -0.3740
     109    C32     22.065878   13.905199   22.890920 C.3        1 MOL1         0.1003
     110    H52     22.938577   13.239477   22.871209 H          1 MOL1         0.0783
     111    O27     21.201076   13.527226   23.973529 O.3        1 MOL1        -0.5519
     112    H53     20.284090   13.762208   23.693562 H          1 MOL1         0.3769
     113    C33     22.570054   15.356212   23.084404 C.3        1 MOL1         0.1053
     114    H54     21.695715   16.013816   23.186000 H          1 MOL1         0.0783
     115    O28     23.371773   15.432243   24.266986 O.3        1 MOL1        -0.5519
     116    H55     22.868631   14.931939   24.948158 H          1 MOL1         0.3769
     117    C34     23.388034   15.824443   21.857304 C.3        1 MOL1         0.1018
     118    H56     24.350945   15.297007   21.850896 H          1 MOL1         0.0783
     119    C35     22.642764   15.546723   20.524612 C.3        1 MOL1         0.1043
     120    H57     21.753424   16.182948   20.504448 H          1 MOL1         0.0783
     121    O29     22.218711   14.160385   20.475930 O.3        1 MOL1        -0.3740
     122    C36     23.463849   15.878859   19.250974 C.3        1 MOL1         0.0138
     123    H58     23.307875   16.936841   19.004261 H          1 MOL1         0.0794
     124    H59     23.065472   15.292439   18.412358 H          1 MOL1         0.0794
     125    O30     24.866467   15.632099   19.401470 O.3        1 MOL1        -0.5486
     126    H60     25.236195   16.382143   19.921560 H          1 MOL1         0.3769
     127    C1      20.371113   18.378033   21.285551 C.3        1 MOL1        -0.1693
     128    H1      19.933018   17.399886   21.512702 H          1 MOL1         0.0829
     129    H2      21.196533   18.550511   21.980417 H          1 MOL1         0.0829
     130    C2      19.332410   19.534963   21.166114 C.3        1 MOL1        -0.1768
     131    H3      18.447971   19.444095   21.798238 H          1 MOL1         0.0829
     132    H4      19.752730   20.535127   21.303202 H          1 MOL1         0.0829
     133    C3      19.168485   19.072441   19.685638 C.3        1 MOL1         0.1211
     134    H5      18.478746   18.229022   19.562197 H          1 MOL1         0.0786
     135    C4      20.665632   18.661736   19.774048 C.3        1 MOL1        -0.1768
     136    H6      21.369970   19.481766   19.591853 H          1 MOL1         0.0829
     137    H7      20.956003   17.808950   19.155804 H          1 MOL1         0.0829
     138    O1      18.885733   20.074188   18.739258 O.3        1 MOL1        -0.5515
     139    H8      19.034300   19.685498   17.854366 H          1 MOL1         0.3773
@<TRIPOS>BOND
    1     1     2    1
    2     1     3    1
    3     1     4    1
    4     4     5    1
    5     4     6    1
    6     6     7    1
    7     4     8    1
    8     8     9    1
    9     8    10    1
   10    10    11    1
   11     8    12    1
   12    12    13    1
   13    12    14    1
   14    14    15    1
   15     1    16    1
   16    14    16    1
   17    14    17    1
   18    17    18    1
   19    17    19    1
   20    17    20    1
   21    20    21    1
   22    22    23    1
   23    22    24    1
   24    22    25    1
   25    25    26    1
   26    25    27    1
   27    27    28    1
   28    25    29    1
   29    29    30    1
   30    29    31    1
   31    31    32    1
   32     3    33    1
   33    29    33    1
   34    33    34    1
   35    33    35    1
   36    35    36    1
   37    22    37    1
   38    35    37    1
   39    35    38    1
   40    38    39    1
   41    38    40    1
   42    38    41    1
   43    41    42    1
   44    43    44    1
   45    43    45    1
   46    43    46    1
   47    46    47    1
   48    46    48    1
   49    48    49    1
   50    46    50    1
   51    50    51    1
   52    50    52    1
   53    52    53    1
   54    24    54    1
   55    50    54    1
   56    54    55    1
   57    54    56    1
   58    56    57    1
   59    43    58    1
   60    56    58    1
   61    56    59    1
   62    59    60    1
   63    59    61    1
   64    59    62    1
   65    62    63    1
   66    64    65    1
   67    64    66    1
   68    64    67    1
   69    67    68    1
   70    67    69    1
   71    69    70    1
   72    67    71    1
   73    71    72    1
   74    71    73    1
   75    73    74    1
   76    45    75    1
   77    71    75    1
   78    75    76    1
   79    75    77    1
   80    77    78    1
   81    64    79    1
   82    77    79    1
   83    77    80    1
   84    80    81    1
   85    80    82    1
   86    80    83    1
   87    83    84    1
   88    85    86    1
   89    85    87    1
   90    85    88    1
   91    88    89    1
   92    88    90    1
   93    90    91    1
   94    88    92    1
   95    92    93    1
   96    92    94    1
   97    94    95    1
   98    66    96    1
   99    92    96    1
  100    96    97    1
  101    96    98    1
  102    98    99    1
  103    85   100    1
  104    98   100    1
  105    98   101    1
  106   101   102    1
  107   101   103    1
  108   101   104    1
  109   104   105    1
  110   106   107    1
  111    12   108    1
  112   106   108    1
  113   106   109    1
  114   109   110    1
  115   109   111    1
  116   111   112    1
  117   109   113    1
  118   113   114    1
  119   113   115    1
  120   115   116    1
  121    87   117    1
  122   113   117    1
  123   117   118    1
  124   117   119    1
  125   119   120    1
  126   106   121    1
  127   119   121    1
  128   119   122    1
  129   122   123    1
  130   122   124    1
  131   122   125    1
  132   125   126    1
  133   127   128    1
  134   127   129    1
  135   127   130    1
  136   130   131    1
  137   130   132    1
  138   130   133    1
  139   133   134    1
  140   127   135    1
  141   133   135    1
  142   135   136    1
  143   135   137    1
  144   133   138    1
  145   138   139    1
@<TRIPOS>SUBSTRUCTURE
       1 MOL1            1 RESIDUE      1      MOL     
       2 MOL1          139 RESIDUE      1      MOL     
@<SCITEGIC>MOL_PROPERTY
feprocess Rank
SciTegic.value.IntegerValue
99

@<SCITEGIC>MOL_PROPERTY
Conf_Id
SciTegic.value.IntegerValue
859

@<SCITEGIC>MOL_PROPERTY
Probability
SciTegic.value.DoubleValue
0.03

@<SCITEGIC>MOL_PROPERTY
G
SciTegic.value.DoubleValue
548.954

@<SCITEGIC>MOL_PROPERTY
E
SciTegic.value.DoubleValue
370.383

@<SCITEGIC>MOL_PROPERTY
-TS
SciTegic.value.DoubleValue
178.571

@<SCITEGIC>MOL_PROPERTY
U+W
SciTegic.value.DoubleValue
247.872

@<SCITEGIC>MOL_PROPERTY
U
SciTegic.value.DoubleValue
286.170

@<SCITEGIC>MOL_PROPERTY
W
SciTegic.value.DoubleValue
-38.298

@<SCITEGIC>MOL_PROPERTY
W(PB)
SciTegic.value.DoubleValue
-44.252

@<SCITEGIC>MOL_PROPERTY
W(SA)
SciTegic.value.DoubleValue
5.954

@<SCITEGIC>MOL_PROPERTY
Valence
SciTegic.value.DoubleValue
155.434

@<SCITEGIC>MOL_PROPERTY
Coulomb
SciTegic.value.DoubleValue
152.739

@<SCITEGIC>MOL_PROPERTY
VdW
SciTegic.value.DoubleValue
-22.003

@<SCITEGIC>MOL_PROPERTY
VdW6
SciTegic.value.DoubleValue
-171.043

@<SCITEGIC>MOL_PROPERTY
VdW12
SciTegic.value.DoubleValue
149.040

@<SCITEGIC>MOL_PROPERTY
Bond
SciTegic.value.DoubleValue
4.821

@<SCITEGIC>MOL_PROPERTY
Angle
SciTegic.value.DoubleValue
12.318

@<SCITEGIC>MOL_PROPERTY
Pdih
SciTegic.value.DoubleValue
138.295

@<SCITEGIC>MOL_PROPERTY
Idih
SciTegic.value.DoubleValue
0.000

@<SCITEGIC>MOL_PROPERTY
Tether
SciTegic.value.DoubleValue
0.000

@<TRIPOS>MOLECULE
CD_guest-s16_fast_vm2_rndm.mol2 : feprocess host+ligand conformer 100
         139         145           2
SMALL
USER_CHARGES
 
@<TRIPOS>ATOM
       1    C1      16.011935   15.005803   21.083207 C.3        1 MOL1         0.2972
       2    H1      14.931207   14.884085   20.934979 H          1 MOL1         0.0751
       3    O1      16.355828   16.351851   21.463040 O.3        1 MOL1        -0.3740
       4    C2      16.525088   14.057664   22.193963 C.3        1 MOL1         0.1003
       5    H2      16.323614   13.028089   21.870755 H          1 MOL1         0.0783
       6    O2      15.844204   14.309626   23.434322 O.3        1 MOL1        -0.5519
       7    H3      15.807345   15.292064   23.557314 H          1 MOL1         0.3769
       8    C3      18.054299   14.213932   22.376832 C.3        1 MOL1         0.1053
       9    H4      18.239215   15.211003   22.794872 H          1 MOL1         0.0783
      10    O3      18.533602   13.217281   23.286668 O.3        1 MOL1        -0.5519
      11    H5      17.909283   13.240859   24.045319 H          1 MOL1         0.3769
      12    C4      18.819500   14.102528   21.032541 C.3        1 MOL1         0.1018
      13    H6      18.873462   13.039563   20.763195 H          1 MOL1         0.0783
      14    C5      18.149860   14.912996   19.880697 C.3        1 MOL1         0.1043
      15    H7      18.340064   15.980276   20.055268 H          1 MOL1         0.0783
      16    O4      16.720314   14.679750   19.872110 O.3        1 MOL1        -0.3740
      17    C6      18.673893   14.570730   18.463925 C.3        1 MOL1         0.0138
      18    H8      19.656944   15.035465   18.324564 H          1 MOL1         0.0794
      19    H9      18.000669   15.026594   17.725598 H          1 MOL1         0.0794
      20    O5      18.763811   13.157290   18.243277 O.3        1 MOL1        -0.5486
      21    H10     19.042608   13.019020   17.311887 H          1 MOL1         0.3769
      22    C7      14.883190   20.190533   21.751114 C.3        1 MOL1         0.2972
      23    H11     14.274732   21.101120   21.828490 H          1 MOL1         0.0751
      24    O6      16.279715   20.501625   21.585362 O.3        1 MOL1        -0.3740
      25    C8      14.719443   19.341182   23.034440 C.3        1 MOL1         0.1003
      26    H12     13.659819   19.066436   23.117072 H          1 MOL1         0.0783
      27    O7      15.107608   20.098849   24.192097 O.3        1 MOL1        -0.5519
      28    H13     15.531807   20.928097   23.861174 H          1 MOL1         0.3769
      29    C9      15.548840   18.040955   22.937844 C.3        1 MOL1         0.1053
      30    H14     16.607835   18.319787   22.943815 H          1 MOL1         0.0783
      31    O8      15.268442   17.203557   24.064285 O.3        1 MOL1        -0.5519
      32    H15     15.305196   17.806704   24.840080 H          1 MOL1         0.3769
      33    C10     15.261324   17.273498   21.625397 C.3        1 MOL1         0.1018
      34    H16     14.296229   16.760172   21.728930 H          1 MOL1         0.0783
      35    C11     15.247987   18.194956   20.372871 C.3        1 MOL1         0.1043
      36    H17     16.286177   18.477177   20.161508 H          1 MOL1         0.0783
      37    O9      14.470820   19.395626   20.620060 O.3        1 MOL1        -0.3740
      38    C12     14.690332   17.507099   19.103795 C.3        1 MOL1         0.0138
      39    H18     15.415741   16.755175   18.765867 H          1 MOL1         0.0794
      40    H19     14.604778   18.257117   18.305980 H          1 MOL1         0.0794
      41    O10     13.421239   16.885489   19.341890 O.3        1 MOL1        -0.5486
      42    H20     13.104046   16.519695   18.487480 H          1 MOL1         0.3769
      43    C13     18.622903   23.867686   20.686432 C.3        1 MOL1         0.2972
      44    H21     18.946999   24.834009   20.278979 H          1 MOL1         0.0751
      45    O11     19.711019   23.158757   21.310388 O.3        1 MOL1        -0.3740
      46    C14     17.530043   24.071353   21.770023 C.3        1 MOL1         0.1003
      47    H22     16.697186   24.610762   21.300521 H          1 MOL1         0.0783
      48    O12     18.038028   24.848706   22.867016 O.3        1 MOL1        -0.5519
      49    H23     18.957784   24.531487   23.052348 H          1 MOL1         0.3769
      50    C15     16.991487   22.709290   22.277895 C.3        1 MOL1         0.1053
      51    H24     17.801807   22.197158   22.814474 H          1 MOL1         0.0783
      52    O13     15.886431   22.925841   23.161803 O.3        1 MOL1        -0.5519
      53    H25     16.170769   23.661594   23.749393 H          1 MOL1         0.3769
      54    C16     16.560147   21.820635   21.085606 C.3        1 MOL1         0.1018
      55    H26     15.678967   22.269500   20.607844 H          1 MOL1         0.0783
      56    C17     17.691550   21.702002   20.032153 C.3        1 MOL1         0.1043
      57    H27     18.549275   21.194529   20.491516 H          1 MOL1         0.0783
      58    O14     18.081879   23.036910   19.633688 O.3        1 MOL1        -0.3740
      59    C18     17.305338   20.893187   18.766503 C.3        1 MOL1         0.0138
      60    H28     17.531597   19.835497   18.950221 H          1 MOL1         0.0794
      61    H29     17.947460   21.214252   17.935556 H          1 MOL1         0.0794
      62    O15     15.924963   21.033013   18.405230 O.3        1 MOL1        -0.5486
      63    H30     15.390610   20.595296   19.107989 H          1 MOL1         0.3769
      64    C19     23.818159   22.998404   21.559348 C.3        1 MOL1         0.2972
      65    H31     24.903316   23.159059   21.554460 H          1 MOL1         0.0751
      66    O16     23.473983   21.618725   21.789697 O.3        1 MOL1        -0.3740
      67    C20     23.144724   23.851826   22.662746 C.3        1 MOL1         0.1003
      68    H32     23.318160   24.907428   22.416035 H          1 MOL1         0.0783
      69    O17     23.710406   23.570860   23.952568 O.3        1 MOL1        -0.5519
      70    H33     23.853345   22.592135   24.008785 H          1 MOL1         0.3769
      71    C21     21.616655   23.609212   22.673447 C.3        1 MOL1         0.1053
      72    H34     21.439452   22.575066   22.993751 H          1 MOL1         0.0783
      73    O18     20.991030   24.506993   23.596355 O.3        1 MOL1        -0.5519
      74    H35     21.550229   24.471718   24.404424 H          1 MOL1         0.3769
      75    C22     21.001087   23.797856   21.264295 C.3        1 MOL1         0.1018
      76    H36     20.919978   24.875960   21.072842 H          1 MOL1         0.0783
      77    C23     21.827543   23.117671   20.133096 C.3        1 MOL1         0.1043
      78    H37     21.664297   22.033719   20.196929 H          1 MOL1         0.0783
      79    O19     23.242215   23.394493   20.298522 O.3        1 MOL1        -0.3740
      80    C24     21.413989   23.560689   18.708862 C.3        1 MOL1         0.0138
      81    H38     20.435767   23.120845   18.474910 H          1 MOL1         0.0794
      82    H39     22.134876   23.147222   17.990943 H          1 MOL1         0.0794
      83    O20     21.348928   24.986962   18.582681 O.3        1 MOL1        -0.5486
      84    H40     21.136530   25.193368   17.646333 H          1 MOL1         0.3769
      85    C25     24.841829   17.731882   22.124767 C.3        1 MOL1         0.2972
      86    H41     25.460675   16.829913   22.218578 H          1 MOL1         0.0751
      87    O21     23.449564   17.377632   21.953777 O.3        1 MOL1        -0.3740
      88    C26     25.038357   18.615956   23.386669 C.3        1 MOL1         0.1003
      89    H42     26.107821   18.858479   23.437111 H          1 MOL1         0.0783
      90    O22     24.668251   17.921241   24.587840 O.3        1 MOL1        -0.5519
      91    H43     23.699312   17.743191   24.536904 H          1 MOL1         0.3769
      92    C27     24.263266   19.946998   23.280563 C.3        1 MOL1         0.1053
      93    H44     23.192808   19.721726   23.314263 H          1 MOL1         0.0783
      94    O23     24.608436   20.790754   24.383071 O.3        1 MOL1        -0.5519
      95    H45     24.582100   20.204747   25.172357 H          1 MOL1         0.3769
      96    C28     24.550790   20.677127   21.949886 C.3        1 MOL1         0.1018
      97    H46     25.532942   21.162807   22.013756 H          1 MOL1         0.0783
      98    C29     24.495579   19.724173   20.725735 C.3        1 MOL1         0.1043
      99    H47     23.442538   19.467698   20.571770 H          1 MOL1         0.0783
     100    O24     25.246296   18.505235   20.972265 O.3        1 MOL1        -0.3740
     101    C30     25.009397   20.368945   19.414201 C.3        1 MOL1         0.0138
     102    H48     24.301104   21.147993   19.101375 H          1 MOL1         0.0794
     103    H49     25.014355   19.605213   18.625840 H          1 MOL1         0.0794
     104    O25     26.320593   20.929024   19.554766 O.3        1 MOL1        -0.5486
     105    H50     26.226970   21.816603   19.959358 H          1 MOL1         0.3769
     106    C31     21.229992   14.071804   20.568667 C.3        1 MOL1         0.2972
     107    H51     20.928899   13.160158   20.036494 H          1 MOL1         0.0751
     108    O26     20.128148   14.651359   21.292698 O.3        1 MOL1        -0.3740
     109    C32     22.335362   13.750088   21.604801 C.3        1 MOL1         0.1003
     110    H52     23.167152   13.279517   21.064597 H          1 MOL1         0.0783
     111    O27     21.832185   12.839457   22.596274 O.3        1 MOL1        -0.5519
     112    H53     20.922194   13.148212   22.826297 H          1 MOL1         0.3769
     113    C33     22.870848   15.036547   22.285525 C.3        1 MOL1         0.1053
     114    H54     22.079726   15.426396   22.939561 H          1 MOL1         0.0783
     115    O28     24.023371   14.699429   23.061779 O.3        1 MOL1        -0.5519
     116    H55     23.752343   13.931839   23.611496 H          1 MOL1         0.3769
     117    C34     23.231121   16.132501   21.246260 C.3        1 MOL1         0.1018
     118    H56     24.134282   15.812685   20.709474 H          1 MOL1         0.0783
     119    C35     22.089941   16.335714   20.211019 C.3        1 MOL1         0.1043
     120    H57     21.214417   16.753010   20.722903 H          1 MOL1         0.0783
     121    O29     21.748000   15.050896   19.644575 O.3        1 MOL1        -0.3740
     122    C36     22.435893   17.286821   19.037915 C.3        1 MOL1         0.0138
     123    H58     22.208228   18.315435   19.339808 H          1 MOL1         0.0794
     124    H59     21.770362   17.056268   18.195346 H          1 MOL1         0.0794
     125    O30     23.802997   17.186526   18.619851 O.3        1 MOL1        -0.5486
     126    H60     24.366626   17.513324   19.359115 H          1 MOL1         0.3769
     127    C1      19.105101   19.091385   22.397706 C.3        1 MOL1        -0.1693
     128    H1      18.476703   19.804225   22.946321 H          1 MOL1         0.0829
     129    H2      18.695592   18.959670   21.389913 H          1 MOL1         0.0829
     130    C2      19.425882   17.776291   23.177056 C.3        1 MOL1        -0.1768
     131    H3      18.648916   17.414813   23.859242 H          1 MOL1         0.0829
     132    H4      19.758667   16.943836   22.549757 H          1 MOL1         0.0829
     133    C3      20.575768   18.589087   23.837558 C.3        1 MOL1         0.1211
     134    H5      20.255046   19.192081   24.697528 H          1 MOL1         0.0786
     135    C4      20.635939   19.379139   22.492901 C.3        1 MOL1        -0.1768
     136    H6      21.236911   18.914659   21.704941 H          1 MOL1         0.0829
     137    H7      20.918225   20.432891   22.571394 H          1 MOL1         0.0829
     138    O1      21.722798   17.839585   24.155211 O.3        1 MOL1        -0.5515
     139    H8      22.060984   17.486745   23.303468 H          1 MOL1         0.3773
@<TRIPOS>BOND
    1     1     2    1
    2     1     3    1
    3     1     4    1
    4     4     5    1
    5     4     6    1
    6     6     7    1
    7     4     8    1
    8     8     9    1
    9     8    10    1
   10    10    11    1
   11     8    12    1
   12    12    13    1
   13    12    14    1
   14    14    15    1
   15     1    16    1
   16    14    16    1
   17    14    17    1
   18    17    18    1
   19    17    19    1
   20    17    20    1
   21    20    21    1
   22    22    23    1
   23    22    24    1
   24    22    25    1
   25    25    26    1
   26    25    27    1
   27    27    28    1
   28    25    29    1
   29    29    30    1
   30    29    31    1
   31    31    32    1
   32     3    33    1
   33    29    33    1
   34    33    34    1
   35    33    35    1
   36    35    36    1
   37    22    37    1
   38    35    37    1
   39    35    38    1
   40    38    39    1
   41    38    40    1
   42    38    41    1
   43    41    42    1
   44    43    44    1
   45    43    45    1
   46    43    46    1
   47    46    47    1
   48    46    48    1
   49    48    49    1
   50    46    50    1
   51    50    51    1
   52    50    52    1
   53    52    53    1
   54    24    54    1
   55    50    54    1
   56    54    55    1
   57    54    56    1
   58    56    57    1
   59    43    58    1
   60    56    58    1
   61    56    59    1
   62    59    60    1
   63    59    61    1
   64    59    62    1
   65    62    63    1
   66    64    65    1
   67    64    66    1
   68    64    67    1
   69    67    68    1
   70    67    69    1
   71    69    70    1
   72    67    71    1
   73    71    72    1
   74    71    73    1
   75    73    74    1
   76    45    75    1
   77    71    75    1
   78    75    76    1
   79    75    77    1
   80    77    78    1
   81    64    79    1
   82    77    79    1
   83    77    80    1
   84    80    81    1
   85    80    82    1
   86    80    83    1
   87    83    84    1
   88    85    86    1
   89    85    87    1
   90    85    88    1
   91    88    89    1
   92    88    90    1
   93    90    91    1
   94    88    92    1
   95    92    93    1
   96    92    94    1
   97    94    95    1
   98    66    96    1
   99    92    96    1
  100    96    97    1
  101    96    98    1
  102    98    99    1
  103    85   100    1
  104    98   100    1
  105    98   101    1
  106   101   102    1
  107   101   103    1
  108   101   104    1
  109   104   105    1
  110   106   107    1
  111    12   108    1
  112   106   108    1
  113   106   109    1
  114   109   110    1
  115   109   111    1
  116   111   112    1
  117   109   113    1
  118   113   114    1
  119   113   115    1
  120   115   116    1
  121    87   117    1
  122   113   117    1
  123   117   118    1
  124   117   119    1
  125   119   120    1
  126   106   121    1
  127   119   121    1
  128   119   122    1
  129   122   123    1
  130   122   124    1
  131   122   125    1
  132   125   126    1
  133   127   128    1
  134   127   129    1
  135   127   130    1
  136   130   131    1
  137   130   132    1
  138   130   133    1
  139   133   134    1
  140   127   135    1
  141   133   135    1
  142   135   136    1
  143   135   137    1
  144   133   138    1
  145   138   139    1
@<TRIPOS>SUBSTRUCTURE
       1 MOL1            1 RESIDUE      1      MOL     
       2 MOL1          139 RESIDUE      1      MOL     
@<SCITEGIC>MOL_PROPERTY
feprocess Rank
SciTegic.value.IntegerValue
100

@<SCITEGIC>MOL_PROPERTY
Conf_Id
SciTegic.value.IntegerValue
129

@<SCITEGIC>MOL_PROPERTY
Probability
SciTegic.value.DoubleValue
0.03

@<SCITEGIC>MOL_PROPERTY
G
SciTegic.value.DoubleValue
548.963

@<SCITEGIC>MOL_PROPERTY
E
SciTegic.value.DoubleValue
370.819

@<SCITEGIC>MOL_PROPERTY
-TS
SciTegic.value.DoubleValue
178.145

@<SCITEGIC>MOL_PROPERTY
U+W
SciTegic.value.DoubleValue
248.307

@<SCITEGIC>MOL_PROPERTY
U
SciTegic.value.DoubleValue
286.930

@<SCITEGIC>MOL_PROPERTY
W
SciTegic.value.DoubleValue
-38.623

@<SCITEGIC>MOL_PROPERTY
W(PB)
SciTegic.value.DoubleValue
-44.575

@<SCITEGIC>MOL_PROPERTY
W(SA)
SciTegic.value.DoubleValue
5.953

@<SCITEGIC>MOL_PROPERTY
Valence
SciTegic.value.DoubleValue
152.333

@<SCITEGIC>MOL_PROPERTY
Coulomb
SciTegic.value.DoubleValue
156.045

@<SCITEGIC>MOL_PROPERTY
VdW
SciTegic.value.DoubleValue
-21.448

@<SCITEGIC>MOL_PROPERTY
VdW6
SciTegic.value.DoubleValue
-166.070

@<SCITEGIC>MOL_PROPERTY
VdW12
SciTegic.value.DoubleValue
144.622

@<SCITEGIC>MOL_PROPERTY
Bond
SciTegic.value.DoubleValue
4.529

@<SCITEGIC>MOL_PROPERTY
Angle
SciTegic.value.DoubleValue
11.387

@<SCITEGIC>MOL_PROPERTY
Pdih
SciTegic.value.DoubleValue
136.417

@<SCITEGIC>MOL_PROPERTY
Idih
SciTegic.value.DoubleValue
0.000

@<SCITEGIC>MOL_PROPERTY
Tether
SciTegic.value.DoubleValue
0.000

@<TRIPOS>MOLECULE
CD_guest-s16_fast_vm2_rndm.mol2 : feprocess host+ligand conformer 101
         139         145           2
SMALL
USER_CHARGES
 
@<TRIPOS>ATOM
       1    C1      16.153991   15.278358   20.453020 C.3        1 MOL1         0.2972
       2    H1      15.139569   15.182606   20.044671 H          1 MOL1         0.0751
       3    O1      16.370121   16.569639   21.052794 O.3        1 MOL1        -0.3740
       4    C2      16.436368   14.194053   21.525240 C.3        1 MOL1         0.1003
       5    H2      16.352544   13.216950   21.031963 H          1 MOL1         0.0783
       6    O2      15.487045   14.258294   22.601119 O.3        1 MOL1        -0.5519
       7    H3      15.493542   15.186644   22.947554 H          1 MOL1         0.3769
       8    C3      17.881121   14.334030   22.066389 C.3        1 MOL1         0.1053
       9    H4      17.951455   15.283208   22.615939 H          1 MOL1         0.0783
      10    O3      18.172141   13.243727   22.947630 O.3        1 MOL1        -0.5519
      11    H5      17.383495   13.165455   23.529119 H          1 MOL1         0.3769
      12    C4      18.914473   14.365607   20.911704 C.3        1 MOL1         0.1018
      13    H6      18.990066   13.352586   20.495416 H          1 MOL1         0.0783
      14    C5      18.509577   15.361336   19.784337 C.3        1 MOL1         0.1043
      15    H7      18.593826   16.381464   20.175535 H          1 MOL1         0.0783
      16    O4      17.132979   15.113179   19.403500 O.3        1 MOL1        -0.3740
      17    C6      19.383729   15.310824   18.505638 C.3        1 MOL1         0.0138
      18    H8      20.228265   15.998435   18.636225 H          1 MOL1         0.0794
      19    H9      18.792142   15.694613   17.663826 H          1 MOL1         0.0794
      20    O5      19.873553   14.000037   18.203274 O.3        1 MOL1        -0.5486
      21    H10     20.695812   13.881089   18.732096 H          1 MOL1         0.3769
      22    C7      14.746150   20.210476   21.931783 C.3        1 MOL1         0.2972
      23    H11     14.132188   21.092965   22.153673 H          1 MOL1         0.0751
      24    O6      16.139608   20.552975   21.784123 O.3        1 MOL1        -0.3740
      25    C8      14.610015   19.180864   23.077201 C.3        1 MOL1         0.1003
      26    H12     13.557701   18.871405   23.122519 H          1 MOL1         0.0783
      27    O7      14.988557   19.768354   24.332519 O.3        1 MOL1        -0.5519
      28    H13     15.535398   20.566292   24.124713 H          1 MOL1         0.3769
      29    C9      15.466443   17.929060   22.787654 C.3        1 MOL1         0.1053
      30    H14     16.517996   18.228539   22.849555 H          1 MOL1         0.0783
      31    O8      15.199904   16.930339   23.776827 O.3        1 MOL1        -0.5519
      32    H15     15.225496   17.412989   24.633378 H          1 MOL1         0.3769
      33    C10     15.208380   17.357531   21.369676 C.3        1 MOL1         0.1018
      34    H16     14.290918   16.754615   21.394439 H          1 MOL1         0.0783
      35    C11     15.110564   18.453049   20.267753 C.3        1 MOL1         0.1043
      36    H17     16.129758   18.803017   20.062894 H          1 MOL1         0.0783
      37    O9      14.309833   19.578883   20.711363 O.3        1 MOL1        -0.3740
      38    C12     14.532509   17.935806   18.929019 C.3        1 MOL1         0.0138
      39    H18     15.272766   17.271602   18.462718 H          1 MOL1         0.0794
      40    H19     14.391161   18.790724   18.254050 H          1 MOL1         0.0794
      41    O10     13.296462   17.234308   19.110738 O.3        1 MOL1        -0.5486
      42    H20     12.950042   17.004976   18.220741 H          1 MOL1         0.3769
      43    C13     18.506855   23.972961   21.268982 C.3        1 MOL1         0.2972
      44    H21     18.822101   25.003691   21.062402 H          1 MOL1         0.0751
      45    O11     19.636201   23.116519   21.524447 O.3        1 MOL1        -0.3740
      46    C14     17.613211   23.946779   22.534910 C.3        1 MOL1         0.1003
      47    H22     16.754399   24.605136   22.350156 H          1 MOL1         0.0783
      48    O12     18.347912   24.429279   23.671330 O.3        1 MOL1        -0.5519
      49    H23     19.295699   24.195340   23.516574 H          1 MOL1         0.3769
      50    C15     17.076365   22.521077   22.804811 C.3        1 MOL1         0.1053
      51    H24     17.927226   21.879790   23.069403 H          1 MOL1         0.0783
      52    O13     16.138473   22.555454   23.885418 O.3        1 MOL1        -0.5519
      53    H25     16.561999   23.118268   24.571784 H          1 MOL1         0.3769
      54    C16     16.408010   21.944453   21.534832 C.3        1 MOL1         0.1018
      55    H26     15.489221   22.510967   21.332698 H          1 MOL1         0.0783
      56    C17     17.342851   22.049921   20.300192 C.3        1 MOL1         0.1043
      57    H27     18.221236   21.416445   20.476616 H          1 MOL1         0.0783
      58    O14     17.765280   23.429911   20.152856 O.3        1 MOL1        -0.3740
      59    C18     16.704963   21.579300   18.966707 C.3        1 MOL1         0.0138
      60    H28     16.890886   20.504057   18.853099 H          1 MOL1         0.0794
      61    H29     17.220514   22.078836   18.135732 H          1 MOL1         0.0794
      62    O15     15.296631   21.832074   18.891640 O.3        1 MOL1        -0.5486
      63    H30     14.851344   21.178731   19.480226 H          1 MOL1         0.3769
      64    C19     23.671108   22.629444   20.658195 C.3        1 MOL1         0.2972
      65    H31     24.704997   22.729939   20.303211 H          1 MOL1         0.0751
      66    O16     23.417217   21.310370   21.188429 O.3        1 MOL1        -0.3740
      67    C20     23.347252   23.683994   21.749679 C.3        1 MOL1         0.1003
      68    H32     23.452816   24.673251   21.285522 H          1 MOL1         0.0783
      69    O17     24.249907   23.597274   22.862514 O.3        1 MOL1        -0.5519
      70    H33     24.194051   22.675033   23.219693 H          1 MOL1         0.3769
      71    C21     21.879887   23.534964   22.220210 C.3        1 MOL1         0.1053
      72    H34     21.775464   22.562430   22.721060 H          1 MOL1         0.0783
      73    O18     21.555945   24.586599   23.136008 O.3        1 MOL1        -0.5519
      74    H35     22.323786   24.641126   23.747464 H          1 MOL1         0.3769
      75    C22     20.904835   23.571534   21.016859 C.3        1 MOL1         0.1018
      76    H36     20.857953   24.604913   20.649161 H          1 MOL1         0.0783
      77    C23     21.350751   22.628105   19.861918 C.3        1 MOL1         0.1043
      78    H37     21.220079   21.595822   20.197098 H          1 MOL1         0.0783
      79    O19     22.751689   22.853194   19.566457 O.3        1 MOL1        -0.3740
      80    C24     20.543697   22.762690   18.545542 C.3        1 MOL1         0.0138
      81    H38     19.679319   22.089297   18.598403 H          1 MOL1         0.0794
      82    H39     21.169431   22.408392   17.715527 H          1 MOL1         0.0794
      83    O20     20.095602   24.097664   18.287372 O.3        1 MOL1        -0.5486
      84    H40     19.242807   24.204336   18.767371 H          1 MOL1         0.3769
      85    C25     25.034776   17.708582   22.219209 C.3        1 MOL1         0.2972
      86    H41     25.621918   16.822666   22.493896 H          1 MOL1         0.0751
      87    O21     23.663057   17.375397   21.931208 O.3        1 MOL1        -0.3740
      88    C26     25.045252   18.732570   23.376456 C.3        1 MOL1         0.1003
      89    H42     26.080481   19.069724   23.517187 H          1 MOL1         0.0783
      90    O22     24.568585   18.130279   24.590516 O.3        1 MOL1        -0.5519
      91    H43     24.072409   17.314789   24.330341 H          1 MOL1         0.3769
      92    C27     24.181788   19.958907   23.008783 C.3        1 MOL1         0.1053
      93    H44     23.142180   19.622082   22.953766 H          1 MOL1         0.0783
      94    O23     24.303491   20.949068   24.032978 O.3        1 MOL1        -0.5519
      95    H45     24.221345   20.447566   24.875361 H          1 MOL1         0.3769
      96    C28     24.565688   20.555696   21.629433 C.3        1 MOL1         0.1018
      97    H46     25.453453   21.189049   21.758946 H          1 MOL1         0.0783
      98    C29     24.828390   19.477000   20.535236 C.3        1 MOL1         0.1043
      99    H47     23.853733   19.106652   20.197781 H          1 MOL1         0.0783
     100    O24     25.591482   18.357924   21.057746 O.3        1 MOL1        -0.3740
     101    C30     25.554097   20.027594   19.284891 C.3        1 MOL1         0.0138
     102    H48     24.860881   20.682240   18.739462 H          1 MOL1         0.0794
     103    H49     25.797433   19.186487   18.621695 H          1 MOL1         0.0794
     104    O25     26.741332   20.753355   19.626355 O.3        1 MOL1        -0.5486
     105    H50     27.190099   21.002040   18.788792 H          1 MOL1         0.3769
     106    C31     21.303745   13.969698   21.263712 C.3        1 MOL1         0.2972
     107    H51     21.009018   12.941418   21.018317 H          1 MOL1         0.0751
     108    O26     20.153137   14.801367   21.505344 O.3        1 MOL1        -0.3740
     109    C32     22.156106   13.969881   22.559140 C.3        1 MOL1         0.1003
     110    H52     23.020686   13.315682   22.387104 H          1 MOL1         0.0783
     111    O27     21.385721   13.460050   23.659200 O.3        1 MOL1        -0.5519
     112    H53     20.444959   13.701989   23.478453 H          1 MOL1         0.3769
     113    C33     22.686063   15.387931   22.882096 C.3        1 MOL1         0.1053
     114    H54     21.828930   16.026604   23.135779 H          1 MOL1         0.0783
     115    O28     23.589946   15.321348   23.990136 O.3        1 MOL1        -0.5519
     116    H55     23.143644   14.741030   24.646869 H          1 MOL1         0.3769
     117    C34     23.392504   15.993277   21.646574 C.3        1 MOL1         0.1018
     118    H56     24.312844   15.429087   21.445303 H          1 MOL1         0.0783
     119    C35     22.477706   15.931242   20.395242 C.3        1 MOL1         0.1043
     120    H57     21.590922   16.550466   20.586019 H          1 MOL1         0.0783
     121    O29     22.072876   14.553579   20.187471 O.3        1 MOL1        -0.3740
     122    C36     23.131515   16.462652   19.093041 C.3        1 MOL1         0.0138
     123    H58     22.914079   17.535201   19.012570 H          1 MOL1         0.0794
     124    H59     22.649655   15.977837   18.233802 H          1 MOL1         0.0794
     125    O30     24.548577   16.252316   19.043619 O.3        1 MOL1        -0.5486
     126    H60     24.954811   16.851670   19.712111 H          1 MOL1         0.3769
     127    C1      19.068594   18.853104   23.577940 C.3        1 MOL1        -0.1693
     128    H1      18.412558   19.714271   23.755152 H          1 MOL1         0.0829
     129    H2      18.811672   18.064437   24.294799 H          1 MOL1         0.0829
     130    C2      20.588968   19.195651   23.449110 C.3        1 MOL1        -0.1768
     131    H3      21.262723   18.343373   23.599605 H          1 MOL1         0.0829
     132    H4      20.945082   20.039359   24.050205 H          1 MOL1         0.0829
     133    C3      20.265248   19.511966   21.957980 C.3        1 MOL1         0.1211
     134    H5      19.856922   20.517614   21.801321 H          1 MOL1         0.0786
     135    C4      19.179222   18.407982   22.083785 C.3        1 MOL1        -0.1768
     136    H6      19.555814   17.389058   21.945861 H          1 MOL1         0.0829
     137    H7      18.292061   18.549965   21.459471 H          1 MOL1         0.0829
     138    O1      21.283658   19.233186   21.025880 O.3        1 MOL1        -0.5515
     139    H8      22.004698   19.881031   21.178425 H          1 MOL1         0.3773
@<TRIPOS>BOND
    1     1     2    1
    2     1     3    1
    3     1     4    1
    4     4     5    1
    5     4     6    1
    6     6     7    1
    7     4     8    1
    8     8     9    1
    9     8    10    1
   10    10    11    1
   11     8    12    1
   12    12    13    1
   13    12    14    1
   14    14    15    1
   15     1    16    1
   16    14    16    1
   17    14    17    1
   18    17    18    1
   19    17    19    1
   20    17    20    1
   21    20    21    1
   22    22    23    1
   23    22    24    1
   24    22    25    1
   25    25    26    1
   26    25    27    1
   27    27    28    1
   28    25    29    1
   29    29    30    1
   30    29    31    1
   31    31    32    1
   32     3    33    1
   33    29    33    1
   34    33    34    1
   35    33    35    1
   36    35    36    1
   37    22    37    1
   38    35    37    1
   39    35    38    1
   40    38    39    1
   41    38    40    1
   42    38    41    1
   43    41    42    1
   44    43    44    1
   45    43    45    1
   46    43    46    1
   47    46    47    1
   48    46    48    1
   49    48    49    1
   50    46    50    1
   51    50    51    1
   52    50    52    1
   53    52    53    1
   54    24    54    1
   55    50    54    1
   56    54    55    1
   57    54    56    1
   58    56    57    1
   59    43    58    1
   60    56    58    1
   61    56    59    1
   62    59    60    1
   63    59    61    1
   64    59    62    1
   65    62    63    1
   66    64    65    1
   67    64    66    1
   68    64    67    1
   69    67    68    1
   70    67    69    1
   71    69    70    1
   72    67    71    1
   73    71    72    1
   74    71    73    1
   75    73    74    1
   76    45    75    1
   77    71    75    1
   78    75    76    1
   79    75    77    1
   80    77    78    1
   81    64    79    1
   82    77    79    1
   83    77    80    1
   84    80    81    1
   85    80    82    1
   86    80    83    1
   87    83    84    1
   88    85    86    1
   89    85    87    1
   90    85    88    1
   91    88    89    1
   92    88    90    1
   93    90    91    1
   94    88    92    1
   95    92    93    1
   96    92    94    1
   97    94    95    1
   98    66    96    1
   99    92    96    1
  100    96    97    1
  101    96    98    1
  102    98    99    1
  103    85   100    1
  104    98   100    1
  105    98   101    1
  106   101   102    1
  107   101   103    1
  108   101   104    1
  109   104   105    1
  110   106   107    1
  111    12   108    1
  112   106   108    1
  113   106   109    1
  114   109   110    1
  115   109   111    1
  116   111   112    1
  117   109   113    1
  118   113   114    1
  119   113   115    1
  120   115   116    1
  121    87   117    1
  122   113   117    1
  123   117   118    1
  124   117   119    1
  125   119   120    1
  126   106   121    1
  127   119   121    1
  128   119   122    1
  129   122   123    1
  130   122   124    1
  131   122   125    1
  132   125   126    1
  133   127   128    1
  134   127   129    1
  135   127   130    1
  136   130   131    1
  137   130   132    1
  138   130   133    1
  139   133   134    1
  140   127   135    1
  141   133   135    1
  142   135   136    1
  143   135   137    1
  144   133   138    1
  145   138   139    1
@<TRIPOS>SUBSTRUCTURE
       1 MOL1            1 RESIDUE      1      MOL     
       2 MOL1          139 RESIDUE      1      MOL     
@<SCITEGIC>MOL_PROPERTY
feprocess Rank
SciTegic.value.IntegerValue
101

@<SCITEGIC>MOL_PROPERTY
Conf_Id
SciTegic.value.IntegerValue
297

@<SCITEGIC>MOL_PROPERTY
Probability
SciTegic.value.DoubleValue
0.03

@<SCITEGIC>MOL_PROPERTY
G
SciTegic.value.DoubleValue
548.977

@<SCITEGIC>MOL_PROPERTY
E
SciTegic.value.DoubleValue
369.939

@<SCITEGIC>MOL_PROPERTY
-TS
SciTegic.value.DoubleValue
179.039

@<SCITEGIC>MOL_PROPERTY
U+W
SciTegic.value.DoubleValue
247.427

@<SCITEGIC>MOL_PROPERTY
U
SciTegic.value.DoubleValue
282.471

@<SCITEGIC>MOL_PROPERTY
W
SciTegic.value.DoubleValue
-35.044

@<SCITEGIC>MOL_PROPERTY
W(PB)
SciTegic.value.DoubleValue
-40.978

@<SCITEGIC>MOL_PROPERTY
W(SA)
SciTegic.value.DoubleValue
5.934

@<SCITEGIC>MOL_PROPERTY
Valence
SciTegic.value.DoubleValue
155.330

@<SCITEGIC>MOL_PROPERTY
Coulomb
SciTegic.value.DoubleValue
149.601

@<SCITEGIC>MOL_PROPERTY
VdW
SciTegic.value.DoubleValue
-22.460

@<SCITEGIC>MOL_PROPERTY
VdW6
SciTegic.value.DoubleValue
-171.401

@<SCITEGIC>MOL_PROPERTY
VdW12
SciTegic.value.DoubleValue
148.941

@<SCITEGIC>MOL_PROPERTY
Bond
SciTegic.value.DoubleValue
4.620

@<SCITEGIC>MOL_PROPERTY
Angle
SciTegic.value.DoubleValue
12.045

@<SCITEGIC>MOL_PROPERTY
Pdih
SciTegic.value.DoubleValue
138.665

@<SCITEGIC>MOL_PROPERTY
Idih
SciTegic.value.DoubleValue
0.000

@<SCITEGIC>MOL_PROPERTY
Tether
SciTegic.value.DoubleValue
0.000

@<TRIPOS>MOLECULE
CD_guest-s16_fast_vm2_rndm.mol2 : feprocess host+ligand conformer 102
         139         145           2
SMALL
USER_CHARGES
 
@<TRIPOS>ATOM
       1    C1      16.232826   15.369515   20.473187 C.3        1 MOL1         0.2972
       2    H1      15.226938   15.286432   20.041676 H          1 MOL1         0.0751
       3    O1      16.428310   16.636347   21.129290 O.3        1 MOL1        -0.3740
       4    C2      16.488846   14.244266   21.509231 C.3        1 MOL1         0.1003
       5    H2      16.374868   13.285787   20.986415 H          1 MOL1         0.0783
       6    O2      15.542233   14.308515   22.588399 O.3        1 MOL1        -0.5519
       7    H3      15.545551   15.238574   22.930443 H          1 MOL1         0.3769
       8    C3      17.935569   14.320493   22.057719 C.3        1 MOL1         0.1053
       9    H4      18.021483   15.237308   22.656005 H          1 MOL1         0.0783
      10    O3      18.195211   13.180425   22.883598 O.3        1 MOL1        -0.5519
      11    H5      17.406611   13.098213   23.464465 H          1 MOL1         0.3769
      12    C4      18.978366   14.389862   20.912305 C.3        1 MOL1         0.1018
      13    H6      19.032971   13.402990   20.434370 H          1 MOL1         0.0783
      14    C5      18.600458   15.464034   19.851457 C.3        1 MOL1         0.1043
      15    H7      18.691079   16.453035   20.317769 H          1 MOL1         0.0783
      16    O4      17.229239   15.252031   19.435856 O.3        1 MOL1        -0.3740
      17    C6      19.481893   15.485056   18.576503 C.3        1 MOL1         0.0138
      18    H8      20.329015   16.158915   18.748211 H          1 MOL1         0.0794
      19    H9      18.896299   15.921441   17.756327 H          1 MOL1         0.0794
      20    O5      19.963391   14.191251   18.197345 O.3        1 MOL1        -0.5486
      21    H10     20.755938   14.011611   18.754320 H          1 MOL1         0.3769
      22    C7      14.665587   20.267891   21.882670 C.3        1 MOL1         0.2972
      23    H11     14.011001   21.130460   22.062235 H          1 MOL1         0.0751
      24    O6      16.051953   20.651983   21.817408 O.3        1 MOL1        -0.3740
      25    C8      14.510219   19.239996   23.028144 C.3        1 MOL1         0.1003
      26    H12     13.470064   18.888989   23.024102 H          1 MOL1         0.0783
      27    O7      14.803392   19.852439   24.294384 O.3        1 MOL1        -0.5519
      28    H13     15.401056   20.619242   24.111839 H          1 MOL1         0.3769
      29    C9      15.431214   18.021526   22.791050 C.3        1 MOL1         0.1053
      30    H14     16.467910   18.364238   22.887116 H          1 MOL1         0.0783
      31    O8      15.164978   17.017739   23.776169 O.3        1 MOL1        -0.5519
      32    H15     15.131689   17.504673   24.629737 H          1 MOL1         0.3769
      33    C10     15.250271   17.428169   21.372227 C.3        1 MOL1         0.1018
      34    H16     14.334813   16.821653   21.362942 H          1 MOL1         0.0783
      35    C11     15.192269   18.513076   20.257229 C.3        1 MOL1         0.1043
      36    H17     16.211718   18.893444   20.116859 H          1 MOL1         0.0783
      37    O9      14.326628   19.612870   20.643450 O.3        1 MOL1        -0.3740
      38    C12     14.714133   17.975258   18.887302 C.3        1 MOL1         0.0138
      39    H18     15.504891   17.340481   18.465237 H          1 MOL1         0.0794
      40    H19     14.580261   18.825027   18.204397 H          1 MOL1         0.0794
      41    O10     13.496711   17.227596   18.996655 O.3        1 MOL1        -0.5486
      42    H20     13.210523   16.989219   18.087880 H          1 MOL1         0.3769
      43    C13     18.487343   24.003711   21.318773 C.3        1 MOL1         0.2972
      44    H21     18.843722   25.023777   21.126108 H          1 MOL1         0.0751
      45    O11     19.584865   23.094886   21.539092 O.3        1 MOL1        -0.3740
      46    C14     17.603692   23.996753   22.591743 C.3        1 MOL1         0.1003
      47    H22     16.770582   24.691223   22.422139 H          1 MOL1         0.0783
      48    O12     18.366469   24.435614   23.727070 O.3        1 MOL1        -0.5519
      49    H23     19.307706   24.196890   23.544159 H          1 MOL1         0.3769
      50    C15     17.011545   22.591110   22.848850 C.3        1 MOL1         0.1053
      51    H24     17.839057   21.918595   23.109881 H          1 MOL1         0.0783
      52    O13     16.077470   22.648966   23.931755 O.3        1 MOL1        -0.5519
      53    H25     16.525770   23.181125   24.626600 H          1 MOL1         0.3769
      54    C16     16.317826   22.044271   21.577919 C.3        1 MOL1         0.1018
      55    H26     15.398893   22.618571   21.400606 H          1 MOL1         0.0783
      56    C17     17.237921   22.148257   20.331362 C.3        1 MOL1         0.1043
      57    H27     18.095923   21.481308   20.486782 H          1 MOL1         0.0783
      58    O14     17.708451   23.514126   20.204298 O.3        1 MOL1        -0.3740
      59    C18     16.572759   21.726986   18.994460 C.3        1 MOL1         0.0138
      60    H28     16.736200   20.652340   18.847224 H          1 MOL1         0.0794
      61    H29     17.086258   22.240210   18.170451 H          1 MOL1         0.0794
      62    O15     15.169048   22.007148   18.945931 O.3        1 MOL1        -0.5486
      63    H30     14.718269   21.314803   19.483374 H          1 MOL1         0.3769
      64    C19     23.614682   22.558284   20.595231 C.3        1 MOL1         0.2972
      65    H31     24.635792   22.652572   20.203600 H          1 MOL1         0.0751
      66    O16     23.390928   21.266489   21.191099 O.3        1 MOL1        -0.3740
      67    C20     23.312583   23.652919   21.653765 C.3        1 MOL1         0.1003
      68    H32     23.414258   24.624763   21.153475 H          1 MOL1         0.0783
      69    O17     24.235000   23.596175   22.752895 O.3        1 MOL1        -0.5519
      70    H33     24.184423   22.683323   23.134771 H          1 MOL1         0.3769
      71    C21     21.854649   23.529508   22.162606 C.3        1 MOL1         0.1053
      72    H34     21.764373   22.586866   22.719438 H          1 MOL1         0.0783
      73    O18     21.549756   24.630505   23.025505 O.3        1 MOL1        -0.5519
      74    H35     22.326788   24.713442   23.621943 H          1 MOL1         0.3769
      75    C22     20.852047   23.496131   20.981871 C.3        1 MOL1         0.1018
      76    H36     20.810185   24.501570   20.542814 H          1 MOL1         0.0783
      77    C23     21.270445   22.475435   19.884231 C.3        1 MOL1         0.1043
      78    H37     21.169483   21.463260   20.294636 H          1 MOL1         0.0783
      79    O19     22.655340   22.711940   19.526001 O.3        1 MOL1        -0.3740
      80    C24     20.422238   22.513847   18.587091 C.3        1 MOL1         0.0138
      81    H38     19.564829   21.841665   18.711550 H          1 MOL1         0.0794
      82    H39     21.025294   22.106039   17.764886 H          1 MOL1         0.0794
      83    O20     19.958454   23.825826   18.249892 O.3        1 MOL1        -0.5486
      84    H40     19.152124   23.988495   18.792126 H          1 MOL1         0.3769
      85    C25     25.041805   17.683912   22.243949 C.3        1 MOL1         0.2972
      86    H41     25.651536   16.816517   22.528504 H          1 MOL1         0.0751
      87    O21     23.677236   17.310008   21.972377 O.3        1 MOL1        -0.3740
      88    C26     25.042862   18.726003   23.386488 C.3        1 MOL1         0.1003
      89    H42     26.077219   19.064874   23.529276 H          1 MOL1         0.0783
      90    O22     24.557336   18.141582   24.605284 O.3        1 MOL1        -0.5519
      91    H43     23.973217   17.385788   24.346236 H          1 MOL1         0.3769
      92    C27     24.181930   19.949355   23.006134 C.3        1 MOL1         0.1053
      93    H44     23.140626   19.615912   22.964531 H          1 MOL1         0.0783
      94    O23     24.319025   20.958743   24.010987 O.3        1 MOL1        -0.5519
      95    H45     24.310501   20.470755   24.864727 H          1 MOL1         0.3769
      96    C28     24.549087   20.522522   21.614766 C.3        1 MOL1         0.1018
      97    H46     25.439043   21.157776   21.716441 H          1 MOL1         0.0783
      98    C29     24.782738   19.423114   20.537431 C.3        1 MOL1         0.1043
      99    H47     23.796836   19.043793   20.243458 H          1 MOL1         0.0783
     100    O24     25.569961   18.321848   21.062751 O.3        1 MOL1        -0.3740
     101    C30     25.466505   19.947808   19.252555 C.3        1 MOL1         0.0138
     102    H48     24.752221   20.583177   18.711619 H          1 MOL1         0.0794
     103    H49     25.697585   19.092384   18.603444 H          1 MOL1         0.0794
     104    O25     26.656988   20.691084   19.540639 O.3        1 MOL1        -0.5486
     105    H50     27.080024   20.920528   18.684391 H          1 MOL1         0.3769
     106    C31     21.354516   13.902623   21.283846 C.3        1 MOL1         0.2972
     107    H51     21.033471   12.882762   21.036100 H          1 MOL1         0.0751
     108    O26     20.225187   14.761688   21.532662 O.3        1 MOL1        -0.3740
     109    C32     22.215722   13.879720   22.572578 C.3        1 MOL1         0.1003
     110    H52     23.072961   13.219542   22.387351 H          1 MOL1         0.0783
     111    O27     21.446189   13.363566   23.669879 O.3        1 MOL1        -0.5519
     112    H53     20.514170   13.649492   23.514678 H          1 MOL1         0.3769
     113    C33     22.761243   15.289364   22.908434 C.3        1 MOL1         0.1053
     114    H54     21.912513   15.926745   23.188915 H          1 MOL1         0.0783
     115    O28     23.684713   15.199606   23.998315 O.3        1 MOL1        -0.5519
     116    H55     23.217609   14.674976   24.685483 H          1 MOL1         0.3769
     117    C34     23.454456   15.919801   21.677030 C.3        1 MOL1         0.1018
     118    H56     24.393080   15.383658   21.484007 H          1 MOL1         0.0783
     119    C35     22.557945   15.844978   20.412960 C.3        1 MOL1         0.1043
     120    H57     21.675711   16.474722   20.586943 H          1 MOL1         0.0783
     121    O29     22.136982   14.471874   20.210291 O.3        1 MOL1        -0.3740
     122    C36     23.233647   16.353595   19.111687 C.3        1 MOL1         0.0138
     123    H58     23.020355   17.424195   19.004894 H          1 MOL1         0.0794
     124    H59     22.765550   15.852640   18.253800 H          1 MOL1         0.0794
     125    O30     24.650718   16.141981   19.086941 O.3        1 MOL1        -0.5486
     126    H60     25.051376   16.764789   19.737393 H          1 MOL1         0.3769
     127    C1      19.076712   18.985019   22.186455 C.3        1 MOL1        -0.1693
     128    H1      18.401862   19.782127   22.514395 H          1 MOL1         0.0829
     129    H2      18.779579   18.663203   21.182379 H          1 MOL1         0.0829
     130    C2      19.297729   17.851670   23.240352 C.3        1 MOL1        -0.1768
     131    H3      18.447683   17.610376   23.886809 H          1 MOL1         0.0829
     132    H4      19.706960   16.921388   22.835740 H          1 MOL1         0.0829
     133    C3      20.367090   18.799733   23.856731 C.3        1 MOL1         0.1211
     134    H5      19.947863   19.561848   24.527387 H          1 MOL1         0.0786
     135    C4      20.592250   19.296815   22.395986 C.3        1 MOL1        -0.1768
     136    H6      20.885196   20.346102   22.295602 H          1 MOL1         0.0829
     137    H7      21.273297   18.677107   21.800880 H          1 MOL1         0.0829
     138    O1      21.460734   18.149615   24.461652 O.3        1 MOL1        -0.5515
     139    H8      22.127538   18.828245   24.688675 H          1 MOL1         0.3773
@<TRIPOS>BOND
    1     1     2    1
    2     1     3    1
    3     1     4    1
    4     4     5    1
    5     4     6    1
    6     6     7    1
    7     4     8    1
    8     8     9    1
    9     8    10    1
   10    10    11    1
   11     8    12    1
   12    12    13    1
   13    12    14    1
   14    14    15    1
   15     1    16    1
   16    14    16    1
   17    14    17    1
   18    17    18    1
   19    17    19    1
   20    17    20    1
   21    20    21    1
   22    22    23    1
   23    22    24    1
   24    22    25    1
   25    25    26    1
   26    25    27    1
   27    27    28    1
   28    25    29    1
   29    29    30    1
   30    29    31    1
   31    31    32    1
   32     3    33    1
   33    29    33    1
   34    33    34    1
   35    33    35    1
   36    35    36    1
   37    22    37    1
   38    35    37    1
   39    35    38    1
   40    38    39    1
   41    38    40    1
   42    38    41    1
   43    41    42    1
   44    43    44    1
   45    43    45    1
   46    43    46    1
   47    46    47    1
   48    46    48    1
   49    48    49    1
   50    46    50    1
   51    50    51    1
   52    50    52    1
   53    52    53    1
   54    24    54    1
   55    50    54    1
   56    54    55    1
   57    54    56    1
   58    56    57    1
   59    43    58    1
   60    56    58    1
   61    56    59    1
   62    59    60    1
   63    59    61    1
   64    59    62    1
   65    62    63    1
   66    64    65    1
   67    64    66    1
   68    64    67    1
   69    67    68    1
   70    67    69    1
   71    69    70    1
   72    67    71    1
   73    71    72    1
   74    71    73    1
   75    73    74    1
   76    45    75    1
   77    71    75    1
   78    75    76    1
   79    75    77    1
   80    77    78    1
   81    64    79    1
   82    77    79    1
   83    77    80    1
   84    80    81    1
   85    80    82    1
   86    80    83    1
   87    83    84    1
   88    85    86    1
   89    85    87    1
   90    85    88    1
   91    88    89    1
   92    88    90    1
   93    90    91    1
   94    88    92    1
   95    92    93    1
   96    92    94    1
   97    94    95    1
   98    66    96    1
   99    92    96    1
  100    96    97    1
  101    96    98    1
  102    98    99    1
  103    85   100    1
  104    98   100    1
  105    98   101    1
  106   101   102    1
  107   101   103    1
  108   101   104    1
  109   104   105    1
  110   106   107    1
  111    12   108    1
  112   106   108    1
  113   106   109    1
  114   109   110    1
  115   109   111    1
  116   111   112    1
  117   109   113    1
  118   113   114    1
  119   113   115    1
  120   115   116    1
  121    87   117    1
  122   113   117    1
  123   117   118    1
  124   117   119    1
  125   119   120    1
  126   106   121    1
  127   119   121    1
  128   119   122    1
  129   122   123    1
  130   122   124    1
  131   122   125    1
  132   125   126    1
  133   127   128    1
  134   127   129    1
  135   127   130    1
  136   130   131    1
  137   130   132    1
  138   130   133    1
  139   133   134    1
  140   127   135    1
  141   133   135    1
  142   135   136    1
  143   135   137    1
  144   133   138    1
  145   138   139    1
@<TRIPOS>SUBSTRUCTURE
       1 MOL1            1 RESIDUE      1      MOL     
       2 MOL1          139 RESIDUE      1      MOL     
@<SCITEGIC>MOL_PROPERTY
feprocess Rank
SciTegic.value.IntegerValue
102

@<SCITEGIC>MOL_PROPERTY
Conf_Id
SciTegic.value.IntegerValue
546

@<SCITEGIC>MOL_PROPERTY
Probability
SciTegic.value.DoubleValue
0.03

@<SCITEGIC>MOL_PROPERTY
G
SciTegic.value.DoubleValue
548.985

@<SCITEGIC>MOL_PROPERTY
E
SciTegic.value.DoubleValue
371.210

@<SCITEGIC>MOL_PROPERTY
-TS
SciTegic.value.DoubleValue
177.775

@<SCITEGIC>MOL_PROPERTY
U+W
SciTegic.value.DoubleValue
248.699

@<SCITEGIC>MOL_PROPERTY
U
SciTegic.value.DoubleValue
286.554

@<SCITEGIC>MOL_PROPERTY
W
SciTegic.value.DoubleValue
-37.855

@<SCITEGIC>MOL_PROPERTY
W(PB)
SciTegic.value.DoubleValue
-43.792

@<SCITEGIC>MOL_PROPERTY
W(SA)
SciTegic.value.DoubleValue
5.938

@<SCITEGIC>MOL_PROPERTY
Valence
SciTegic.value.DoubleValue
154.491

@<SCITEGIC>MOL_PROPERTY
Coulomb
SciTegic.value.DoubleValue
154.116

@<SCITEGIC>MOL_PROPERTY
VdW
SciTegic.value.DoubleValue
-22.053

@<SCITEGIC>MOL_PROPERTY
VdW6
SciTegic.value.DoubleValue
-168.325

@<SCITEGIC>MOL_PROPERTY
VdW12
SciTegic.value.DoubleValue
146.272

@<SCITEGIC>MOL_PROPERTY
Bond
SciTegic.value.DoubleValue
4.509

@<SCITEGIC>MOL_PROPERTY
Angle
SciTegic.value.DoubleValue
11.727

@<SCITEGIC>MOL_PROPERTY
Pdih
SciTegic.value.DoubleValue
138.255

@<SCITEGIC>MOL_PROPERTY
Idih
SciTegic.value.DoubleValue
0.000

@<SCITEGIC>MOL_PROPERTY
Tether
SciTegic.value.DoubleValue
0.000

@<TRIPOS>MOLECULE
CD_guest-s16_fast_vm2_rndm.mol2 : feprocess host+ligand conformer 103
         139         145           2
SMALL
USER_CHARGES
 
@<TRIPOS>ATOM
       1    C1      16.136330   15.072285   21.794775 C.3        1 MOL1         0.2972
       2    H1      15.057043   14.929686   21.934535 H          1 MOL1         0.0751
       3    O1      16.490851   16.468744   21.783904 O.3        1 MOL1        -0.3740
       4    C2      16.907281   14.387376   22.948505 C.3        1 MOL1         0.1003
       5    H2      16.671919   13.315638   22.915406 H          1 MOL1         0.0783
       6    O2      16.493294   14.928595   24.213352 O.3        1 MOL1        -0.5519
       7    H3      16.153633   15.840265   24.037262 H          1 MOL1         0.3769
       8    C3      18.434244   14.548953   22.765807 C.3        1 MOL1         0.1053
       9    H4      18.680900   15.605610   22.916899 H          1 MOL1         0.0783
      10    O3      19.125228   13.756386   23.737559 O.3        1 MOL1        -0.5519
      11    H5      18.679447   13.955914   24.590770 H          1 MOL1         0.3769
      12    C4      18.898228   14.150460   21.344236 C.3        1 MOL1         0.1018
      13    H6      18.962302   13.055380   21.292130 H          1 MOL1         0.0783
      14    C5      17.971391   14.695080   20.218805 C.3        1 MOL1         0.1043
      15    H7      18.162808   15.771647   20.129442 H          1 MOL1         0.0783
      16    O4      16.573926   14.488632   20.551225 O.3        1 MOL1        -0.3740
      17    C6      18.237113   14.066952   18.829563 C.3        1 MOL1         0.0138
      18    H8      19.194058   14.448864   18.449336 H          1 MOL1         0.0794
      19    H9      17.454628   14.404678   18.136706 H          1 MOL1         0.0794
      20    O5      18.270853   12.635520   18.882348 O.3        1 MOL1        -0.5486
      21    H10     18.358502   12.305087   17.961625 H          1 MOL1         0.3769
      22    C7      14.808497   20.249173   21.204507 C.3        1 MOL1         0.2972
      23    H11     14.110310   21.066647   20.983239 H          1 MOL1         0.0751
      24    O6      16.134564   20.748546   21.473030 O.3        1 MOL1        -0.3740
      25    C8      14.323132   19.479582   22.458993 C.3        1 MOL1         0.1003
      26    H12     13.315585   19.098458   22.247685 H          1 MOL1         0.0783
      27    O7      14.271973   20.360992   23.591351 O.3        1 MOL1        -0.5519
      28    H13     15.002872   21.013900   23.470691 H          1 MOL1         0.3769
      29    C9      15.241265   18.271399   22.756021 C.3        1 MOL1         0.1053
      30    H14     16.220997   18.665799   23.052309 H          1 MOL1         0.0783
      31    O8      14.690880   17.490961   23.822357 O.3        1 MOL1        -0.5519
      32    H15     14.438110   18.144499   24.511985 H          1 MOL1         0.3769
      33    C10     15.423734   17.391231   21.495575 C.3        1 MOL1         0.1018
      34    H16     14.476314   16.877102   21.286555 H          1 MOL1         0.0783
      35    C11     15.831534   18.237822   20.258845 C.3        1 MOL1         0.1043
      36    H17     16.831120   18.649454   20.447666 H          1 MOL1         0.0783
      37    O9      14.887228   19.326739   20.095196 O.3        1 MOL1        -0.3740
      38    C12     15.907164   17.451427   18.923632 C.3        1 MOL1         0.0138
      39    H18     16.921377   17.049769   18.811003 H          1 MOL1         0.0794
      40    H19     15.753082   18.154435   18.094080 H          1 MOL1         0.0794
      41    O10     14.957432   16.382981   18.840224 O.3        1 MOL1        -0.5486
      42    H20     15.314740   15.638038   19.377807 H          1 MOL1         0.3769
      43    C13     18.657534   23.955301   20.582619 C.3        1 MOL1         0.2972
      44    H21     19.096170   24.881426   20.189021 H          1 MOL1         0.0751
      45    O11     19.637896   23.145350   21.257898 O.3        1 MOL1        -0.3740
      46    C14     17.512619   24.261462   21.583265 C.3        1 MOL1         0.1003
      47    H22     16.750138   24.835018   21.040387 H          1 MOL1         0.0783
      48    O12     17.985782   25.042578   22.692276 O.3        1 MOL1        -0.5519
      49    H23     18.783736   24.584171   23.060058 H          1 MOL1         0.3769
      50    C15     16.855138   22.951257   22.085293 C.3        1 MOL1         0.1053
      51    H24     17.587244   22.416052   22.705421 H          1 MOL1         0.0783
      52    O13     15.699735   23.267230   22.869107 O.3        1 MOL1        -0.5519
      53    H25     15.992535   23.973986   23.486097 H          1 MOL1         0.3769
      54    C16     16.450611   22.034377   20.902210 C.3        1 MOL1         0.1018
      55    H26     15.584339   22.486773   20.401878 H          1 MOL1         0.0783
      56    C17     17.603742   21.861860   19.870994 C.3        1 MOL1         0.1043
      57    H27     18.409210   21.284643   20.341373 H          1 MOL1         0.0783
      58    O14     18.104751   23.170375   19.504476 O.3        1 MOL1        -0.3740
      59    C18     17.222116   21.115187   18.566908 C.3        1 MOL1         0.0138
      60    H28     17.374444   20.040708   18.721710 H          1 MOL1         0.0794
      61    H29     17.919474   21.419940   17.775157 H          1 MOL1         0.0794
      62    O15     15.873956   21.354831   18.148609 O.3        1 MOL1        -0.5486
      63    H30     15.300257   20.761119   18.686503 H          1 MOL1         0.3769
      64    C19     23.622413   22.834678   22.189040 C.3        1 MOL1         0.2972
      65    H31     24.686974   22.972277   22.418144 H          1 MOL1         0.0751
      66    O16     23.273932   21.439777   22.098339 O.3        1 MOL1        -0.3740
      67    C20     22.761598   23.473799   23.304179 C.3        1 MOL1         0.1003
      68    H32     22.995686   24.546002   23.330551 H          1 MOL1         0.0783
      69    O17     23.078441   22.885027   24.575966 O.3        1 MOL1        -0.5519
      70    H33     23.436856   21.981888   24.392844 H          1 MOL1         0.3769
      71    C21     21.253549   23.320503   22.997366 C.3        1 MOL1         0.1053
      72    H34     20.994975   22.260525   23.089903 H          1 MOL1         0.0783
      73    O18     20.493286   24.078366   23.943701 O.3        1 MOL1        -0.5519
      74    H35     20.853326   23.821523   24.821753 H          1 MOL1         0.3769
      75    C22     20.899794   23.770763   21.558972 C.3        1 MOL1         0.1018
      76    H36     20.834827   24.866900   21.542530 H          1 MOL1         0.0783
      77    C23     21.915058   23.272116   20.490396 C.3        1 MOL1         0.1043
      78    H37     21.736302   22.199598   20.343539 H          1 MOL1         0.0783
      79    O19     23.281608   23.465980   20.938373 O.3        1 MOL1        -0.3740
      80    C24     21.751929   23.954839   19.111258 C.3        1 MOL1         0.0138
      81    H38     20.823110   23.593230   18.649769 H          1 MOL1         0.0794
      82    H39     22.581204   23.639918   18.463572 H          1 MOL1         0.0794
      83    O20     21.717688   25.383331   19.217302 O.3        1 MOL1        -0.5486
      84    H40     21.693437   25.749511   18.306300 H          1 MOL1         0.3769
      85    C25     24.997545   17.676516   21.542243 C.3        1 MOL1         0.2972
      86    H41     25.709760   16.862574   21.354833 H          1 MOL1         0.0751
      87    O21     23.652882   17.173990   21.682861 O.3        1 MOL1        -0.3740
      88    C26     25.375217   18.403450   22.857795 C.3        1 MOL1         0.1003
      89    H42     26.397941   18.786334   22.745795 H          1 MOL1         0.0783
      90    O22     25.327399   17.485551   23.961107 O.3        1 MOL1        -0.5519
      91    H43     24.658313   16.799827   23.724075 H          1 MOL1         0.3769
      92    C27     24.437201   19.606082   23.114619 C.3        1 MOL1         0.1053
      93    H44     23.433380   19.209831   23.311379 H          1 MOL1         0.0783
      94    O23     24.895111   20.347568   24.250034 O.3        1 MOL1        -0.5519
      95    H45     25.096780   19.669329   24.932671 H          1 MOL1         0.3769
      96    C28     24.365014   20.527931   21.873580 C.3        1 MOL1         0.1018
      97    H46     25.326017   21.047748   21.764572 H          1 MOL1         0.0783
      98    C29     24.065120   19.724224   20.579296 C.3        1 MOL1         0.1043
      99    H47     23.052824   19.312071   20.669692 H          1 MOL1         0.0783
     100    O24     25.015514   18.634784   20.460523 O.3        1 MOL1        -0.3740
     101    C30     24.102728   20.555795   19.270089 C.3        1 MOL1         0.0138
     102    H48     23.101722   20.964873   19.087013 H          1 MOL1         0.0794
     103    H49     24.325406   19.881184   18.432554 H          1 MOL1         0.0794
     104    O25     25.056149   21.623665   19.304143 O.3        1 MOL1        -0.5486
     105    H50     24.652764   22.352344   19.831182 H          1 MOL1         0.3769
     106    C31     21.192216   14.019576   20.488645 C.3        1 MOL1         0.2972
     107    H51     20.775624   13.118962   20.019287 H          1 MOL1         0.0751
     108    O26     20.182656   14.778371   21.178444 O.3        1 MOL1        -0.3740
     109    C32     22.294636   13.652228   21.515564 C.3        1 MOL1         0.1003
     110    H52     23.075258   13.099870   20.976545 H          1 MOL1         0.0783
     111    O27     21.763499   12.823776   22.563167 O.3        1 MOL1        -0.5519
     112    H53     20.942774   13.264211   22.900595 H          1 MOL1         0.3769
     113    C33     22.936984   14.927610   22.116918 C.3        1 MOL1         0.1053
     114    H54     22.183003   15.416382   22.746509 H          1 MOL1         0.0783
     115    O28     24.066048   14.564970   22.918370 O.3        1 MOL1        -0.5519
     116    H55     23.759214   13.812489   23.471334 H          1 MOL1         0.3769
     117    C34     23.373155   15.927076   21.014212 C.3        1 MOL1         0.1018
     118    H56     24.260754   15.519577   20.512621 H          1 MOL1         0.0783
     119    C35     22.252466   16.162576   19.960975 C.3        1 MOL1         0.1043
     120    H57     21.427902   16.700907   20.446560 H          1 MOL1         0.0783
     121    O29     21.779590   14.877929   19.488467 O.3        1 MOL1        -0.3740
     122    C36     22.668527   16.997032   18.721965 C.3        1 MOL1         0.0138
     123    H58     22.490214   18.056854   18.936432 H          1 MOL1         0.0794
     124    H59     22.006283   16.732186   17.886892 H          1 MOL1         0.0794
     125    O30     24.035021   16.804480   18.339626 O.3        1 MOL1        -0.5486
     126    H60     24.583755   17.337104   18.961365 H          1 MOL1         0.3769
     127    C1      20.455724   18.096017   23.406646 C.3        1 MOL1        -0.1693
     128    H1      21.078543   17.342520   22.915712 H          1 MOL1         0.0829
     129    H2      20.484947   17.921972   24.489345 H          1 MOL1         0.0829
     130    C2      19.024557   18.286663   22.811700 C.3        1 MOL1        -0.1768
     131    H3      18.942381   18.056425   21.743195 H          1 MOL1         0.0829
     132    H4      18.223643   17.770563   23.348699 H          1 MOL1         0.0829
     133    C3      19.178614   19.802758   23.133603 C.3        1 MOL1         0.1211
     134    H5      18.735830   20.477154   22.393449 H          1 MOL1         0.0786
     135    C4      20.710765   19.573865   22.972651 C.3        1 MOL1        -0.1768
     136    H6      21.071942   19.691997   21.945141 H          1 MOL1         0.0829
     137    H7      21.351288   20.155604   23.643044 H          1 MOL1         0.0829
     138    O1      18.767491   20.176610   24.428263 O.3        1 MOL1        -0.5515
     139    H8      19.195412   19.549512   25.043179 H          1 MOL1         0.3773
@<TRIPOS>BOND
    1     1     2    1
    2     1     3    1
    3     1     4    1
    4     4     5    1
    5     4     6    1
    6     6     7    1
    7     4     8    1
    8     8     9    1
    9     8    10    1
   10    10    11    1
   11     8    12    1
   12    12    13    1
   13    12    14    1
   14    14    15    1
   15     1    16    1
   16    14    16    1
   17    14    17    1
   18    17    18    1
   19    17    19    1
   20    17    20    1
   21    20    21    1
   22    22    23    1
   23    22    24    1
   24    22    25    1
   25    25    26    1
   26    25    27    1
   27    27    28    1
   28    25    29    1
   29    29    30    1
   30    29    31    1
   31    31    32    1
   32     3    33    1
   33    29    33    1
   34    33    34    1
   35    33    35    1
   36    35    36    1
   37    22    37    1
   38    35    37    1
   39    35    38    1
   40    38    39    1
   41    38    40    1
   42    38    41    1
   43    41    42    1
   44    43    44    1
   45    43    45    1
   46    43    46    1
   47    46    47    1
   48    46    48    1
   49    48    49    1
   50    46    50    1
   51    50    51    1
   52    50    52    1
   53    52    53    1
   54    24    54    1
   55    50    54    1
   56    54    55    1
   57    54    56    1
   58    56    57    1
   59    43    58    1
   60    56    58    1
   61    56    59    1
   62    59    60    1
   63    59    61    1
   64    59    62    1
   65    62    63    1
   66    64    65    1
   67    64    66    1
   68    64    67    1
   69    67    68    1
   70    67    69    1
   71    69    70    1
   72    67    71    1
   73    71    72    1
   74    71    73    1
   75    73    74    1
   76    45    75    1
   77    71    75    1
   78    75    76    1
   79    75    77    1
   80    77    78    1
   81    64    79    1
   82    77    79    1
   83    77    80    1
   84    80    81    1
   85    80    82    1
   86    80    83    1
   87    83    84    1
   88    85    86    1
   89    85    87    1
   90    85    88    1
   91    88    89    1
   92    88    90    1
   93    90    91    1
   94    88    92    1
   95    92    93    1
   96    92    94    1
   97    94    95    1
   98    66    96    1
   99    92    96    1
  100    96    97    1
  101    96    98    1
  102    98    99    1
  103    85   100    1
  104    98   100    1
  105    98   101    1
  106   101   102    1
  107   101   103    1
  108   101   104    1
  109   104   105    1
  110   106   107    1
  111    12   108    1
  112   106   108    1
  113   106   109    1
  114   109   110    1
  115   109   111    1
  116   111   112    1
  117   109   113    1
  118   113   114    1
  119   113   115    1
  120   115   116    1
  121    87   117    1
  122   113   117    1
  123   117   118    1
  124   117   119    1
  125   119   120    1
  126   106   121    1
  127   119   121    1
  128   119   122    1
  129   122   123    1
  130   122   124    1
  131   122   125    1
  132   125   126    1
  133   127   128    1
  134   127   129    1
  135   127   130    1
  136   130   131    1
  137   130   132    1
  138   130   133    1
  139   133   134    1
  140   127   135    1
  141   133   135    1
  142   135   136    1
  143   135   137    1
  144   133   138    1
  145   138   139    1
@<TRIPOS>SUBSTRUCTURE
       1 MOL1            1 RESIDUE      1      MOL     
       2 MOL1          139 RESIDUE      1      MOL     
@<SCITEGIC>MOL_PROPERTY
feprocess Rank
SciTegic.value.IntegerValue
103

@<SCITEGIC>MOL_PROPERTY
Conf_Id
SciTegic.value.IntegerValue
65

@<SCITEGIC>MOL_PROPERTY
Probability
SciTegic.value.DoubleValue
0.03

@<SCITEGIC>MOL_PROPERTY
G
SciTegic.value.DoubleValue
548.989

@<SCITEGIC>MOL_PROPERTY
E
SciTegic.value.DoubleValue
372.756

@<SCITEGIC>MOL_PROPERTY
-TS
SciTegic.value.DoubleValue
176.233

@<SCITEGIC>MOL_PROPERTY
U+W
SciTegic.value.DoubleValue
250.245

@<SCITEGIC>MOL_PROPERTY
U
SciTegic.value.DoubleValue
289.127

@<SCITEGIC>MOL_PROPERTY
W
SciTegic.value.DoubleValue
-38.883

@<SCITEGIC>MOL_PROPERTY
W(PB)
SciTegic.value.DoubleValue
-44.805

@<SCITEGIC>MOL_PROPERTY
W(SA)
SciTegic.value.DoubleValue
5.922

@<SCITEGIC>MOL_PROPERTY
Valence
SciTegic.value.DoubleValue
155.647

@<SCITEGIC>MOL_PROPERTY
Coulomb
SciTegic.value.DoubleValue
155.463

@<SCITEGIC>MOL_PROPERTY
VdW
SciTegic.value.DoubleValue
-21.982

@<SCITEGIC>MOL_PROPERTY
VdW6
SciTegic.value.DoubleValue
-166.586

@<SCITEGIC>MOL_PROPERTY
VdW12
SciTegic.value.DoubleValue
144.603

@<SCITEGIC>MOL_PROPERTY
Bond
SciTegic.value.DoubleValue
4.456

@<SCITEGIC>MOL_PROPERTY
Angle
SciTegic.value.DoubleValue
10.823

@<SCITEGIC>MOL_PROPERTY
Pdih
SciTegic.value.DoubleValue
140.368

@<SCITEGIC>MOL_PROPERTY
Idih
SciTegic.value.DoubleValue
0.000

@<SCITEGIC>MOL_PROPERTY
Tether
SciTegic.value.DoubleValue
0.000

@<TRIPOS>MOLECULE
CD_guest-s16_fast_vm2_rndm.mol2 : feprocess host+ligand conformer 104
         139         145           2
SMALL
USER_CHARGES
 
@<TRIPOS>ATOM
       1    C1      16.609031   15.685077   21.952627 C.3        1 MOL1         0.2972
       2    H1      15.534862   15.567804   22.133251 H          1 MOL1         0.0751
       3    O1      16.942749   17.063855   21.678872 O.3        1 MOL1        -0.3740
       4    C2      17.386917   15.232547   23.213327 C.3        1 MOL1         0.1003
       5    H2      17.088145   14.198520   23.429508 H          1 MOL1         0.0783
       6    O2      17.048618   16.065054   24.331666 O.3        1 MOL1        -0.5519
       7    H3      17.064438   16.986549   23.992857 H          1 MOL1         0.3769
       8    C3      18.914746   15.246433   22.976258 C.3        1 MOL1         0.1053
       9    H4      19.241252   16.283986   22.833423 H          1 MOL1         0.0783
      10    O3      19.561038   14.685694   24.122960 O.3        1 MOL1        -0.5519
      11    H5      19.159276   15.147094   24.891999 H          1 MOL1         0.3769
      12    C4      19.279051   14.446894   21.703721 C.3        1 MOL1         0.1018
      13    H6      19.132670   13.377226   21.905528 H          1 MOL1         0.0783
      14    C5      18.417603   14.881253   20.489019 C.3        1 MOL1         0.1043
      15    H7      18.715380   15.901278   20.225710 H          1 MOL1         0.0783
      16    O4      17.009445   14.868884   20.829319 O.3        1 MOL1        -0.3740
      17    C6      18.625699   13.993804   19.237920 C.3        1 MOL1         0.0138
      18    H8      19.629308   14.188273   18.835584 H          1 MOL1         0.0794
      19    H9      17.902501   14.293360   18.467731 H          1 MOL1         0.0794
      20    O5      18.485029   12.599531   19.538418 O.3        1 MOL1        -0.5486
      21    H10     18.562815   12.103668   18.694305 H          1 MOL1         0.3769
      22    C7      15.006131   20.472587   20.184631 C.3        1 MOL1         0.2972
      23    H11     14.422695   21.179382   19.580494 H          1 MOL1         0.0751
      24    O6      15.704403   21.140278   21.250832 O.3        1 MOL1        -0.3740
      25    C8      14.071712   19.429656   20.842422 C.3        1 MOL1         0.1003
      26    H12     13.533446   18.913107   20.036952 H          1 MOL1         0.0783
      27    O7      13.129353   20.085460   21.704909 O.3        1 MOL1        -0.5519
      28    H13     13.653396   20.720686   22.245768 H          1 MOL1         0.3769
      29    C9      14.873789   18.372701   21.643832 C.3        1 MOL1         0.1053
      30    H14     15.313740   18.867683   22.520299 H          1 MOL1         0.0783
      31    O8      13.959304   17.357696   22.067125 O.3        1 MOL1        -0.5519
      32    H15     13.190475   17.842634   22.441396 H          1 MOL1         0.3769
      33    C10     16.033847   17.768227   20.801438 C.3        1 MOL1         0.1018
      34    H16     15.608535   17.095846   20.045338 H          1 MOL1         0.0783
      35    C11     16.858913   18.878015   20.091705 C.3        1 MOL1         0.1043
      36    H17     17.395556   19.453195   20.856567 H          1 MOL1         0.0783
      37    O9      15.964836   19.759675   19.374022 O.3        1 MOL1        -0.3740
      38    C12     17.918168   18.345460   19.095463 C.3        1 MOL1         0.0138
      39    H18     18.784979   17.989011   19.665874 H          1 MOL1         0.0794
      40    H19     18.268329   19.181574   18.475726 H          1 MOL1         0.0794
      41    O10     17.414643   17.293738   18.262041 O.3        1 MOL1        -0.5486
      42    H20     17.117671   16.565841   18.848515 H          1 MOL1         0.3769
      43    C13     18.202472   24.366972   21.606739 C.3        1 MOL1         0.2972
      44    H21     18.716727   25.334969   21.658790 H          1 MOL1         0.0751
      45    O11     19.094787   23.266074   21.862092 O.3        1 MOL1        -0.3740
      46    C14     17.070655   24.321560   22.653442 C.3        1 MOL1         0.1003
      47    H22     16.353054   25.114526   22.405528 H          1 MOL1         0.0783
      48    O12     17.600689   24.546889   23.970226 O.3        1 MOL1        -0.5519
      49    H23     18.500486   24.134564   23.995637 H          1 MOL1         0.3769
      50    C15     16.332625   22.966956   22.593421 C.3        1 MOL1         0.1053
      51    H24     17.023333   22.199399   22.966039 H          1 MOL1         0.0783
      52    O13     15.181944   23.024159   23.443383 O.3        1 MOL1        -0.5519
      53    H25     15.507559   23.402735   24.289777 H          1 MOL1         0.3769
      54    C16     15.911121   22.566540   21.152875 C.3        1 MOL1         0.1018
      55    H26     14.974178   23.084911   20.912101 H          1 MOL1         0.0783
      56    C17     16.996726   22.884638   20.068955 C.3        1 MOL1         0.1043
      57    H27     17.768980   22.106404   20.125014 H          1 MOL1         0.0783
      58    O14     17.609143   24.177553   20.311552 O.3        1 MOL1        -0.3740
      59    C18     16.474970   22.925305   18.608970 C.3        1 MOL1         0.0138
      60    H28     16.338699   21.903231   18.238436 H          1 MOL1         0.0794
      61    H29     17.248246   23.384741   17.978551 H          1 MOL1         0.0794
      62    O15     15.248266   23.655800   18.490069 O.3        1 MOL1        -0.5486
      63    H30     15.029710   23.718532   17.534571 H          1 MOL1         0.3769
      64    C19     23.189046   22.416883   21.851327 C.3        1 MOL1         0.2972
      65    H31     24.278668   22.546265   21.813015 H          1 MOL1         0.0751
      66    O16     22.832522   21.021084   21.894657 O.3        1 MOL1        -0.3740
      67    C20     22.637029   23.113325   23.120764 C.3        1 MOL1         0.1003
      68    H32     22.948434   24.165101   23.077585 H          1 MOL1         0.0783
      69    O17     23.178180   22.506091   24.305509 O.3        1 MOL1        -0.5519
      70    H33     23.790808   21.790702   24.004326 H          1 MOL1         0.3769
      71    C21     21.093444   23.069845   23.153733 C.3        1 MOL1         0.1053
      72    H34     20.789032   22.025666   23.288328 H          1 MOL1         0.0783
      73    O18     20.609934   23.862604   24.243462 O.3        1 MOL1        -0.5519
      74    H35     21.166795   23.601289   25.010618 H          1 MOL1         0.3769
      75    C22     20.497766   23.578284   21.821776 C.3        1 MOL1         0.1018
      76    H36     20.683466   24.658012   21.748972 H          1 MOL1         0.0783
      77    C23     21.131646   22.859349   20.600783 C.3        1 MOL1         0.1043
      78    H37     20.861549   21.799223   20.655637 H          1 MOL1         0.0783
      79    O19     22.572976   22.989808   20.675571 O.3        1 MOL1        -0.3740
      80    C24     20.657871   23.372321   19.216522 C.3        1 MOL1         0.0138
      81    H38     19.731890   22.847663   18.948922 H          1 MOL1         0.0794
      82    H39     21.407963   23.095666   18.463665 H          1 MOL1         0.0794
      83    O20     20.431151   24.785405   19.186462 O.3        1 MOL1        -0.5486
      84    H40     19.498953   24.926830   19.468148 H          1 MOL1         0.3769
      85    C25     25.014943   17.480540   21.026966 C.3        1 MOL1         0.2972
      86    H41     25.783529   16.857507   20.551632 H          1 MOL1         0.0751
      87    O21     24.129776   16.674642   21.825586 O.3        1 MOL1        -0.3740
      88    C26     25.684103   18.516036   21.974881 C.3        1 MOL1         0.1003
      89    H42     26.430567   19.064773   21.386029 H          1 MOL1         0.0783
      90    O22     26.337846   17.844833   23.061961 O.3        1 MOL1        -0.5519
      91    H43     25.702682   17.157564   23.370166 H          1 MOL1         0.3769
      92    C27     24.662066   19.543565   22.525975 C.3        1 MOL1         0.1053
      93    H44     23.968170   19.019834   23.197506 H          1 MOL1         0.0783
      94    O23     25.356549   20.571413   23.242834 O.3        1 MOL1        -0.5519
      95    H45     26.000962   20.094955   23.812642 H          1 MOL1         0.3769
      96    C28     23.845508   20.148528   21.361308 C.3        1 MOL1         0.1018
      97    H46     24.528724   20.693878   20.695939 H          1 MOL1         0.0783
      98    C29     23.173049   19.024895   20.539920 C.3        1 MOL1         0.1043
      99    H47     22.513775   18.440748   21.194988 H          1 MOL1         0.0783
     100    O24     24.233709   18.184351   20.031540 O.3        1 MOL1        -0.3740
     101    C30     22.323362   19.529167   19.346509 C.3        1 MOL1         0.0138
     102    H48     21.327979   19.798276   19.720677 H          1 MOL1         0.0794
     103    H49     22.185107   18.700982   18.638935 H          1 MOL1         0.0794
     104    O25     22.908625   20.655886   18.681232 O.3        1 MOL1        -0.5486
     105    H50     22.922145   21.403393   19.322400 H          1 MOL1         0.3769
     106    C31     21.501795   13.624250   21.103341 C.3        1 MOL1         0.2972
     107    H51     20.923436   12.724875   20.855592 H          1 MOL1         0.0751
     108    O26     20.646943   14.754872   21.370612 O.3        1 MOL1        -0.3740
     109    C32     22.429436   13.374839   22.313795 C.3        1 MOL1         0.1003
     110    H52     23.165812   12.619120   22.010451 H          1 MOL1         0.0783
     111    O27     21.700366   12.885108   23.448982 O.3        1 MOL1        -0.5519
     112    H53     21.000362   13.555702   23.654954 H          1 MOL1         0.3769
     113    C33     23.194480   14.670029   22.667127 C.3        1 MOL1         0.1053
     114    H54     22.460998   15.400908   23.035450 H          1 MOL1         0.0783
     115    O28     24.143184   14.380379   23.700275 O.3        1 MOL1        -0.5519
     116    H55     23.643388   13.862498   24.369209 H          1 MOL1         0.3769
     117    C34     23.919088   15.293961   21.439955 C.3        1 MOL1         0.1018
     118    H56     24.880043   14.778001   21.320839 H          1 MOL1         0.0783
     119    C35     23.102168   15.205596   20.101499 C.3        1 MOL1         0.1043
     120    H57     22.389107   16.040231   20.077406 H          1 MOL1         0.0783
     121    O29     22.365641   13.960730   20.007579 O.3        1 MOL1        -0.3740
     122    C36     23.961460   15.259315   18.808854 C.3        1 MOL1         0.0138
     123    H58     24.290050   16.284659   18.614400 H          1 MOL1         0.0794
     124    H59     23.323354   14.974556   17.961394 H          1 MOL1         0.0794
     125    O30     25.099916   14.391102   18.875449 O.3        1 MOL1        -0.5486
     126    H60     25.542127   14.412068   17.998649 H          1 MOL1         0.3769
     127    C1      18.712700   19.878545   23.622437 C.3        1 MOL1        -0.1693
     128    H1      18.860478   20.938361   23.863012 H          1 MOL1         0.0829
     129    H2      17.641821   19.702639   23.467531 H          1 MOL1         0.0829
     130    C2      19.439005   18.888066   24.589967 C.3        1 MOL1        -0.1768
     131    H3      19.028597   17.873939   24.605437 H          1 MOL1         0.0829
     132    H4      19.562409   19.230643   25.622879 H          1 MOL1         0.0829
     133    C3      20.682349   19.061602   23.668134 C.3        1 MOL1         0.1211
     134    H5      21.305194   19.930382   23.917767 H          1 MOL1         0.0786
     135    C4      19.664884   19.316576   22.517562 C.3        1 MOL1        -0.1768
     136    H6      19.311699   18.405083   22.025259 H          1 MOL1         0.0829
     137    H7      19.983353   20.028443   21.752253 H          1 MOL1         0.0829
     138    O1      21.473103   17.908102   23.511426 O.3        1 MOL1        -0.5515
     139    H8      21.870958   17.704204   24.380067 H          1 MOL1         0.3773
@<TRIPOS>BOND
    1     1     2    1
    2     1     3    1
    3     1     4    1
    4     4     5    1
    5     4     6    1
    6     6     7    1
    7     4     8    1
    8     8     9    1
    9     8    10    1
   10    10    11    1
   11     8    12    1
   12    12    13    1
   13    12    14    1
   14    14    15    1
   15     1    16    1
   16    14    16    1
   17    14    17    1
   18    17    18    1
   19    17    19    1
   20    17    20    1
   21    20    21    1
   22    22    23    1
   23    22    24    1
   24    22    25    1
   25    25    26    1
   26    25    27    1
   27    27    28    1
   28    25    29    1
   29    29    30    1
   30    29    31    1
   31    31    32    1
   32     3    33    1
   33    29    33    1
   34    33    34    1
   35    33    35    1
   36    35    36    1
   37    22    37    1
   38    35    37    1
   39    35    38    1
   40    38    39    1
   41    38    40    1
   42    38    41    1
   43    41    42    1
   44    43    44    1
   45    43    45    1
   46    43    46    1
   47    46    47    1
   48    46    48    1
   49    48    49    1
   50    46    50    1
   51    50    51    1
   52    50    52    1
   53    52    53    1
   54    24    54    1
   55    50    54    1
   56    54    55    1
   57    54    56    1
   58    56    57    1
   59    43    58    1
   60    56    58    1
   61    56    59    1
   62    59    60    1
   63    59    61    1
   64    59    62    1
   65    62    63    1
   66    64    65    1
   67    64    66    1
   68    64    67    1
   69    67    68    1
   70    67    69    1
   71    69    70    1
   72    67    71    1
   73    71    72    1
   74    71    73    1
   75    73    74    1
   76    45    75    1
   77    71    75    1
   78    75    76    1
   79    75    77    1
   80    77    78    1
   81    64    79    1
   82    77    79    1
   83    77    80    1
   84    80    81    1
   85    80    82    1
   86    80    83    1
   87    83    84    1
   88    85    86    1
   89    85    87    1
   90    85    88    1
   91    88    89    1
   92    88    90    1
   93    90    91    1
   94    88    92    1
   95    92    93    1
   96    92    94    1
   97    94    95    1
   98    66    96    1
   99    92    96    1
  100    96    97    1
  101    96    98    1
  102    98    99    1
  103    85   100    1
  104    98   100    1
  105    98   101    1
  106   101   102    1
  107   101   103    1
  108   101   104    1
  109   104   105    1
  110   106   107    1
  111    12   108    1
  112   106   108    1
  113   106   109    1
  114   109   110    1
  115   109   111    1
  116   111   112    1
  117   109   113    1
  118   113   114    1
  119   113   115    1
  120   115   116    1
  121    87   117    1
  122   113   117    1
  123   117   118    1
  124   117   119    1
  125   119   120    1
  126   106   121    1
  127   119   121    1
  128   119   122    1
  129   122   123    1
  130   122   124    1
  131   122   125    1
  132   125   126    1
  133   127   128    1
  134   127   129    1
  135   127   130    1
  136   130   131    1
  137   130   132    1
  138   130   133    1
  139   133   134    1
  140   127   135    1
  141   133   135    1
  142   135   136    1
  143   135   137    1
  144   133   138    1
  145   138   139    1
@<TRIPOS>SUBSTRUCTURE
       1 MOL1            1 RESIDUE      1      MOL     
       2 MOL1          139 RESIDUE      1      MOL     
@<SCITEGIC>MOL_PROPERTY
feprocess Rank
SciTegic.value.IntegerValue
104

@<SCITEGIC>MOL_PROPERTY
Conf_Id
SciTegic.value.IntegerValue
472

@<SCITEGIC>MOL_PROPERTY
Probability
SciTegic.value.DoubleValue
0.02

@<SCITEGIC>MOL_PROPERTY
G
SciTegic.value.DoubleValue
549.006

@<SCITEGIC>MOL_PROPERTY
E
SciTegic.value.DoubleValue
372.213

@<SCITEGIC>MOL_PROPERTY
-TS
SciTegic.value.DoubleValue
176.793

@<SCITEGIC>MOL_PROPERTY
U+W
SciTegic.value.DoubleValue
249.702

@<SCITEGIC>MOL_PROPERTY
U
SciTegic.value.DoubleValue
287.589

@<SCITEGIC>MOL_PROPERTY
W
SciTegic.value.DoubleValue
-37.887

@<SCITEGIC>MOL_PROPERTY
W(PB)
SciTegic.value.DoubleValue
-43.803

@<SCITEGIC>MOL_PROPERTY
W(SA)
SciTegic.value.DoubleValue
5.916

@<SCITEGIC>MOL_PROPERTY
Valence
SciTegic.value.DoubleValue
148.502

@<SCITEGIC>MOL_PROPERTY
Coulomb
SciTegic.value.DoubleValue
161.677

@<SCITEGIC>MOL_PROPERTY
VdW
SciTegic.value.DoubleValue
-22.590

@<SCITEGIC>MOL_PROPERTY
VdW6
SciTegic.value.DoubleValue
-165.789

@<SCITEGIC>MOL_PROPERTY
VdW12
SciTegic.value.DoubleValue
143.199

@<SCITEGIC>MOL_PROPERTY
Bond
SciTegic.value.DoubleValue
4.639

@<SCITEGIC>MOL_PROPERTY
Angle
SciTegic.value.DoubleValue
13.098

@<SCITEGIC>MOL_PROPERTY
Pdih
SciTegic.value.DoubleValue
130.765

@<SCITEGIC>MOL_PROPERTY
Idih
SciTegic.value.DoubleValue
0.000

@<SCITEGIC>MOL_PROPERTY
Tether
SciTegic.value.DoubleValue
0.000

@<TRIPOS>MOLECULE
CD_guest-s16_fast_vm2_rndm.mol2 : feprocess host+ligand conformer 105
         139         145           2
SMALL
USER_CHARGES
 
@<TRIPOS>ATOM
       1    C1      16.261317   15.199621   21.716812 C.3        1 MOL1         0.2972
       2    H1      15.212968   15.030916   21.995030 H          1 MOL1         0.0751
       3    O1      16.508518   16.577498   21.366093 O.3        1 MOL1        -0.3740
       4    C2      17.201195   14.797226   22.881646 C.3        1 MOL1         0.1003
       5    H2      17.078984   13.718504   23.045303 H          1 MOL1         0.0783
       6    O2      16.883106   15.495474   24.095553 O.3        1 MOL1        -0.5519
       7    H3      16.132425   16.106610   23.894470 H          1 MOL1         0.3769
       8    C3      18.669933   15.061424   22.489731 C.3        1 MOL1         0.1053
       9    H4      18.780427   16.139312   22.340169 H          1 MOL1         0.0783
      10    O3      19.529504   14.634923   23.551555 O.3        1 MOL1        -0.5519
      11    H5      19.025073   14.845180   24.371668 H          1 MOL1         0.3769
      12    C4      19.037443   14.366094   21.156021 C.3        1 MOL1         0.1018
      13    H6      19.168424   13.291508   21.338014 H          1 MOL1         0.0783
      14    C5      17.961779   14.593856   20.052520 C.3        1 MOL1         0.1043
      15    H7      18.050223   15.632199   19.707544 H          1 MOL1         0.0783
      16    O4      16.623876   14.386831   20.580125 O.3        1 MOL1        -0.3740
      17    C6      18.145866   13.686140   18.813037 C.3        1 MOL1         0.0138
      18    H8      19.034165   14.024193   18.262563 H          1 MOL1         0.0794
      19    H9      17.280935   13.819898   18.149524 H          1 MOL1         0.0794
      20    O5      18.291655   12.305994   19.169979 O.3        1 MOL1        -0.5486
      21    H10     18.319627   11.784132   18.338308 H          1 MOL1         0.3769
      22    C7      14.647120   20.288377   21.320297 C.3        1 MOL1         0.2972
      23    H11     13.944618   21.125483   21.219938 H          1 MOL1         0.0751
      24    O6      15.977743   20.741334   21.631454 O.3        1 MOL1        -0.3740
      25    C8      14.197271   19.359970   22.473159 C.3        1 MOL1         0.1003
      26    H12     13.196996   18.982217   22.224236 H          1 MOL1         0.0783
      27    O7      14.136834   20.092115   23.707932 O.3        1 MOL1        -0.5519
      28    H13     14.850259   20.776574   23.670506 H          1 MOL1         0.3769
      29    C9      15.148471   18.147148   22.612279 C.3        1 MOL1         0.1053
      30    H14     16.123525   18.516343   22.958178 H          1 MOL1         0.0783
      31    O8      14.602630   17.240570   23.575093 O.3        1 MOL1        -0.5519
      32    H15     14.283518   17.814485   24.308413 H          1 MOL1         0.3769
      33    C10     15.355630   17.432743   21.250918 C.3        1 MOL1         0.1018
      34    H16     14.450486   16.864821   21.000336 H          1 MOL1         0.0783
      35    C11     15.665561   18.430872   20.101093 C.3        1 MOL1         0.1043
      36    H17     16.667779   18.843072   20.271227 H          1 MOL1         0.0783
      37    O9      14.700317   19.513284   20.103618 O.3        1 MOL1        -0.3740
      38    C12     15.684008   17.779064   18.695665 C.3        1 MOL1         0.0138
      39    H18     16.617943   17.212141   18.586378 H          1 MOL1         0.0794
      40    H19     15.700338   18.576394   17.940902 H          1 MOL1         0.0794
      41    O10     14.566738   16.911802   18.469016 O.3        1 MOL1        -0.5486
      42    H20     14.730376   16.085148   18.972701 H          1 MOL1         0.3769
      43    C13     18.466892   24.069444   21.294653 C.3        1 MOL1         0.2972
      44    H21     18.852135   25.082966   21.124996 H          1 MOL1         0.0751
      45    O11     19.527749   23.148428   21.619251 O.3        1 MOL1        -0.3740
      46    C14     17.475099   24.085579   22.484602 C.3        1 MOL1         0.1003
      47    H22     16.671906   24.791926   22.237514 H          1 MOL1         0.0783
      48    O12     18.142770   24.521755   23.679598 O.3        1 MOL1        -0.5519
      49    H23     19.084128   24.229348   23.601994 H          1 MOL1         0.3769
      50    C15     16.837642   22.692380   22.700015 C.3        1 MOL1         0.1053
      51    H24     17.621093   22.010419   23.054047 H          1 MOL1         0.0783
      52    O13     15.800583   22.782583   23.682982 O.3        1 MOL1        -0.5519
      53    H25     16.192064   23.301217   24.420623 H          1 MOL1         0.3769
      54    C16     16.262317   22.128513   21.378515 C.3        1 MOL1         0.1018
      55    H26     15.359623   22.698380   21.121941 H          1 MOL1         0.0783
      56    C17     17.288009   22.220244   20.214063 C.3        1 MOL1         0.1043
      57    H27     18.125434   21.549682   20.444101 H          1 MOL1         0.0783
      58    O14     17.779816   23.581086   20.121548 O.3        1 MOL1        -0.3740
      59    C18     16.744689   21.797469   18.824845 C.3        1 MOL1         0.0138
      60    H28     16.869544   20.712626   18.717918 H          1 MOL1         0.0794
      61    H29     17.363999   22.266795   18.048926 H          1 MOL1         0.0794
      62    O15     15.369398   22.140827   18.626383 O.3        1 MOL1        -0.5486
      63    H30     14.838711   21.395946   18.990107 H          1 MOL1         0.3769
      64    C19     23.638433   22.606564   20.991860 C.3        1 MOL1         0.2972
      65    H31     24.687489   22.739236   20.697412 H          1 MOL1         0.0751
      66    O16     23.377541   21.259743   21.425622 O.3        1 MOL1        -0.3740
      67    C20     23.241200   23.589411   22.127937 C.3        1 MOL1         0.1003
      68    H32     23.393212   24.605863   21.742177 H          1 MOL1         0.0783
      69    O17     24.057061   23.410071   23.296012 O.3        1 MOL1        -0.5519
      70    H33     23.951982   22.469244   23.588013 H          1 MOL1         0.3769
      71    C21     21.741242   23.438241   22.486905 C.3        1 MOL1         0.1053
      72    H34     21.591114   22.443679   22.929771 H          1 MOL1         0.0783
      73    O18     21.366473   24.450975   23.427441 O.3        1 MOL1        -0.5519
      74    H35     22.084672   24.457937   24.098553 H          1 MOL1         0.3769
      75    C22     20.855052   23.545833   21.221524 C.3        1 MOL1         0.1018
      76    H36     20.885502   24.585736   20.870561 H          1 MOL1         0.0783
      77    C23     21.358172   22.605449   20.089915 C.3        1 MOL1         0.1043
      78    H37     21.220534   21.566904   20.418434 H          1 MOL1         0.0783
      79    O19     22.768527   22.862208   19.866868 O.3        1 MOL1        -0.3740
      80    C24     20.622985   22.746486   18.732952 C.3        1 MOL1         0.0138
      81    H38     19.742857   22.092325   18.744439 H          1 MOL1         0.0794
      82    H39     21.283610   22.373313   17.939048 H          1 MOL1         0.0794
      83    O20     20.219624   24.089365   18.443844 O.3        1 MOL1        -0.5486
      84    H40     19.346795   24.219824   18.880898 H          1 MOL1         0.3769
      85    C25     24.861234   17.578287   22.297419 C.3        1 MOL1         0.2972
      86    H41     25.414357   16.670282   22.570694 H          1 MOL1         0.0751
      87    O21     23.553905   17.259325   21.779401 O.3        1 MOL1        -0.3740
      88    C26     24.710665   18.492649   23.537461 C.3        1 MOL1         0.1003
      89    H42     25.720339   18.781671   23.856760 H          1 MOL1         0.0783
      90    O22     24.050523   17.807748   24.614034 O.3        1 MOL1        -0.5519
      91    H43     23.162145   17.521146   24.283936 H          1 MOL1         0.3769
      92    C27     23.933903   19.774818   23.178498 C.3        1 MOL1         0.1053
      93    H44     22.909364   19.473336   22.950522 H          1 MOL1         0.0783
      94    O23     23.932753   20.667578   24.296928 O.3        1 MOL1        -0.5519
      95    H45     23.744837   20.098037   25.076436 H          1 MOL1         0.3769
      96    C28     24.487627   20.487150   21.922362 C.3        1 MOL1         0.1018
      97    H46     25.341225   21.114542   22.211463 H          1 MOL1         0.0783
      98    C29     24.883630   19.507181   20.779681 C.3        1 MOL1         0.1043
      99    H47     23.952252   19.190142   20.299150 H          1 MOL1         0.0783
     100    O24     25.567382   18.329518   21.285833 O.3        1 MOL1        -0.3740
     101    C30     25.760444   20.155947   19.682308 C.3        1 MOL1         0.0138
     102    H48     25.142468   20.865614   19.115834 H          1 MOL1         0.0794
     103    H49     26.083083   19.374600   18.981077 H          1 MOL1         0.0794
     104    O25     26.897476   20.832008   20.232004 O.3        1 MOL1        -0.5486
     105    H50     27.448710   21.147155   19.482525 H          1 MOL1         0.3769
     106    C31     21.316809   14.142675   20.235281 C.3        1 MOL1         0.2972
     107    H51     20.921676   13.257733   19.720231 H          1 MOL1         0.0751
     108    O26     20.251385   14.997669   20.702260 O.3        1 MOL1        -0.3740
     109    C32     22.239052   13.738006   21.417255 C.3        1 MOL1         0.1003
     110    H52     23.075498   13.171228   20.987979 H          1 MOL1         0.0783
     111    O27     21.561260   12.908032   22.372859 O.3        1 MOL1        -0.5519
     112    H53     20.857757   13.468024   22.787342 H          1 MOL1         0.3769
     113    C33     22.825394   14.987973   22.116564 C.3        1 MOL1         0.1053
     114    H54     22.005435   15.499087   22.634838 H          1 MOL1         0.0783
     115    O28     23.814967   14.567706   23.061053 O.3        1 MOL1        -0.5519
     116    H55     23.383960   13.866839   23.596984 H          1 MOL1         0.3769
     117    C34     23.448897   15.987733   21.106968 C.3        1 MOL1         0.1018
     118    H56     24.431314   15.602863   20.804336 H          1 MOL1         0.0783
     119    C35     22.572577   16.204136   19.838816 C.3        1 MOL1         0.1043
     120    H57     21.698255   16.801912   20.124660 H          1 MOL1         0.0783
     121    O29     22.127692   14.921977   19.329646 O.3        1 MOL1        -0.3740
     122    C36     23.273235   16.971024   18.685579 C.3        1 MOL1         0.0138
     123    H58     23.036557   18.037348   18.782744 H          1 MOL1         0.0794
     124    H59     22.836470   16.643612   17.732588 H          1 MOL1         0.0794
     125    O30     24.695399   16.789848   18.657855 O.3        1 MOL1        -0.5486
     126    H60     25.061698   17.189782   19.480066 H          1 MOL1         0.3769
     127    C1      19.150141   19.576423   22.459108 C.3        1 MOL1        -0.1693
     128    H1      19.406956   20.632276   22.606626 H          1 MOL1         0.0829
     129    H2      18.308521   19.508842   21.764063 H          1 MOL1         0.0829
     130    C2      19.015308   18.747960   23.778970 C.3        1 MOL1        -0.1768
     131    H3      18.652511   19.298122   24.653798 H          1 MOL1         0.0829
     132    H4      18.436365   17.824050   23.687817 H          1 MOL1         0.0829
     133    C3      20.560374   18.578188   23.683970 C.3        1 MOL1         0.1211
     134    H5      21.106841   19.427868   24.113238 H          1 MOL1         0.0786
     135    C4      20.371175   18.659317   22.137825 C.3        1 MOL1        -0.1768
     136    H6      20.118336   17.712069   21.651841 H          1 MOL1         0.0829
     137    H7      21.184786   19.128261   21.575150 H          1 MOL1         0.0829
     138    O1      21.089257   17.363831   24.164085 O.3        1 MOL1        -0.5515
     139    H8      20.515360   16.639682   23.833802 H          1 MOL1         0.3773
@<TRIPOS>BOND
    1     1     2    1
    2     1     3    1
    3     1     4    1
    4     4     5    1
    5     4     6    1
    6     6     7    1
    7     4     8    1
    8     8     9    1
    9     8    10    1
   10    10    11    1
   11     8    12    1
   12    12    13    1
   13    12    14    1
   14    14    15    1
   15     1    16    1
   16    14    16    1
   17    14    17    1
   18    17    18    1
   19    17    19    1
   20    17    20    1
   21    20    21    1
   22    22    23    1
   23    22    24    1
   24    22    25    1
   25    25    26    1
   26    25    27    1
   27    27    28    1
   28    25    29    1
   29    29    30    1
   30    29    31    1
   31    31    32    1
   32     3    33    1
   33    29    33    1
   34    33    34    1
   35    33    35    1
   36    35    36    1
   37    22    37    1
   38    35    37    1
   39    35    38    1
   40    38    39    1
   41    38    40    1
   42    38    41    1
   43    41    42    1
   44    43    44    1
   45    43    45    1
   46    43    46    1
   47    46    47    1
   48    46    48    1
   49    48    49    1
   50    46    50    1
   51    50    51    1
   52    50    52    1
   53    52    53    1
   54    24    54    1
   55    50    54    1
   56    54    55    1
   57    54    56    1
   58    56    57    1
   59    43    58    1
   60    56    58    1
   61    56    59    1
   62    59    60    1
   63    59    61    1
   64    59    62    1
   65    62    63    1
   66    64    65    1
   67    64    66    1
   68    64    67    1
   69    67    68    1
   70    67    69    1
   71    69    70    1
   72    67    71    1
   73    71    72    1
   74    71    73    1
   75    73    74    1
   76    45    75    1
   77    71    75    1
   78    75    76    1
   79    75    77    1
   80    77    78    1
   81    64    79    1
   82    77    79    1
   83    77    80    1
   84    80    81    1
   85    80    82    1
   86    80    83    1
   87    83    84    1
   88    85    86    1
   89    85    87    1
   90    85    88    1
   91    88    89    1
   92    88    90    1
   93    90    91    1
   94    88    92    1
   95    92    93    1
   96    92    94    1
   97    94    95    1
   98    66    96    1
   99    92    96    1
  100    96    97    1
  101    96    98    1
  102    98    99    1
  103    85   100    1
  104    98   100    1
  105    98   101    1
  106   101   102    1
  107   101   103    1
  108   101   104    1
  109   104   105    1
  110   106   107    1
  111    12   108    1
  112   106   108    1
  113   106   109    1
  114   109   110    1
  115   109   111    1
  116   111   112    1
  117   109   113    1
  118   113   114    1
  119   113   115    1
  120   115   116    1
  121    87   117    1
  122   113   117    1
  123   117   118    1
  124   117   119    1
  125   119   120    1
  126   106   121    1
  127   119   121    1
  128   119   122    1
  129   122   123    1
  130   122   124    1
  131   122   125    1
  132   125   126    1
  133   127   128    1
  134   127   129    1
  135   127   130    1
  136   130   131    1
  137   130   132    1
  138   130   133    1
  139   133   134    1
  140   127   135    1
  141   133   135    1
  142   135   136    1
  143   135   137    1
  144   133   138    1
  145   138   139    1
@<TRIPOS>SUBSTRUCTURE
       1 MOL1            1 RESIDUE      1      MOL     
       2 MOL1          139 RESIDUE      1      MOL     
@<SCITEGIC>MOL_PROPERTY
feprocess Rank
SciTegic.value.IntegerValue
105

@<SCITEGIC>MOL_PROPERTY
Conf_Id
SciTegic.value.IntegerValue
654

@<SCITEGIC>MOL_PROPERTY
Probability
SciTegic.value.DoubleValue
0.02

@<SCITEGIC>MOL_PROPERTY
G
SciTegic.value.DoubleValue
549.019

@<SCITEGIC>MOL_PROPERTY
E
SciTegic.value.DoubleValue
370.173

@<SCITEGIC>MOL_PROPERTY
-TS
SciTegic.value.DoubleValue
178.846

@<SCITEGIC>MOL_PROPERTY
U+W
SciTegic.value.DoubleValue
247.662

@<SCITEGIC>MOL_PROPERTY
U
SciTegic.value.DoubleValue
285.666

@<SCITEGIC>MOL_PROPERTY
W
SciTegic.value.DoubleValue
-38.004

@<SCITEGIC>MOL_PROPERTY
W(PB)
SciTegic.value.DoubleValue
-43.963

@<SCITEGIC>MOL_PROPERTY
W(SA)
SciTegic.value.DoubleValue
5.959

@<SCITEGIC>MOL_PROPERTY
Valence
SciTegic.value.DoubleValue
154.026

@<SCITEGIC>MOL_PROPERTY
Coulomb
SciTegic.value.DoubleValue
152.533

@<SCITEGIC>MOL_PROPERTY
VdW
SciTegic.value.DoubleValue
-20.893

@<SCITEGIC>MOL_PROPERTY
VdW6
SciTegic.value.DoubleValue
-168.811

@<SCITEGIC>MOL_PROPERTY
VdW12
SciTegic.value.DoubleValue
147.918

@<SCITEGIC>MOL_PROPERTY
Bond
SciTegic.value.DoubleValue
4.691

@<SCITEGIC>MOL_PROPERTY
Angle
SciTegic.value.DoubleValue
12.821

@<SCITEGIC>MOL_PROPERTY
Pdih
SciTegic.value.DoubleValue
136.513

@<SCITEGIC>MOL_PROPERTY
Idih
SciTegic.value.DoubleValue
0.000

@<SCITEGIC>MOL_PROPERTY
Tether
SciTegic.value.DoubleValue
0.000

@<TRIPOS>MOLECULE
CD_guest-s16_fast_vm2_rndm.mol2 : feprocess host+ligand conformer 106
         139         145           2
SMALL
USER_CHARGES
 
@<TRIPOS>ATOM
       1    C1      16.205020   15.127891   21.961329 C.3        1 MOL1         0.2972
       2    H1      15.161162   14.936250   22.241734 H          1 MOL1         0.0751
       3    O1      16.455195   16.533210   21.782451 O.3        1 MOL1        -0.3740
       4    C2      17.151340   14.614829   23.072141 C.3        1 MOL1         0.1003
       5    H2      16.993749   13.532578   23.166719 H          1 MOL1         0.0783
       6    O2      16.840066   15.250279   24.322766 O.3        1 MOL1        -0.5519
       7    H3      16.369542   16.090337   24.104302 H          1 MOL1         0.3769
       8    C3      18.633667   14.849751   22.693474 C.3        1 MOL1         0.1053
       9    H4      18.822781   15.931267   22.696900 H          1 MOL1         0.0783
      10    O3      19.467391   14.212757   23.666615 O.3        1 MOL1        -0.5519
      11    H5      19.155911   14.562941   24.530508 H          1 MOL1         0.3769
      12    C4      18.958311   14.306662   21.277459 C.3        1 MOL1         0.1018
      13    H6      19.060956   13.214784   21.332716 H          1 MOL1         0.0783
      14    C5      17.879285   14.693688   20.224627 C.3        1 MOL1         0.1043
      15    H7      17.992297   15.764638   20.016639 H          1 MOL1         0.0783
      16    O4      16.540204   14.452138   20.731410 O.3        1 MOL1        -0.3740
      17    C6      18.034991   13.948758   18.877485 C.3        1 MOL1         0.0138
      18    H8      18.933548   14.327549   18.371717 H          1 MOL1         0.0794
      19    H9      17.174579   14.192712   18.239889 H          1 MOL1         0.0794
      20    O5      18.138580   12.530519   19.054301 O.3        1 MOL1        -0.5486
      21    H10     18.155094   12.119295   18.162586 H          1 MOL1         0.3769
      22    C7      14.630890   20.216603   21.312444 C.3        1 MOL1         0.2972
      23    H11     13.943692   21.051670   21.125433 H          1 MOL1         0.0751
      24    O6      15.972910   20.680993   21.571144 O.3        1 MOL1        -0.3740
      25    C8      14.166353   19.423428   22.559082 C.3        1 MOL1         0.1003
      26    H12     13.159946   19.035573   22.354623 H          1 MOL1         0.0783
      27    O7      14.124080   20.287631   23.705687 O.3        1 MOL1        -0.5519
      28    H13     14.837288   20.959767   23.578443 H          1 MOL1         0.3769
      29    C9      15.103731   18.220935   22.824206 C.3        1 MOL1         0.1053
      30    H14     16.077423   18.623808   23.126149 H          1 MOL1         0.0783
      31    O8      14.575548   17.413054   23.880182 O.3        1 MOL1        -0.5519
      32    H15     14.300753   18.050143   24.576902 H          1 MOL1         0.3769
      33    C10     15.304068   17.363872   21.548740 C.3        1 MOL1         0.1018
      34    H16     14.394324   16.776545   21.367808 H          1 MOL1         0.0783
      35    C11     15.619847   18.228119   20.298446 C.3        1 MOL1         0.1043
      36    H17     16.615884   18.656276   20.443104 H          1 MOL1         0.0783
      37    O9      14.660724   19.309717   20.187558 O.3        1 MOL1        -0.3740
      38    C12     15.661906   17.444265   18.959941 C.3        1 MOL1         0.0138
      39    H18     16.692474   17.110272   18.786325 H          1 MOL1         0.0794
      40    H19     15.410729   18.132357   18.141675 H          1 MOL1         0.0794
      41    O10     14.784685   16.312055   18.935409 O.3        1 MOL1        -0.5486
      42    H20     15.191352   15.617681   19.504238 H          1 MOL1         0.3769
      43    C13     18.560968   23.870699   20.717118 C.3        1 MOL1         0.2972
      44    H21     18.960025   24.821627   20.341243 H          1 MOL1         0.0751
      45    O11     19.602110   23.041694   21.274502 O.3        1 MOL1        -0.3740
      46    C14     17.499886   24.123756   21.820635 C.3        1 MOL1         0.1003
      47    H22     16.716250   24.754562   21.381286 H          1 MOL1         0.0783
      48    O12     18.078182   24.807088   22.944745 O.3        1 MOL1        -0.5519
      49    H23     18.931971   24.353122   23.161521 H          1 MOL1         0.3769
      50    C15     16.841539   22.797158   22.275420 C.3        1 MOL1         0.1053
      51    H24     17.604612   22.198179   22.790645 H          1 MOL1         0.0783
      52    O13     15.760864   23.078957   23.171513 O.3        1 MOL1        -0.5519
      53    H25     16.116781   23.745139   23.800763 H          1 MOL1         0.3769
      54    C16     16.322045   21.983777   21.063563 C.3        1 MOL1         0.1018
      55    H26     15.454297   22.506116   20.639715 H          1 MOL1         0.0783
      56    C17     17.421770   21.831630   19.974179 C.3        1 MOL1         0.1043
      57    H27     18.237296   21.225399   20.386875 H          1 MOL1         0.0783
      58    O14     17.929287   23.144989   19.640730 O.3        1 MOL1        -0.3740
      59    C18     16.964378   21.153005   18.657256 C.3        1 MOL1         0.0138
      60    H28     17.097554   20.069625   18.754424 H          1 MOL1         0.0794
      61    H29     17.631732   21.479380   17.848457 H          1 MOL1         0.0794
      62    O15     15.604496   21.440853   18.314222 O.3        1 MOL1        -0.5486
      63    H30     15.043377   20.825745   18.840677 H          1 MOL1         0.3769
      64    C19     23.738864   22.871454   21.619694 C.3        1 MOL1         0.2972
      65    H31     24.818679   23.065441   21.654140 H          1 MOL1         0.0751
      66    O16     23.449987   21.458272   21.616895 O.3        1 MOL1        -0.3740
      67    C20     23.007480   23.536155   22.815574 C.3        1 MOL1         0.1003
      68    H32     23.135292   24.621368   22.708954 H          1 MOL1         0.0783
      69    O17     23.561103   23.132410   24.076192 O.3        1 MOL1        -0.5519
      70    H33     23.564461   22.142231   24.097431 H          1 MOL1         0.3769
      71    C21     21.490031   23.232551   22.751602 C.3        1 MOL1         0.1053
      72    H34     21.345140   22.150978   22.876880 H          1 MOL1         0.0783
      73    O18     20.816082   23.937055   23.799845 O.3        1 MOL1        -0.5519
      74    H35     21.374585   23.802108   24.597908 H          1 MOL1         0.3769
      75    C22     20.904552   23.654391   21.380850 C.3        1 MOL1         0.1018
      76    H36     20.839166   24.750572   21.369405 H          1 MOL1         0.0783
      77    C23     21.768911   23.167267   20.179653 C.3        1 MOL1         0.1043
      78    H37     21.632530   22.084191   20.072221 H          1 MOL1         0.0783
      79    O19     23.173380   23.441744   20.420043 O.3        1 MOL1        -0.3740
      80    C24     21.375200   23.813641   18.829469 C.3        1 MOL1         0.0138
      81    H38     20.409279   23.398910   18.511587 H          1 MOL1         0.0794
      82    H39     22.117269   23.523812   18.073543 H          1 MOL1         0.0794
      83    O20     21.286320   25.241582   18.918007 O.3        1 MOL1        -0.5486
      84    H40     21.103757   25.584648   18.016044 H          1 MOL1         0.3769
      85    C25     24.885874   17.626141   21.912239 C.3        1 MOL1         0.2972
      86    H41     25.458426   16.699751   22.046136 H          1 MOL1         0.0751
      87    O21     23.625161   17.380802   21.256896 O.3        1 MOL1        -0.3740
      88    C26     24.608791   18.292320   23.283083 C.3        1 MOL1         0.1003
      89    H42     25.580568   18.491221   23.753460 H          1 MOL1         0.0783
      90    O22     23.826387   17.434755   24.131432 O.3        1 MOL1        -0.5519
      91    H43     24.000239   16.505193   23.844151 H          1 MOL1         0.3769
      92    C27     23.864225   19.633406   23.106878 C.3        1 MOL1         0.1053
      93    H44     22.860673   19.393426   22.757033 H          1 MOL1         0.0783
      94    O23     23.777252   20.288256   24.374104 O.3        1 MOL1        -0.5519
      95    H45     23.534933   19.574625   25.006862 H          1 MOL1         0.3769
      96    C28     24.499353   20.562714   22.043531 C.3        1 MOL1         0.1018
      97    H46     25.346015   21.094838   22.496847 H          1 MOL1         0.0783
      98    C29     24.957018   19.797000   20.768931 C.3        1 MOL1         0.1043
      99    H47     24.061630   19.550779   20.183391 H          1 MOL1         0.0783
     100    O24     25.639005   18.565435   21.116279 O.3        1 MOL1        -0.3740
     101    C30     25.881625   20.635090   19.854171 C.3        1 MOL1         0.0138
     102    H48     25.285668   21.439329   19.401498 H          1 MOL1         0.0794
     103    H49     26.240724   19.994860   19.037309 H          1 MOL1         0.0794
     104    O25     26.988200   21.196489   20.571581 O.3        1 MOL1        -0.5486
     105    H50     27.561901   21.657251   19.920883 H          1 MOL1         0.3769
     106    C31     21.207343   14.118271   20.277835 C.3        1 MOL1         0.2972
     107    H51     20.788089   13.193633   19.860709 H          1 MOL1         0.0751
     108    O26     20.183338   14.946057   20.865003 O.3        1 MOL1        -0.3740
     109    C32     22.290725   13.814263   21.346931 C.3        1 MOL1         0.1003
     110    H52     23.095175   13.264602   20.841103 H          1 MOL1         0.0783
     111    O27     21.775123   13.000724   22.411094 O.3        1 MOL1        -0.5519
     112    H53     21.009803   13.490560   22.807484 H          1 MOL1         0.3769
     113    C33     22.895328   15.126540   21.908230 C.3        1 MOL1         0.1053
     114    H54     22.103258   15.654444   22.453823 H          1 MOL1         0.0783
     115    O28     23.965211   14.795025   22.801708 O.3        1 MOL1        -0.5519
     116    H55     23.637003   14.017096   23.307739 H          1 MOL1         0.3769
     117    C34     23.396233   16.046163   20.757544 C.3        1 MOL1         0.1018
     118    H56     24.313825   15.619492   20.333099 H          1 MOL1         0.0783
     119    C35     22.335713   16.191515   19.632335 C.3        1 MOL1         0.1043
     120    H57     21.500783   16.781224   20.028753 H          1 MOL1         0.0783
     121    O29     21.848133   14.885671   19.235034 O.3        1 MOL1        -0.3740
     122    C36     22.853685   16.938320   18.378085 C.3        1 MOL1         0.0138
     123    H58     22.914496   18.009533   18.612099 H          1 MOL1         0.0794
     124    H59     22.113834   16.825067   17.574684 H          1 MOL1         0.0794
     125    O30     24.134048   16.467760   17.939472 O.3        1 MOL1        -0.5486
     126    H60     24.799180   16.779715   18.590357 H          1 MOL1         0.3769
     127    C1      19.336357   18.555931   21.033571 C.3        1 MOL1        -0.1693
     128    H1      18.762793   18.938395   20.185420 H          1 MOL1         0.0829
     129    H2      19.498109   17.482591   20.890358 H          1 MOL1         0.0829
     130    C2      18.838549   18.941750   22.466081 C.3        1 MOL1        -0.1768
     131    H3      18.344608   19.916016   22.538249 H          1 MOL1         0.0829
     132    H4      18.230106   18.195145   22.983280 H          1 MOL1         0.0829
     133    C3      20.339184   18.958613   22.879629 C.3        1 MOL1         0.1211
     134    H5      20.596601   19.721724   23.625023 H          1 MOL1         0.0786
     135    C4      20.617719   19.367168   21.397748 C.3        1 MOL1        -0.1768
     136    H6      21.551259   19.006428   20.957468 H          1 MOL1         0.0829
     137    H7      20.538346   20.442920   21.212931 H          1 MOL1         0.0829
     138    O1      20.851945   17.702082   23.277548 O.3        1 MOL1        -0.5515
     139    H8      21.814746   17.792494   23.450547 H          1 MOL1         0.3773
@<TRIPOS>BOND
    1     1     2    1
    2     1     3    1
    3     1     4    1
    4     4     5    1
    5     4     6    1
    6     6     7    1
    7     4     8    1
    8     8     9    1
    9     8    10    1
   10    10    11    1
   11     8    12    1
   12    12    13    1
   13    12    14    1
   14    14    15    1
   15     1    16    1
   16    14    16    1
   17    14    17    1
   18    17    18    1
   19    17    19    1
   20    17    20    1
   21    20    21    1
   22    22    23    1
   23    22    24    1
   24    22    25    1
   25    25    26    1
   26    25    27    1
   27    27    28    1
   28    25    29    1
   29    29    30    1
   30    29    31    1
   31    31    32    1
   32     3    33    1
   33    29    33    1
   34    33    34    1
   35    33    35    1
   36    35    36    1
   37    22    37    1
   38    35    37    1
   39    35    38    1
   40    38    39    1
   41    38    40    1
   42    38    41    1
   43    41    42    1
   44    43    44    1
   45    43    45    1
   46    43    46    1
   47    46    47    1
   48    46    48    1
   49    48    49    1
   50    46    50    1
   51    50    51    1
   52    50    52    1
   53    52    53    1
   54    24    54    1
   55    50    54    1
   56    54    55    1
   57    54    56    1
   58    56    57    1
   59    43    58    1
   60    56    58    1
   61    56    59    1
   62    59    60    1
   63    59    61    1
   64    59    62    1
   65    62    63    1
   66    64    65    1
   67    64    66    1
   68    64    67    1
   69    67    68    1
   70    67    69    1
   71    69    70    1
   72    67    71    1
   73    71    72    1
   74    71    73    1
   75    73    74    1
   76    45    75    1
   77    71    75    1
   78    75    76    1
   79    75    77    1
   80    77    78    1
   81    64    79    1
   82    77    79    1
   83    77    80    1
   84    80    81    1
   85    80    82    1
   86    80    83    1
   87    83    84    1
   88    85    86    1
   89    85    87    1
   90    85    88    1
   91    88    89    1
   92    88    90    1
   93    90    91    1
   94    88    92    1
   95    92    93    1
   96    92    94    1
   97    94    95    1
   98    66    96    1
   99    92    96    1
  100    96    97    1
  101    96    98    1
  102    98    99    1
  103    85   100    1
  104    98   100    1
  105    98   101    1
  106   101   102    1
  107   101   103    1
  108   101   104    1
  109   104   105    1
  110   106   107    1
  111    12   108    1
  112   106   108    1
  113   106   109    1
  114   109   110    1
  115   109   111    1
  116   111   112    1
  117   109   113    1
  118   113   114    1
  119   113   115    1
  120   115   116    1
  121    87   117    1
  122   113   117    1
  123   117   118    1
  124   117   119    1
  125   119   120    1
  126   106   121    1
  127   119   121    1
  128   119   122    1
  129   122   123    1
  130   122   124    1
  131   122   125    1
  132   125   126    1
  133   127   128    1
  134   127   129    1
  135   127   130    1
  136   130   131    1
  137   130   132    1
  138   130   133    1
  139   133   134    1
  140   127   135    1
  141   133   135    1
  142   135   136    1
  143   135   137    1
  144   133   138    1
  145   138   139    1
@<TRIPOS>SUBSTRUCTURE
       1 MOL1            1 RESIDUE      1      MOL     
       2 MOL1          139 RESIDUE      1      MOL     
@<SCITEGIC>MOL_PROPERTY
feprocess Rank
SciTegic.value.IntegerValue
106

@<SCITEGIC>MOL_PROPERTY
Conf_Id
SciTegic.value.IntegerValue
118

@<SCITEGIC>MOL_PROPERTY
Probability
SciTegic.value.DoubleValue
0.02

@<SCITEGIC>MOL_PROPERTY
G
SciTegic.value.DoubleValue
549.035

@<SCITEGIC>MOL_PROPERTY
E
SciTegic.value.DoubleValue
369.515

@<SCITEGIC>MOL_PROPERTY
-TS
SciTegic.value.DoubleValue
179.521

@<SCITEGIC>MOL_PROPERTY
U+W
SciTegic.value.DoubleValue
247.003

@<SCITEGIC>MOL_PROPERTY
U
SciTegic.value.DoubleValue
284.280

@<SCITEGIC>MOL_PROPERTY
W
SciTegic.value.DoubleValue
-37.277

@<SCITEGIC>MOL_PROPERTY
W(PB)
SciTegic.value.DoubleValue
-43.258

@<SCITEGIC>MOL_PROPERTY
W(SA)
SciTegic.value.DoubleValue
5.981

@<SCITEGIC>MOL_PROPERTY
Valence
SciTegic.value.DoubleValue
153.186

@<SCITEGIC>MOL_PROPERTY
Coulomb
SciTegic.value.DoubleValue
152.370

@<SCITEGIC>MOL_PROPERTY
VdW
SciTegic.value.DoubleValue
-21.275

@<SCITEGIC>MOL_PROPERTY
VdW6
SciTegic.value.DoubleValue
-171.229

@<SCITEGIC>MOL_PROPERTY
VdW12
SciTegic.value.DoubleValue
149.954

@<SCITEGIC>MOL_PROPERTY
Bond
SciTegic.value.DoubleValue
4.735

@<SCITEGIC>MOL_PROPERTY
Angle
SciTegic.value.DoubleValue
12.331

@<SCITEGIC>MOL_PROPERTY
Pdih
SciTegic.value.DoubleValue
136.120

@<SCITEGIC>MOL_PROPERTY
Idih
SciTegic.value.DoubleValue
0.000

@<SCITEGIC>MOL_PROPERTY
Tether
SciTegic.value.DoubleValue
0.000

@<TRIPOS>MOLECULE
CD_guest-s16_fast_vm2_rndm.mol2 : feprocess host+ligand conformer 107
         139         145           2
SMALL
USER_CHARGES
 
@<TRIPOS>ATOM
       1    C1      16.187623   15.194979   21.831909 C.3        1 MOL1         0.2972
       2    H1      15.103389   15.076443   21.957364 H          1 MOL1         0.0751
       3    O1      16.557305   16.584190   21.715168 O.3        1 MOL1        -0.3740
       4    C2      16.917582   14.589808   23.053696 C.3        1 MOL1         0.1003
       5    H2      16.663082   13.522842   23.098224 H          1 MOL1         0.0783
       6    O2      16.487837   15.235180   24.263324 O.3        1 MOL1        -0.5519
       7    H3      16.013869   16.059710   23.994486 H          1 MOL1         0.3769
       8    C3      18.448190   14.713535   22.891570 C.3        1 MOL1         0.1053
       9    H4      18.703971   15.776684   22.949091 H          1 MOL1         0.0783
      10    O3      19.107436   14.004180   23.945861 O.3        1 MOL1        -0.5519
      11    H5      18.639597   14.278288   24.766098 H          1 MOL1         0.3769
      12    C4      18.933720   14.185771   21.521584 C.3        1 MOL1         0.1018
      13    H6      18.970179   13.088910   21.561454 H          1 MOL1         0.0783
      14    C5      18.049571   14.660413   20.332391 C.3        1 MOL1         0.1043
      15    H7      18.269727   15.721139   20.162406 H          1 MOL1         0.0783
      16    O4      16.640577   14.512332   20.645213 O.3        1 MOL1        -0.3740
      17    C6      18.332979   13.918277   19.004371 C.3        1 MOL1         0.0138
      18    H8      19.308150   14.246852   18.620738 H          1 MOL1         0.0794
      19    H9      17.577091   14.218642   18.266255 H          1 MOL1         0.0794
      20    O5      18.329017   12.495050   19.170677 O.3        1 MOL1        -0.5486
      21    H10     18.434536   12.090880   18.281813 H          1 MOL1         0.3769
      22    C7      14.725058   20.265373   20.926708 C.3        1 MOL1         0.2972
      23    H11     14.016709   21.040787   20.608234 H          1 MOL1         0.0751
      24    O6      15.950992   20.844641   21.413462 O.3        1 MOL1        -0.3740
      25    C8      14.114698   19.443040   22.091454 C.3        1 MOL1         0.1003
      26    H12     13.174724   19.004192   21.732317 H          1 MOL1         0.0783
      27    O7      13.844673   20.300540   23.211210 O.3        1 MOL1        -0.5519
      28    H13     14.562969   20.977538   23.220866 H          1 MOL1         0.3769
      29    C9      15.054408   18.286999   22.515416 C.3        1 MOL1         0.1053
      30    H14     15.950574   18.723303   22.973516 H          1 MOL1         0.0783
      31    O8      14.392029   17.447846   23.467424 O.3        1 MOL1        -0.5519
      32    H15     13.978275   18.066588   24.109949 H          1 MOL1         0.3769
      33    C10     15.491488   17.453880   21.287260 C.3        1 MOL1         0.1018
      34    H16     14.622726   16.890167   20.921847 H          1 MOL1         0.0783
      35    C11     16.021217   18.348511   20.135384 C.3        1 MOL1         0.1043
      36    H17     16.946085   18.832370   20.471774 H          1 MOL1         0.0783
      37    O9      15.031603   19.366121   19.837405 O.3        1 MOL1        -0.3740
      38    C12     16.357311   17.582038   18.828656 C.3        1 MOL1         0.0138
      39    H18     17.405195   17.260156   18.875913 H          1 MOL1         0.0794
      40    H19     16.279761   18.277783   17.982945 H          1 MOL1         0.0794
      41    O10     15.512528   16.446779   18.602168 O.3        1 MOL1        -0.5486
      42    H20     15.768326   15.756091   19.257340 H          1 MOL1         0.3769
      43    C13     18.618642   23.995517   20.773161 C.3        1 MOL1         0.2972
      44    H21     19.090646   24.931650   20.448185 H          1 MOL1         0.0751
      45    O11     19.562951   23.118528   21.415972 O.3        1 MOL1        -0.3740
      46    C14     17.464826   24.277527   21.768808 C.3        1 MOL1         0.1003
      47    H22     16.748617   24.937081   21.261821 H          1 MOL1         0.0783
      48    O12     17.956570   24.930445   22.951205 O.3        1 MOL1        -0.5519
      49    H23     18.732227   24.406986   23.276623 H          1 MOL1         0.3769
      50    C15     16.725215   22.970837   22.148951 C.3        1 MOL1         0.1053
      51    H24     17.408714   22.363432   22.756161 H          1 MOL1         0.0783
      52    O13     15.559167   23.290515   22.915825 O.3        1 MOL1        -0.5519
      53    H25     15.862182   23.941383   23.587000 H          1 MOL1         0.3769
      54    C16     16.324632   22.140249   20.901503 C.3        1 MOL1         0.1018
      55    H26     15.484575   22.644155   20.405871 H          1 MOL1         0.0783
      56    C17     17.514413   21.988098   19.906359 C.3        1 MOL1         0.1043
      57    H27     18.279427   21.357129   20.376505 H          1 MOL1         0.0783
      58    O14     18.068632   23.298243   19.637532 O.3        1 MOL1        -0.3740
      59    C18     17.179682   21.342953   18.538015 C.3        1 MOL1         0.0138
      60    H28     17.328915   20.260516   18.617505 H          1 MOL1         0.0794
      61    H29     17.906167   21.702767   17.797206 H          1 MOL1         0.0794
      62    O15     15.849137   21.619766   18.088787 O.3        1 MOL1        -0.5486
      63    H30     15.268913   20.942897   18.507064 H          1 MOL1         0.3769
      64    C19     23.585592   22.733246   22.227381 C.3        1 MOL1         0.2972
      65    H31     24.653591   22.864540   22.445114 H          1 MOL1         0.0751
      66    O16     23.251484   21.347343   22.023055 O.3        1 MOL1        -0.3740
      67    C20     22.739832   23.263024   23.409380 C.3        1 MOL1         0.1003
      68    H32     22.948176   24.335537   23.516456 H          1 MOL1         0.0783
      69    O17     23.095981   22.582072   24.623457 O.3        1 MOL1        -0.5519
      70    H33     23.581462   21.762856   24.359533 H          1 MOL1         0.3769
      71    C21     21.233145   23.089622   23.114511 C.3        1 MOL1         0.1053
      72    H34     21.024400   22.013621   23.090822 H          1 MOL1         0.0783
      73    O18     20.461105   23.710299   24.148090 O.3        1 MOL1        -0.5519
      74    H35     20.874389   23.408188   24.987541 H          1 MOL1         0.3769
      75    C22     20.845344   23.688314   21.741035 C.3        1 MOL1         0.1018
      76    H36     20.797718   24.781069   21.840138 H          1 MOL1         0.0783
      77    C23     21.834033   23.291490   20.606498 C.3        1 MOL1         0.1043
      78    H37     21.656034   22.234981   20.373270 H          1 MOL1         0.0783
      79    O19     23.210087   23.457689   21.038133 O.3        1 MOL1        -0.3740
      80    C24     21.639974   24.089110   19.294549 C.3        1 MOL1         0.0138
      81    H38     20.707899   23.758296   18.817137 H          1 MOL1         0.0794
      82    H39     22.460988   23.840925   18.608402 H          1 MOL1         0.0794
      83    O20     21.594245   25.502463   19.525502 O.3        1 MOL1        -0.5486
      84    H40     21.556535   25.946509   18.650302 H          1 MOL1         0.3769
      85    C25     25.069326   17.677568   21.267784 C.3        1 MOL1         0.2972
      86    H41     25.776154   16.886770   20.985768 H          1 MOL1         0.0751
      87    O21     23.782279   17.134213   21.622454 O.3        1 MOL1        -0.3740
      88    C26     25.605874   18.440933   22.504805 C.3        1 MOL1         0.1003
      89    H42     26.582063   18.866688   22.238547 H          1 MOL1         0.0783
      90    O22     25.761735   17.538784   23.611532 O.3        1 MOL1        -0.5519
      91    H43     25.046485   16.862773   23.524955 H          1 MOL1         0.3769
      92    C27     24.659668   19.603677   22.887332 C.3        1 MOL1         0.1053
      93    H44     23.720094   19.165513   23.245161 H          1 MOL1         0.0783
      94    O23     25.248536   20.390459   23.927852 O.3        1 MOL1        -0.5519
      95    H45     25.594770   19.738049   24.577057 H          1 MOL1         0.3769
      96    C28     24.348512   20.492663   21.658659 C.3        1 MOL1         0.1018
      97    H46     25.249725   21.063781   21.398849 H          1 MOL1         0.0783
      98    C29     23.906335   19.655712   20.428505 C.3        1 MOL1         0.1043
      99    H47     22.937980   19.193171   20.660896 H          1 MOL1         0.0783
     100    O24     24.889790   18.618283   20.186075 O.3        1 MOL1        -0.3740
     101    C30     23.716465   20.473661   19.123340 C.3        1 MOL1         0.0138
     102    H48     22.672335   20.805213   19.069248 H          1 MOL1         0.0794
     103    H49     23.879306   19.807892   18.265324 H          1 MOL1         0.0794
     104    O25     24.586189   21.608676   19.031222 O.3        1 MOL1        -0.5486
     105    H50     24.265569   22.277436   19.680548 H          1 MOL1         0.3769
     106    C31     21.238528   13.935031   20.735286 C.3        1 MOL1         0.2972
     107    H51     20.814102   12.996578   20.355688 H          1 MOL1         0.0751
     108    O26     20.236084   14.767879   21.343484 O.3        1 MOL1        -0.3740
     109    C32     22.328316   13.659661   21.803023 C.3        1 MOL1         0.1003
     110    H52     23.103064   13.041380   21.331370 H          1 MOL1         0.0783
     111    O27     21.775918   12.954522   22.927284 O.3        1 MOL1        -0.5519
     112    H53     20.952353   13.433339   23.199070 H          1 MOL1         0.3769
     113    C33     22.987414   14.981145   22.271922 C.3        1 MOL1         0.1053
     114    H54     22.236311   15.555068   22.831870 H          1 MOL1         0.0783
     115    O28     24.101297   14.685644   23.122085 O.3        1 MOL1        -0.5519
     116    H55     23.771776   14.006026   23.751056 H          1 MOL1         0.3769
     117    C34     23.454766   15.843348   21.071999 C.3        1 MOL1         0.1018
     118    H56     24.327026   15.356168   20.616797 H          1 MOL1         0.0783
     119    C35     22.330452   16.001352   20.007164 C.3        1 MOL1         0.1043
     120    H57     21.517398   16.592893   20.447293 H          1 MOL1         0.0783
     121    O29     21.839171   14.684232   19.658547 O.3        1 MOL1        -0.3740
     122    C36     22.739693   16.711934   18.692599 C.3        1 MOL1         0.0138
     123    H58     22.584398   17.789872   18.816409 H          1 MOL1         0.0794
     124    H59     22.056895   16.387587   17.896023 H          1 MOL1         0.0794
     125    O30     24.095121   16.457789   18.308027 O.3        1 MOL1        -0.5486
     126    H60     24.650601   17.105364   18.799950 H          1 MOL1         0.3769
     127    C1      19.532420   18.730233   23.769939 C.3        1 MOL1        -0.1693
     128    H1      19.619255   19.021135   24.823324 H          1 MOL1         0.0829
     129    H2      19.022618   17.763287   23.721265 H          1 MOL1         0.0829
     130    C2      20.842184   18.838965   22.923618 C.3        1 MOL1        -0.1768
     131    H3      21.526315   19.620926   23.269175 H          1 MOL1         0.0829
     132    H4      21.407171   17.911122   22.787106 H          1 MOL1         0.0829
     133    C3      19.939613   19.272080   21.728863 C.3        1 MOL1         0.1211
     134    H5      20.378413   20.038376   21.077729 H          1 MOL1         0.0786
     135    C4      18.957488   19.818617   22.809229 C.3        1 MOL1        -0.1768
     136    H6      19.154986   20.847540   23.125152 H          1 MOL1         0.0829
     137    H7      17.896190   19.728643   22.575389 H          1 MOL1         0.0829
     138    O1      19.430648   18.210707   20.950367 O.3        1 MOL1        -0.5515
     139    H8      19.015782   17.586320   21.577002 H          1 MOL1         0.3773
@<TRIPOS>BOND
    1     1     2    1
    2     1     3    1
    3     1     4    1
    4     4     5    1
    5     4     6    1
    6     6     7    1
    7     4     8    1
    8     8     9    1
    9     8    10    1
   10    10    11    1
   11     8    12    1
   12    12    13    1
   13    12    14    1
   14    14    15    1
   15     1    16    1
   16    14    16    1
   17    14    17    1
   18    17    18    1
   19    17    19    1
   20    17    20    1
   21    20    21    1
   22    22    23    1
   23    22    24    1
   24    22    25    1
   25    25    26    1
   26    25    27    1
   27    27    28    1
   28    25    29    1
   29    29    30    1
   30    29    31    1
   31    31    32    1
   32     3    33    1
   33    29    33    1
   34    33    34    1
   35    33    35    1
   36    35    36    1
   37    22    37    1
   38    35    37    1
   39    35    38    1
   40    38    39    1
   41    38    40    1
   42    38    41    1
   43    41    42    1
   44    43    44    1
   45    43    45    1
   46    43    46    1
   47    46    47    1
   48    46    48    1
   49    48    49    1
   50    46    50    1
   51    50    51    1
   52    50    52    1
   53    52    53    1
   54    24    54    1
   55    50    54    1
   56    54    55    1
   57    54    56    1
   58    56    57    1
   59    43    58    1
   60    56    58    1
   61    56    59    1
   62    59    60    1
   63    59    61    1
   64    59    62    1
   65    62    63    1
   66    64    65    1
   67    64    66    1
   68    64    67    1
   69    67    68    1
   70    67    69    1
   71    69    70    1
   72    67    71    1
   73    71    72    1
   74    71    73    1
   75    73    74    1
   76    45    75    1
   77    71    75    1
   78    75    76    1
   79    75    77    1
   80    77    78    1
   81    64    79    1
   82    77    79    1
   83    77    80    1
   84    80    81    1
   85    80    82    1
   86    80    83    1
   87    83    84    1
   88    85    86    1
   89    85    87    1
   90    85    88    1
   91    88    89    1
   92    88    90    1
   93    90    91    1
   94    88    92    1
   95    92    93    1
   96    92    94    1
   97    94    95    1
   98    66    96    1
   99    92    96    1
  100    96    97    1
  101    96    98    1
  102    98    99    1
  103    85   100    1
  104    98   100    1
  105    98   101    1
  106   101   102    1
  107   101   103    1
  108   101   104    1
  109   104   105    1
  110   106   107    1
  111    12   108    1
  112   106   108    1
  113   106   109    1
  114   109   110    1
  115   109   111    1
  116   111   112    1
  117   109   113    1
  118   113   114    1
  119   113   115    1
  120   115   116    1
  121    87   117    1
  122   113   117    1
  123   117   118    1
  124   117   119    1
  125   119   120    1
  126   106   121    1
  127   119   121    1
  128   119   122    1
  129   122   123    1
  130   122   124    1
  131   122   125    1
  132   125   126    1
  133   127   128    1
  134   127   129    1
  135   127   130    1
  136   130   131    1
  137   130   132    1
  138   130   133    1
  139   133   134    1
  140   127   135    1
  141   133   135    1
  142   135   136    1
  143   135   137    1
  144   133   138    1
  145   138   139    1
@<TRIPOS>SUBSTRUCTURE
       1 MOL1            1 RESIDUE      1      MOL     
       2 MOL1          139 RESIDUE      1      MOL     
@<SCITEGIC>MOL_PROPERTY
feprocess Rank
SciTegic.value.IntegerValue
107

@<SCITEGIC>MOL_PROPERTY
Conf_Id
SciTegic.value.IntegerValue
280

@<SCITEGIC>MOL_PROPERTY
Probability
SciTegic.value.DoubleValue
0.02

@<SCITEGIC>MOL_PROPERTY
G
SciTegic.value.DoubleValue
549.096

@<SCITEGIC>MOL_PROPERTY
E
SciTegic.value.DoubleValue
371.906

@<SCITEGIC>MOL_PROPERTY
-TS
SciTegic.value.DoubleValue
177.189

@<SCITEGIC>MOL_PROPERTY
U+W
SciTegic.value.DoubleValue
249.395

@<SCITEGIC>MOL_PROPERTY
U
SciTegic.value.DoubleValue
284.260

@<SCITEGIC>MOL_PROPERTY
W
SciTegic.value.DoubleValue
-34.865

@<SCITEGIC>MOL_PROPERTY
W(PB)
SciTegic.value.DoubleValue
-40.770

@<SCITEGIC>MOL_PROPERTY
W(SA)
SciTegic.value.DoubleValue
5.905

@<SCITEGIC>MOL_PROPERTY
Valence
SciTegic.value.DoubleValue
155.100

@<SCITEGIC>MOL_PROPERTY
Coulomb
SciTegic.value.DoubleValue
152.524

@<SCITEGIC>MOL_PROPERTY
VdW
SciTegic.value.DoubleValue
-23.363

@<SCITEGIC>MOL_PROPERTY
VdW6
SciTegic.value.DoubleValue
-169.564

@<SCITEGIC>MOL_PROPERTY
VdW12
SciTegic.value.DoubleValue
146.201

@<SCITEGIC>MOL_PROPERTY
Bond
SciTegic.value.DoubleValue
4.403

@<SCITEGIC>MOL_PROPERTY
Angle
SciTegic.value.DoubleValue
11.181

@<SCITEGIC>MOL_PROPERTY
Pdih
SciTegic.value.DoubleValue
139.515

@<SCITEGIC>MOL_PROPERTY
Idih
SciTegic.value.DoubleValue
0.000

@<SCITEGIC>MOL_PROPERTY
Tether
SciTegic.value.DoubleValue
0.000

@<TRIPOS>MOLECULE
CD_guest-s16_fast_vm2_rndm.mol2 : feprocess host+ligand conformer 108
         139         145           2
SMALL
USER_CHARGES
 
@<TRIPOS>ATOM
       1    C1      16.239436   15.365836   20.423800 C.3        1 MOL1         0.2972
       2    H1      15.231846   15.279873   19.996789 H          1 MOL1         0.0751
       3    O1      16.448538   16.649832   21.042371 O.3        1 MOL1        -0.3740
       4    C2      16.496009   14.263752   21.485455 C.3        1 MOL1         0.1003
       5    H2      16.402922   13.294725   20.978097 H          1 MOL1         0.0783
       6    O2      15.536584   14.326757   22.552352 O.3        1 MOL1        -0.5519
       7    H3      15.555775   15.248921   22.914559 H          1 MOL1         0.3769
       8    C3      17.936533   14.373011   22.044412 C.3        1 MOL1         0.1053
       9    H4      18.014893   15.311702   22.609950 H          1 MOL1         0.0783
      10    O3      18.202710   13.264486   22.910548 O.3        1 MOL1        -0.5519
      11    H5      17.406148   13.186892   23.481394 H          1 MOL1         0.3769
      12    C4      18.980217   14.406118   20.899692 C.3        1 MOL1         0.1018
      13    H6      19.034133   13.401914   20.459182 H          1 MOL1         0.0783
      14    C5      18.606855   15.434540   19.792619 C.3        1 MOL1         0.1043
      15    H7      18.701348   16.443937   20.210314 H          1 MOL1         0.0783
      16    O4      17.233351   15.212534   19.386782 O.3        1 MOL1        -0.3740
      17    C6      19.497460   15.395621   18.524233 C.3        1 MOL1         0.0138
      18    H8      20.353473   16.063254   18.679080 H          1 MOL1         0.0794
      19    H9      18.924052   15.808619   17.683609 H          1 MOL1         0.0794
      20    O5      19.966128   14.082531   18.198703 O.3        1 MOL1        -0.5486
      21    H10     20.760878   13.920492   18.757680 H          1 MOL1         0.3769
      22    C7      14.727180   20.259353   21.935627 C.3        1 MOL1         0.2972
      23    H11     14.083203   21.119785   22.159133 H          1 MOL1         0.0751
      24    O6      16.108630   20.647559   21.802209 O.3        1 MOL1        -0.3740
      25    C8      14.624385   19.219413   23.075130 C.3        1 MOL1         0.1003
      26    H12     13.582706   18.875785   23.119702 H          1 MOL1         0.0783
      27    O7      14.985180   19.814699   24.332202 O.3        1 MOL1        -0.5519
      28    H13     15.504505   20.630591   24.125853 H          1 MOL1         0.3769
      29    C9      15.522077   17.997425   22.778574 C.3        1 MOL1         0.1053
      30    H14     16.563946   18.330379   22.833268 H          1 MOL1         0.0783
      31    O8      15.292608   16.986987   23.765222 O.3        1 MOL1        -0.5519
      32    H15     15.309598   17.466468   24.623736 H          1 MOL1         0.3769
      33    C10     15.276092   17.423368   21.360396 C.3        1 MOL1         0.1018
      34    H16     14.366283   16.808771   21.383018 H          1 MOL1         0.0783
      35    C11     15.161374   18.522908   20.264785 C.3        1 MOL1         0.1043
      36    H17     16.173113   18.902493   20.076562 H          1 MOL1         0.0783
      37    O9      14.322160   19.621054   20.707633 O.3        1 MOL1        -0.3740
      38    C12     14.613519   18.000919   18.915125 C.3        1 MOL1         0.0138
      39    H18     15.378978   17.365199   18.449862 H          1 MOL1         0.0794
      40    H19     14.451824   18.857609   18.247010 H          1 MOL1         0.0794
      41    O10     13.398561   17.258974   19.077354 O.3        1 MOL1        -0.5486
      42    H20     13.066916   17.030234   18.181611 H          1 MOL1         0.3769
      43    C13     18.451770   24.063714   21.280911 C.3        1 MOL1         0.2972
      44    H21     18.791402   25.086562   21.073253 H          1 MOL1         0.0751
      45    O11     19.560196   23.185036   21.552045 O.3        1 MOL1        -0.3740
      46    C14     17.540995   24.057884   22.535091 C.3        1 MOL1         0.1003
      47    H22     16.688690   24.719380   22.332319 H          1 MOL1         0.0783
      48    O12     18.264951   24.547403   23.674767 O.3        1 MOL1        -0.5519
      49    H23     19.209033   24.291875   23.538853 H          1 MOL1         0.3769
      50    C15     16.993051   22.637626   22.813641 C.3        1 MOL1         0.1053
      51    H24     17.837643   21.997411   23.098653 H          1 MOL1         0.0783
      52    O13     16.040954   22.684086   23.881228 O.3        1 MOL1        -0.5519
      53    H25     16.457901   23.248680   24.570036 H          1 MOL1         0.3769
      54    C16     16.339593   22.043296   21.543712 C.3        1 MOL1         0.1018
      55    H26     15.407973   22.586946   21.337855 H          1 MOL1         0.0783
      56    C17     17.274301   22.151664   20.309678 C.3        1 MOL1         0.1043
      57    H27     18.147425   21.511914   20.490706 H          1 MOL1         0.0783
      58    O14     17.708991   23.527900   20.162658 O.3        1 MOL1        -0.3740
      59    C18     16.638274   21.686073   18.973026 C.3        1 MOL1         0.0138
      60    H28     16.836799   20.614632   18.847296 H          1 MOL1         0.0794
      61    H29     17.145363   22.199939   18.145445 H          1 MOL1         0.0794
      62    O15     15.227018   21.922105   18.903193 O.3        1 MOL1        -0.5486
      63    H30     14.791005   21.254199   19.482332 H          1 MOL1         0.3769
      64    C19     23.587407   22.558603   20.692569 C.3        1 MOL1         0.2972
      65    H31     24.615537   22.633784   20.315560 H          1 MOL1         0.0751
      66    O16     23.342416   21.285806   21.321554 O.3        1 MOL1        -0.3740
      67    C20     23.291664   23.677165   21.725659 C.3        1 MOL1         0.1003
      68    H32     23.446860   24.638876   21.219622 H          1 MOL1         0.0783
      69    O17     24.177357   23.589339   22.854011 O.3        1 MOL1        -0.5519
      70    H33     24.129846   22.662218   23.198551 H          1 MOL1         0.3769
      71    C21     21.817007   23.616604   22.194886 C.3        1 MOL1         0.1053
      72    H34     21.688391   22.699881   22.783964 H          1 MOL1         0.0783
      73    O18     21.524201   24.755143   23.011260 O.3        1 MOL1        -0.5519
      74    H35     22.278190   24.824749   23.637955 H          1 MOL1         0.3769
      75    C22     20.834672   23.561790   20.997127 C.3        1 MOL1         0.1018
      76    H36     20.805653   24.553773   20.527498 H          1 MOL1         0.0783
      77    C23     21.256722   22.496438   19.944184 C.3        1 MOL1         0.1043
      78    H37     21.131988   21.501623   20.390867 H          1 MOL1         0.0783
      79    O19     22.649635   22.699324   19.604889 O.3        1 MOL1        -0.3740
      80    C24     20.441367   22.501837   18.625357 C.3        1 MOL1         0.0138
      81    H38     19.585339   21.826965   18.740151 H          1 MOL1         0.0794
      82    H39     21.067476   22.079863   17.827850 H          1 MOL1         0.0794
      83    O20     19.980970   23.803476   18.246637 O.3        1 MOL1        -0.5486
      84    H40     19.166475   23.979305   18.772340 H          1 MOL1         0.3769
      85    C25     25.082173   17.661309   22.162808 C.3        1 MOL1         0.2972
      86    H41     25.724961   16.799717   22.384986 H          1 MOL1         0.0751
      87    O21     23.708535   17.271377   21.966603 O.3        1 MOL1        -0.3740
      88    C26     25.128263   18.674474   23.331624 C.3        1 MOL1         0.1003
      89    H42     26.155437   19.053245   23.412646 H          1 MOL1         0.0783
      90    O22     24.751620   18.039992   24.563911 O.3        1 MOL1        -0.5519
      91    H43     24.190725   17.260440   24.327591 H          1 MOL1         0.3769
      92    C27     24.192851   19.864762   23.027942 C.3        1 MOL1         0.1053
      93    H44     23.173298   19.471254   22.993985 H          1 MOL1         0.0783
      94    O23     24.285900   20.851244   24.060405 O.3        1 MOL1        -0.5519
      95    H45     24.306387   20.336288   24.899236 H          1 MOL1         0.3769
      96    C28     24.503397   20.500187   21.652423 C.3        1 MOL1         0.1018
      97    H46     25.407014   21.116889   21.749034 H          1 MOL1         0.0783
      98    C29     24.684995   19.441832   20.523890 C.3        1 MOL1         0.1043
      99    H47     23.689416   19.053937   20.275715 H          1 MOL1         0.0783
     100    O24     25.522111   18.340806   20.968537 O.3        1 MOL1        -0.3740
     101    C30     25.288234   20.014786   19.219271 C.3        1 MOL1         0.0138
     102    H48     24.533410   20.646838   18.732325 H          1 MOL1         0.0794
     103    H49     25.503187   19.181355   18.536891 H          1 MOL1         0.0794
     104    O25     26.476441   20.776893   19.464640 O.3        1 MOL1        -0.5486
     105    H50     26.851059   21.033932   18.593858 H          1 MOL1         0.3769
     106    C31     21.338858   13.905795   21.300268 C.3        1 MOL1         0.2972
     107    H51     20.998683   12.888236   21.069054 H          1 MOL1         0.0751
     108    O26     20.226813   14.800069   21.505564 O.3        1 MOL1        -0.3740
     109    C32     22.175123   13.888931   22.604751 C.3        1 MOL1         0.1003
     110    H52     23.022685   13.209019   22.448292 H          1 MOL1         0.0783
     111    O27     21.376423   13.411517   23.699061 O.3        1 MOL1        -0.5519
     112    H53     20.442817   13.665701   23.498717 H          1 MOL1         0.3769
     113    C33     22.739038   15.294639   22.919750 C.3        1 MOL1         0.1053
     114    H54     21.893982   15.951206   23.164893 H          1 MOL1         0.0783
     115    O28     23.631712   15.219655   24.035872 O.3        1 MOL1        -0.5519
     116    H55     23.164351   14.663735   24.698867 H          1 MOL1         0.3769
     117    C34     23.472830   15.881339   21.689887 C.3        1 MOL1         0.1018
     118    H56     24.406335   15.324908   21.532820 H          1 MOL1         0.0783
     119    C35     22.602860   15.797732   20.406803 C.3        1 MOL1         0.1043
     120    H57     21.731487   16.451262   20.545013 H          1 MOL1         0.0783
     121    O29     22.153951   14.430370   20.228205 O.3        1 MOL1        -0.3740
     122    C36     23.315882   16.261759   19.109016 C.3        1 MOL1         0.0138
     123    H58     23.133889   17.335451   18.976915 H          1 MOL1         0.0794
     124    H59     22.850863   15.755097   18.252802 H          1 MOL1         0.0794
     125    O30     24.726890   16.014543   19.116456 O.3        1 MOL1        -0.5486
     126    H60     25.135255   16.683481   19.714000 H          1 MOL1         0.3769
     127    C1      19.152811   18.652705   22.245465 C.3        1 MOL1        -0.1693
     128    H1      18.646634   19.229599   21.461279 H          1 MOL1         0.0829
     129    H2      18.857990   17.601819   22.158701 H          1 MOL1         0.0829
     130    C2      19.048588   19.263948   23.681038 C.3        1 MOL1        -0.1768
     131    H3      19.248261   18.556807   24.495398 H          1 MOL1         0.0829
     132    H4      18.129192   19.811686   23.911575 H          1 MOL1         0.0829
     133    C3      20.273252   20.133178   23.269983 C.3        1 MOL1         0.1211
     134    H5      20.004130   21.028409   22.699501 H          1 MOL1         0.0786
     135    C4      20.685187   18.921487   22.380460 C.3        1 MOL1        -0.1768
     136    H6      21.236064   18.138521   22.913266 H          1 MOL1         0.0829
     137    H7      21.218450   19.163383   21.455098 H          1 MOL1         0.0829
     138    O1      21.154127   20.456727   24.321812 O.3        1 MOL1        -0.5515
     139    H8      22.000712   20.764109   23.933532 H          1 MOL1         0.3773
@<TRIPOS>BOND
    1     1     2    1
    2     1     3    1
    3     1     4    1
    4     4     5    1
    5     4     6    1
    6     6     7    1
    7     4     8    1
    8     8     9    1
    9     8    10    1
   10    10    11    1
   11     8    12    1
   12    12    13    1
   13    12    14    1
   14    14    15    1
   15     1    16    1
   16    14    16    1
   17    14    17    1
   18    17    18    1
   19    17    19    1
   20    17    20    1
   21    20    21    1
   22    22    23    1
   23    22    24    1
   24    22    25    1
   25    25    26    1
   26    25    27    1
   27    27    28    1
   28    25    29    1
   29    29    30    1
   30    29    31    1
   31    31    32    1
   32     3    33    1
   33    29    33    1
   34    33    34    1
   35    33    35    1
   36    35    36    1
   37    22    37    1
   38    35    37    1
   39    35    38    1
   40    38    39    1
   41    38    40    1
   42    38    41    1
   43    41    42    1
   44    43    44    1
   45    43    45    1
   46    43    46    1
   47    46    47    1
   48    46    48    1
   49    48    49    1
   50    46    50    1
   51    50    51    1
   52    50    52    1
   53    52    53    1
   54    24    54    1
   55    50    54    1
   56    54    55    1
   57    54    56    1
   58    56    57    1
   59    43    58    1
   60    56    58    1
   61    56    59    1
   62    59    60    1
   63    59    61    1
   64    59    62    1
   65    62    63    1
   66    64    65    1
   67    64    66    1
   68    64    67    1
   69    67    68    1
   70    67    69    1
   71    69    70    1
   72    67    71    1
   73    71    72    1
   74    71    73    1
   75    73    74    1
   76    45    75    1
   77    71    75    1
   78    75    76    1
   79    75    77    1
   80    77    78    1
   81    64    79    1
   82    77    79    1
   83    77    80    1
   84    80    81    1
   85    80    82    1
   86    80    83    1
   87    83    84    1
   88    85    86    1
   89    85    87    1
   90    85    88    1
   91    88    89    1
   92    88    90    1
   93    90    91    1
   94    88    92    1
   95    92    93    1
   96    92    94    1
   97    94    95    1
   98    66    96    1
   99    92    96    1
  100    96    97    1
  101    96    98    1
  102    98    99    1
  103    85   100    1
  104    98   100    1
  105    98   101    1
  106   101   102    1
  107   101   103    1
  108   101   104    1
  109   104   105    1
  110   106   107    1
  111    12   108    1
  112   106   108    1
  113   106   109    1
  114   109   110    1
  115   109   111    1
  116   111   112    1
  117   109   113    1
  118   113   114    1
  119   113   115    1
  120   115   116    1
  121    87   117    1
  122   113   117    1
  123   117   118    1
  124   117   119    1
  125   119   120    1
  126   106   121    1
  127   119   121    1
  128   119   122    1
  129   122   123    1
  130   122   124    1
  131   122   125    1
  132   125   126    1
  133   127   128    1
  134   127   129    1
  135   127   130    1
  136   130   131    1
  137   130   132    1
  138   130   133    1
  139   133   134    1
  140   127   135    1
  141   133   135    1
  142   135   136    1
  143   135   137    1
  144   133   138    1
  145   138   139    1
@<TRIPOS>SUBSTRUCTURE
       1 MOL1            1 RESIDUE      1      MOL     
       2 MOL1          139 RESIDUE      1      MOL     
@<SCITEGIC>MOL_PROPERTY
feprocess Rank
SciTegic.value.IntegerValue
108

@<SCITEGIC>MOL_PROPERTY
Conf_Id
SciTegic.value.IntegerValue
742

@<SCITEGIC>MOL_PROPERTY
Probability
SciTegic.value.DoubleValue
0.02

@<SCITEGIC>MOL_PROPERTY
G
SciTegic.value.DoubleValue
549.112

@<SCITEGIC>MOL_PROPERTY
E
SciTegic.value.DoubleValue
371.243

@<SCITEGIC>MOL_PROPERTY
-TS
SciTegic.value.DoubleValue
177.869

@<SCITEGIC>MOL_PROPERTY
U+W
SciTegic.value.DoubleValue
248.732

@<SCITEGIC>MOL_PROPERTY
U
SciTegic.value.DoubleValue
286.086

@<SCITEGIC>MOL_PROPERTY
W
SciTegic.value.DoubleValue
-37.354

@<SCITEGIC>MOL_PROPERTY
W(PB)
SciTegic.value.DoubleValue
-43.305

@<SCITEGIC>MOL_PROPERTY
W(SA)
SciTegic.value.DoubleValue
5.950

@<SCITEGIC>MOL_PROPERTY
Valence
SciTegic.value.DoubleValue
154.725

@<SCITEGIC>MOL_PROPERTY
Coulomb
SciTegic.value.DoubleValue
153.484

@<SCITEGIC>MOL_PROPERTY
VdW
SciTegic.value.DoubleValue
-22.123

@<SCITEGIC>MOL_PROPERTY
VdW6
SciTegic.value.DoubleValue
-168.649

@<SCITEGIC>MOL_PROPERTY
VdW12
SciTegic.value.DoubleValue
146.526

@<SCITEGIC>MOL_PROPERTY
Bond
SciTegic.value.DoubleValue
4.501

@<SCITEGIC>MOL_PROPERTY
Angle
SciTegic.value.DoubleValue
11.517

@<SCITEGIC>MOL_PROPERTY
Pdih
SciTegic.value.DoubleValue
138.707

@<SCITEGIC>MOL_PROPERTY
Idih
SciTegic.value.DoubleValue
0.000

@<SCITEGIC>MOL_PROPERTY
Tether
SciTegic.value.DoubleValue
0.000

@<TRIPOS>MOLECULE
CD_guest-s16_fast_vm2_rndm.mol2 : feprocess host+ligand conformer 109
         139         145           2
SMALL
USER_CHARGES
 
@<TRIPOS>ATOM
       1    C1      16.103793   15.139368   21.879313 C.3        1 MOL1         0.2972
       2    H1      15.039980   14.924507   22.043647 H          1 MOL1         0.0751
       3    O1      16.355337   16.556638   21.859455 O.3        1 MOL1        -0.3740
       4    C2      16.944556   14.528629   23.026554 C.3        1 MOL1         0.1003
       5    H2      16.774154   13.444135   23.024554 H          1 MOL1         0.0783
       6    O2      16.529263   15.075638   24.288047 O.3        1 MOL1        -0.5519
       7    H3      16.160070   15.970120   24.095352 H          1 MOL1         0.3769
       8    C3      18.454444   14.779173   22.800844 C.3        1 MOL1         0.1053
       9    H4      18.634938   15.857379   22.892550 H          1 MOL1         0.0783
      10    O3      19.205754   14.079380   23.797612 O.3        1 MOL1        -0.5519
      11    H5      18.749972   14.280588   24.645503 H          1 MOL1         0.3769
      12    C4      18.899151   14.328208   21.387304 C.3        1 MOL1         0.1018
      13    H6      18.946093   13.231186   21.367370 H          1 MOL1         0.0783
      14    C5      17.939384   14.845860   20.279892 C.3        1 MOL1         0.1043
      15    H7      18.085403   15.930227   20.201763 H          1 MOL1         0.0783
      16    O4      16.556447   14.575500   20.630294 O.3        1 MOL1        -0.3740
      17    C6      18.215897   14.238535   18.883811 C.3        1 MOL1         0.0138
      18    H8      19.159721   14.652389   18.503835 H          1 MOL1         0.0794
      19    H9      17.420534   14.558618   18.197386 H          1 MOL1         0.0794
      20    O5      18.293318   12.808144   18.924788 O.3        1 MOL1        -0.5486
      21    H10     18.393745   12.488636   18.001667 H          1 MOL1         0.3769
      22    C7      14.620616   20.253876   21.111390 C.3        1 MOL1         0.2972
      23    H11     13.955140   21.083677   20.841033 H          1 MOL1         0.0751
      24    O6      15.932707   20.728041   21.478676 O.3        1 MOL1        -0.3740
      25    C8      14.041693   19.492523   22.329137 C.3        1 MOL1         0.1003
      26    H12     13.053128   19.108511   22.045665 H          1 MOL1         0.0783
      27    O7      13.908307   20.383689   23.447529 O.3        1 MOL1        -0.5519
      28    H13     14.650477   21.031409   23.377075 H          1 MOL1         0.3769
      29    C9      14.938727   18.288371   22.704045 C.3        1 MOL1         0.1053
      30    H14     15.884949   18.689615   23.086115 H          1 MOL1         0.0783
      31    O8      14.304339   17.509468   23.723394 O.3        1 MOL1        -0.5519
      32    H15     13.986421   18.163053   24.385227 H          1 MOL1         0.3769
      33    C10     15.250793   17.398510   21.474065 C.3        1 MOL1         0.1018
      34    H16     14.353090   16.818993   21.221996 H          1 MOL1         0.0783
      35    C11     15.691453   18.237820   20.242101 C.3        1 MOL1         0.1043
      36    H17     16.673180   18.664726   20.472304 H          1 MOL1         0.0783
      37    O9      14.748976   19.317698   20.020499 O.3        1 MOL1        -0.3740
      38    C12     15.841550   17.444282   18.917802 C.3        1 MOL1         0.0138
      39    H18     16.878852   17.099132   18.834546 H          1 MOL1         0.0794
      40    H19     15.674142   18.131410   18.077763 H          1 MOL1         0.0794
      41    O10     14.949770   16.328021   18.818438 O.3        1 MOL1        -0.5486
      42    H20     15.317121   15.616405   19.393524 H          1 MOL1         0.3769
      43    C13     18.661519   23.809269   20.637490 C.3        1 MOL1         0.2972
      44    H21     19.114610   24.727461   20.242195 H          1 MOL1         0.0751
      45    O11     19.635300   22.984216   21.305270 O.3        1 MOL1        -0.3740
      46    C14     17.527903   24.143659   21.642738 C.3        1 MOL1         0.1003
      47    H22     16.795470   24.765193   21.111481 H          1 MOL1         0.0783
      48    O12     18.033745   24.875432   22.771259 O.3        1 MOL1        -0.5519
      49    H23     18.814461   24.376061   23.122296 H          1 MOL1         0.3769
      50    C15     16.804897   22.857740   22.115327 C.3        1 MOL1         0.1053
      51    H24     17.511582   22.271963   22.719495 H          1 MOL1         0.0783
      52    O13     15.667412   23.214847   22.908868 O.3        1 MOL1        -0.5519
      53    H25     15.993087   23.904598   23.528823 H          1 MOL1         0.3769
      54    C16     16.358030   21.985491   20.914831 C.3        1 MOL1         0.1018
      55    H26     15.537592   22.500331   20.397946 H          1 MOL1         0.0783
      56    C17     17.535294   21.751415   19.921819 C.3        1 MOL1         0.1043
      57    H27     18.302747   21.148096   20.424149 H          1 MOL1         0.0783
      58    O14     18.092938   23.038179   19.558767 O.3        1 MOL1        -0.3740
      59    C18     17.172105   21.019169   18.605352 C.3        1 MOL1         0.0138
      60    H28     17.287570   19.940806   18.761201 H          1 MOL1         0.0794
      61    H29     17.905581   21.301148   17.838380 H          1 MOL1         0.0794
      62    O15     15.847714   21.306980   18.143050 O.3        1 MOL1        -0.5486
      63    H30     15.240322   20.722817   18.653417 H          1 MOL1         0.3769
      64    C19     23.673274   22.786278   22.157068 C.3        1 MOL1         0.2972
      65    H31     24.733445   22.973389   22.370459 H          1 MOL1         0.0751
      66    O16     23.391604   21.379943   22.037494 O.3        1 MOL1        -0.3740
      67    C20     22.799113   23.348117   23.303605 C.3        1 MOL1         0.1003
      68    H32     22.967758   24.431851   23.350817 H          1 MOL1         0.0783
      69    O17     23.172680   22.752284   24.556577 O.3        1 MOL1        -0.5519
      70    H33     23.550086   21.861520   24.350684 H          1 MOL1         0.3769
      71    C21     21.298952   23.107417   23.016571 C.3        1 MOL1         0.1053
      72    H34     21.115326   22.027367   23.065563 H          1 MOL1         0.0783
      73    O18     20.510129   23.773675   24.008075 O.3        1 MOL1        -0.5519
      74    H35     20.929885   23.537738   24.865350 H          1 MOL1         0.3769
      75    C22     20.900586   23.606598   21.605752 C.3        1 MOL1         0.1018
      76    H36     20.821219   24.701487   21.638783 H          1 MOL1         0.0783
      77    C23     21.911468   23.177157   20.501064 C.3        1 MOL1         0.1043
      78    H37     21.781621   22.101242   20.327893 H          1 MOL1         0.0783
      79    O19     23.276565   23.426966   20.927727 O.3        1 MOL1        -0.3740
      80    C24     21.692694   23.887107   19.143456 C.3        1 MOL1         0.0138
      81    H38     20.773892   23.494605   18.687203 H          1 MOL1         0.0794
      82    H39     22.524145   23.627426   18.474530 H          1 MOL1         0.0794
      83    O20     21.595854   25.309583   19.287513 O.3        1 MOL1        -0.5486
      84    H40     21.543476   25.697569   18.386829 H          1 MOL1         0.3769
      85    C25     25.120971   17.671088   21.445552 C.3        1 MOL1         0.2972
      86    H41     25.793957   16.823679   21.262000 H          1 MOL1         0.0751
      87    O21     23.745694   17.249090   21.544923 O.3        1 MOL1        -0.3740
      88    C26     25.495635   18.358161   22.781269 C.3        1 MOL1         0.1003
      89    H42     26.525328   18.727566   22.689602 H          1 MOL1         0.0783
      90    O22     25.420494   17.418751   23.865678 O.3        1 MOL1        -0.5519
      91    H43     24.763124   16.728040   23.602419 H          1 MOL1         0.3769
      92    C27     24.571499   19.568990   23.048405 C.3        1 MOL1         0.1053
      93    H44     23.558735   19.188194   23.233541 H          1 MOL1         0.0783
      94    O23     25.028376   20.282464   24.201795 O.3        1 MOL1        -0.5519
      95    H45     25.214652   19.588189   24.872794 H          1 MOL1         0.3769
      96    C28     24.523269   20.518441   21.825593 C.3        1 MOL1         0.1018
      97    H46     25.469237   21.073681   21.781215 H          1 MOL1         0.0783
      98    C29     24.301113   19.765092   20.481918 C.3        1 MOL1         0.1043
      99    H47     23.277561   19.377539   20.474191 H          1 MOL1         0.0783
     100    O24     25.222321   18.648528   20.384973 O.3        1 MOL1        -0.3740
     101    C30     24.436441   20.646481   19.213033 C.3        1 MOL1         0.0138
     102    H48     23.457300   21.091268   18.994005 H          1 MOL1         0.0794
     103    H49     24.689226   19.999641   18.362240 H          1 MOL1         0.0794
     104    O25     25.410052   21.687841   19.345731 O.3        1 MOL1        -0.5486
     105    H50     24.975820   22.422787   19.836069 H          1 MOL1         0.3769
     106    C31     21.196293   14.099965   20.538647 C.3        1 MOL1         0.2972
     107    H51     20.766396   13.179874   20.122172 H          1 MOL1         0.0751
     108    O26     20.188157   14.929505   21.149771 O.3        1 MOL1        -0.3740
     109    C32     22.270694   13.778566   21.612000 C.3        1 MOL1         0.1003
     110    H52     23.056339   13.189416   21.121370 H          1 MOL1         0.0783
     111    O27     21.717107   13.012123   22.693217 O.3        1 MOL1        -0.5519
     112    H53     20.908641   13.489071   23.011138 H          1 MOL1         0.3769
     113    C33     22.915857   15.082013   22.146959 C.3        1 MOL1         0.1053
     114    H54     22.147237   15.647848   22.691676 H          1 MOL1         0.0783
     115    O28     23.996419   14.761140   23.029418 O.3        1 MOL1        -0.5519
     116    H55     23.651350   14.043814   23.606715 H          1 MOL1         0.3769
     117    C34     23.431908   15.962423   20.982428 C.3        1 MOL1         0.1018
     118    H56     24.311763   15.476484   20.540570 H          1 MOL1         0.0783
     119    C35     22.350081   16.162954   19.886252 C.3        1 MOL1         0.1043
     120    H57     21.537198   16.759362   20.313755 H          1 MOL1         0.0783
     121    O29     21.832811   14.868628   19.491957 O.3        1 MOL1        -0.3740
     122    C36     22.834752   16.912461   18.617804 C.3        1 MOL1         0.0138
     123    H58     22.687700   17.988680   18.770966 H          1 MOL1         0.0794
     124    H59     22.193567   16.622282   17.774758 H          1 MOL1         0.0794
     125    O30     24.208007   16.660397   18.299012 O.3        1 MOL1        -0.5486
     126    H60     24.749194   17.225285   18.897708 H          1 MOL1         0.3769
     127    C1      20.073423   19.217614   23.452839 C.3        1 MOL1        -0.1693
     128    H1      20.473556   18.371178   24.026076 H          1 MOL1         0.0829
     129    H2      20.087758   20.110557   24.088382 H          1 MOL1         0.0829
     130    C2      18.730537   18.926964   22.710172 C.3        1 MOL1        -0.1768
     131    H3      18.059856   18.220191   23.206488 H          1 MOL1         0.0829
     132    H4      18.165681   19.820355   22.427536 H          1 MOL1         0.0829
     133    C3      19.620042   18.333070   21.578902 C.3        1 MOL1         0.1211
     134    H5      19.925313   17.298965   21.767025 H          1 MOL1         0.0786
     135    C4      20.678637   19.379440   22.021912 C.3        1 MOL1        -0.1768
     136    H6      21.717573   19.067364   21.916077 H          1 MOL1         0.0829
     137    H7      20.550430   20.369692   21.571261 H          1 MOL1         0.0829
     138    O1      19.146587   18.485379   20.259510 O.3        1 MOL1        -0.5515
     139    H8      19.882058   18.262066   19.659127 H          1 MOL1         0.3773
@<TRIPOS>BOND
    1     1     2    1
    2     1     3    1
    3     1     4    1
    4     4     5    1
    5     4     6    1
    6     6     7    1
    7     4     8    1
    8     8     9    1
    9     8    10    1
   10    10    11    1
   11     8    12    1
   12    12    13    1
   13    12    14    1
   14    14    15    1
   15     1    16    1
   16    14    16    1
   17    14    17    1
   18    17    18    1
   19    17    19    1
   20    17    20    1
   21    20    21    1
   22    22    23    1
   23    22    24    1
   24    22    25    1
   25    25    26    1
   26    25    27    1
   27    27    28    1
   28    25    29    1
   29    29    30    1
   30    29    31    1
   31    31    32    1
   32     3    33    1
   33    29    33    1
   34    33    34    1
   35    33    35    1
   36    35    36    1
   37    22    37    1
   38    35    37    1
   39    35    38    1
   40    38    39    1
   41    38    40    1
   42    38    41    1
   43    41    42    1
   44    43    44    1
   45    43    45    1
   46    43    46    1
   47    46    47    1
   48    46    48    1
   49    48    49    1
   50    46    50    1
   51    50    51    1
   52    50    52    1
   53    52    53    1
   54    24    54    1
   55    50    54    1
   56    54    55    1
   57    54    56    1
   58    56    57    1
   59    43    58    1
   60    56    58    1
   61    56    59    1
   62    59    60    1
   63    59    61    1
   64    59    62    1
   65    62    63    1
   66    64    65    1
   67    64    66    1
   68    64    67    1
   69    67    68    1
   70    67    69    1
   71    69    70    1
   72    67    71    1
   73    71    72    1
   74    71    73    1
   75    73    74    1
   76    45    75    1
   77    71    75    1
   78    75    76    1
   79    75    77    1
   80    77    78    1
   81    64    79    1
   82    77    79    1
   83    77    80    1
   84    80    81    1
   85    80    82    1
   86    80    83    1
   87    83    84    1
   88    85    86    1
   89    85    87    1
   90    85    88    1
   91    88    89    1
   92    88    90    1
   93    90    91    1
   94    88    92    1
   95    92    93    1
   96    92    94    1
   97    94    95    1
   98    66    96    1
   99    92    96    1
  100    96    97    1
  101    96    98    1
  102    98    99    1
  103    85   100    1
  104    98   100    1
  105    98   101    1
  106   101   102    1
  107   101   103    1
  108   101   104    1
  109   104   105    1
  110   106   107    1
  111    12   108    1
  112   106   108    1
  113   106   109    1
  114   109   110    1
  115   109   111    1
  116   111   112    1
  117   109   113    1
  118   113   114    1
  119   113   115    1
  120   115   116    1
  121    87   117    1
  122   113   117    1
  123   117   118    1
  124   117   119    1
  125   119   120    1
  126   106   121    1
  127   119   121    1
  128   119   122    1
  129   122   123    1
  130   122   124    1
  131   122   125    1
  132   125   126    1
  133   127   128    1
  134   127   129    1
  135   127   130    1
  136   130   131    1
  137   130   132    1
  138   130   133    1
  139   133   134    1
  140   127   135    1
  141   133   135    1
  142   135   136    1
  143   135   137    1
  144   133   138    1
  145   138   139    1
@<TRIPOS>SUBSTRUCTURE
       1 MOL1            1 RESIDUE      1      MOL     
       2 MOL1          139 RESIDUE      1      MOL     
@<SCITEGIC>MOL_PROPERTY
feprocess Rank
SciTegic.value.IntegerValue
109

@<SCITEGIC>MOL_PROPERTY
Conf_Id
SciTegic.value.IntegerValue
331

@<SCITEGIC>MOL_PROPERTY
Probability
SciTegic.value.DoubleValue
0.02

@<SCITEGIC>MOL_PROPERTY
G
SciTegic.value.DoubleValue
549.121

@<SCITEGIC>MOL_PROPERTY
E
SciTegic.value.DoubleValue
371.232

@<SCITEGIC>MOL_PROPERTY
-TS
SciTegic.value.DoubleValue
177.889

@<SCITEGIC>MOL_PROPERTY
U+W
SciTegic.value.DoubleValue
248.721

@<SCITEGIC>MOL_PROPERTY
U
SciTegic.value.DoubleValue
285.708

@<SCITEGIC>MOL_PROPERTY
W
SciTegic.value.DoubleValue
-36.987

@<SCITEGIC>MOL_PROPERTY
W(PB)
SciTegic.value.DoubleValue
-42.902

@<SCITEGIC>MOL_PROPERTY
W(SA)
SciTegic.value.DoubleValue
5.916

@<SCITEGIC>MOL_PROPERTY
Valence
SciTegic.value.DoubleValue
155.041

@<SCITEGIC>MOL_PROPERTY
Coulomb
SciTegic.value.DoubleValue
154.196

@<SCITEGIC>MOL_PROPERTY
VdW
SciTegic.value.DoubleValue
-23.529

@<SCITEGIC>MOL_PROPERTY
VdW6
SciTegic.value.DoubleValue
-170.878

@<SCITEGIC>MOL_PROPERTY
VdW12
SciTegic.value.DoubleValue
147.349

@<SCITEGIC>MOL_PROPERTY
Bond
SciTegic.value.DoubleValue
4.586

@<SCITEGIC>MOL_PROPERTY
Angle
SciTegic.value.DoubleValue
11.581

@<SCITEGIC>MOL_PROPERTY
Pdih
SciTegic.value.DoubleValue
138.874

@<SCITEGIC>MOL_PROPERTY
Idih
SciTegic.value.DoubleValue
0.000

@<SCITEGIC>MOL_PROPERTY
Tether
SciTegic.value.DoubleValue
0.000

@<TRIPOS>MOLECULE
CD_guest-s16_fast_vm2_rndm.mol2 : feprocess host+ligand conformer 110
         139         145           2
SMALL
USER_CHARGES
 
@<TRIPOS>ATOM
       1    C1      16.117027   15.178021   21.692194 C.3        1 MOL1         0.2972
       2    H1      15.028082   15.080624   21.791851 H          1 MOL1         0.0751
       3    O1      16.507675   16.542118   21.445777 O.3        1 MOL1        -0.3740
       4    C2      16.806980   14.704247   22.992252 C.3        1 MOL1         0.1003
       5    H2      16.562858   13.643160   23.131977 H          1 MOL1         0.0783
       6    O2      16.321194   15.457880   24.114716 O.3        1 MOL1        -0.5519
       7    H3      15.938611   16.292651   23.751244 H          1 MOL1         0.3769
       8    C3      18.342935   14.833539   22.874113 C.3        1 MOL1         0.1053
       9    H4      18.585915   15.902596   22.853120 H          1 MOL1         0.0783
      10    O3      18.965375   14.224389   24.009701 O.3        1 MOL1        -0.5519
      11    H5      18.529811   14.637495   24.787949 H          1 MOL1         0.3769
      12    C4      18.889261   14.187853   21.575478 C.3        1 MOL1         0.1018
      13    H6      18.968433   13.104650   21.733305 H          1 MOL1         0.0783
      14    C5      18.024910   14.493872   20.316573 C.3        1 MOL1         0.1043
      15    H7      18.237638   15.528120   20.021717 H          1 MOL1         0.0783
      16    O4      16.608363   14.370163   20.604317 O.3        1 MOL1        -0.3740
      17    C6      18.349725   13.599756   19.095094 C.3        1 MOL1         0.0138
      18    H8      19.372944   13.813658   18.758230 H          1 MOL1         0.0794
      19    H9      17.677483   13.880599   18.273325 H          1 MOL1         0.0794
      20    O5      18.205575   12.202588   19.382605 O.3        1 MOL1        -0.5486
      21    H10     18.904455   11.940676   20.016048 H          1 MOL1         0.3769
      22    C7      14.950958   20.217718   20.273323 C.3        1 MOL1         0.2972
      23    H11     14.352959   21.032835   19.845929 H          1 MOL1         0.0751
      24    O6      16.241449   20.689101   20.717449 O.3        1 MOL1        -0.3740
      25    C8      14.202597   19.523884   21.446980 C.3        1 MOL1         0.1003
      26    H12     13.285454   19.089253   21.028480 H          1 MOL1         0.0783
      27    O7      13.839618   20.447369   22.483477 O.3        1 MOL1        -0.5519
      28    H13     14.683883   20.790745   22.870839 H          1 MOL1         0.3769
      29    C9      15.054560   18.365918   22.021732 C.3        1 MOL1         0.1053
      30    H14     15.957037   18.797594   22.474583 H          1 MOL1         0.0783
      31    O8      14.307487   17.657565   23.016326 O.3        1 MOL1        -0.5519
      32    H15     13.878939   18.353910   23.562223 H          1 MOL1         0.3769
      33    C10     15.487549   17.393892   20.896179 C.3        1 MOL1         0.1018
      34    H16     14.607128   16.824490   20.570234 H          1 MOL1         0.0783
      35    C11     16.092041   18.136594   19.671412 C.3        1 MOL1         0.1043
      36    H17     17.054888   18.570104   19.969583 H          1 MOL1         0.0783
      37    O9      15.191744   19.201796   19.272698 O.3        1 MOL1        -0.3740
      38    C12     16.373880   17.234507   18.440671 C.3        1 MOL1         0.0138
      39    H18     17.406194   16.869715   18.506513 H          1 MOL1         0.0794
      40    H19     16.317293   17.852553   17.534666 H          1 MOL1         0.0794
      41    O10     15.478163   16.120932   18.331146 O.3        1 MOL1        -0.5486
      42    H20     15.716859   15.481683   19.042539 H          1 MOL1         0.3769
      43    C13     18.481701   23.962627   21.845000 C.3        1 MOL1         0.2972
      44    H21     18.864187   24.941511   22.161386 H          1 MOL1         0.0751
      45    O11     19.547137   23.090841   21.414372 O.3        1 MOL1        -0.3740
      46    C14     17.704996   23.288088   23.005126 C.3        1 MOL1         0.1003
      47    H22     16.866342   23.949472   23.259056 H          1 MOL1         0.0783
      48    O12     18.530535   23.107147   24.167165 O.3        1 MOL1        -0.5519
      49    H23     19.344094   23.651321   24.033667 H          1 MOL1         0.3769
      50    C15     17.126084   21.926417   22.561966 C.3        1 MOL1         0.1053
      51    H24     17.967219   21.247817   22.386602 H          1 MOL1         0.0783
      52    O13     16.305234   21.408353   23.612727 O.3        1 MOL1        -0.5519
      53    H25     16.836563   21.549741   24.428900 H          1 MOL1         0.3769
      54    C16     16.324522   22.030510   21.240373 C.3        1 MOL1         0.1018
      55    H26     15.335355   22.455424   21.455740 H          1 MOL1         0.0783
      56    C17     17.053099   22.887901   20.165007 C.3        1 MOL1         0.1043
      57    H27     17.896713   22.300734   19.779596 H          1 MOL1         0.0783
      58    O14     17.562075   24.117410   20.743565 O.3        1 MOL1        -0.3740
      59    C18     16.158910   23.247526   18.954379 C.3        1 MOL1         0.0138
      60    H28     15.986379   22.335916   18.366431 H          1 MOL1         0.0794
      61    H29     16.705458   23.951080   18.312117 H          1 MOL1         0.0794
      62    O15     14.903822   23.810775   19.356079 O.3        1 MOL1        -0.5486
      63    H30     14.427230   24.087245   18.542917 H          1 MOL1         0.3769
      64    C19     23.700562   22.890286   21.508614 C.3        1 MOL1         0.2972
      65    H31     24.777524   23.085581   21.429782 H          1 MOL1         0.0751
      66    O16     23.431812   21.522841   21.870147 O.3        1 MOL1        -0.3740
      67    C20     23.082377   23.783809   22.610271 C.3        1 MOL1         0.1003
      68    H32     23.262685   24.829225   22.327722 H          1 MOL1         0.0783
      69    O17     23.709559   23.516510   23.875032 O.3        1 MOL1        -0.5519
      70    H33     23.906269   22.547429   23.896651 H          1 MOL1         0.3769
      71    C21     21.551593   23.571994   22.715188 C.3        1 MOL1         0.1053
      72    H34     21.373498   22.564161   23.111722 H          1 MOL1         0.0783
      73    O18     21.017493   24.546782   23.617426 O.3        1 MOL1        -0.5519
      74    H35     21.661456   24.580707   24.361313 H          1 MOL1         0.3769
      75    C22     20.863708   23.673458   21.326045 C.3        1 MOL1         0.1018
      76    H36     20.817224   24.727448   21.023778 H          1 MOL1         0.0783
      77    C23     21.618067   22.864956   20.234812 C.3        1 MOL1         0.1043
      78    H37     21.486550   21.798484   20.452840 H          1 MOL1         0.0783
      79    O19     23.032727   23.180058   20.262720 O.3        1 MOL1        -0.3740
      80    C24     21.078631   23.099505   18.801723 C.3        1 MOL1         0.0138
      81    H38     20.119109   22.575040   18.700491 H          1 MOL1         0.0794
      82    H39     21.774309   22.641613   18.086385 H          1 MOL1         0.0794
      83    O20     20.902997   24.487512   18.494439 O.3        1 MOL1        -0.5486
      84    H40     20.112783   24.799516   18.985931 H          1 MOL1         0.3769
      85    C25     25.063822   17.688231   21.612072 C.3        1 MOL1         0.2972
      86    H41     25.756620   16.845871   21.489604 H          1 MOL1         0.0751
      87    O21     23.709827   17.233447   21.810385 O.3        1 MOL1        -0.3740
      88    C26     25.473892   18.519065   22.853384 C.3        1 MOL1         0.1003
      89    H42     26.505511   18.860942   22.698526 H          1 MOL1         0.0783
      90    O22     25.413824   17.705237   24.035617 O.3        1 MOL1        -0.5519
      91    H43     24.704903   17.033788   23.881753 H          1 MOL1         0.3769
      92    C27     24.574018   19.767582   23.009623 C.3        1 MOL1         0.1053
      93    H44     23.562387   19.423656   23.262541 H          1 MOL1         0.0783
      94    O23     25.079064   20.598614   24.060704 O.3        1 MOL1        -0.5519
      95    H45     25.257948   19.985032   24.807584 H          1 MOL1         0.3769
      96    C28     24.500448   20.575407   21.690736 C.3        1 MOL1         0.1018
      97    H46     25.468297   21.068251   21.530086 H          1 MOL1         0.0783
      98    C29     24.163786   19.660919   20.479674 C.3        1 MOL1         0.1043
      99    H47     23.145837   19.278940   20.622134 H          1 MOL1         0.0783
     100    O24     25.090345   18.545658   20.450204 O.3        1 MOL1        -0.3740
     101    C30     24.195214   20.356697   19.095180 C.3        1 MOL1         0.0138
     102    H48     23.216793   20.819013   18.914992 H          1 MOL1         0.0794
     103    H49     24.331334   19.589749   18.321092 H          1 MOL1         0.0794
     104    O25     25.221145   21.348421   18.985499 O.3        1 MOL1        -0.5486
     105    H50     24.818161   22.200611   19.265924 H          1 MOL1         0.3769
     106    C31     21.252027   13.951916   20.924275 C.3        1 MOL1         0.2972
     107    H51     20.884285   12.982685   20.565942 H          1 MOL1         0.0751
     108    O26     20.174357   14.801601   21.357682 O.3        1 MOL1        -0.3740
     109    C32     22.238252   13.765666   22.108088 C.3        1 MOL1         0.1003
     110    H52     23.062777   13.136839   21.747800 H          1 MOL1         0.0783
     111    O27     21.599612   13.111121   23.215952 O.3        1 MOL1        -0.5519
     112    H53     20.776853   13.621129   23.429007 H          1 MOL1         0.3769
     113    C33     22.836754   15.123875   22.552793 C.3        1 MOL1         0.1053
     114    H54     22.030724   15.721326   22.999913 H          1 MOL1         0.0783
     115    O28     23.867339   14.900357   23.521247 O.3        1 MOL1        -0.5519
     116    H55     23.484104   14.261809   24.162710 H          1 MOL1         0.3769
     117    C34     23.415556   15.901369   21.343382 C.3        1 MOL1         0.1018
     118    H56     24.317822   15.377955   21.000556 H          1 MOL1         0.0783
     119    C35     22.396313   15.981417   20.171815 C.3        1 MOL1         0.1043
     120    H57     21.541374   16.588784   20.494148 H          1 MOL1         0.0783
     121    O29     21.945361   14.640144   19.861665 O.3        1 MOL1        -0.3740
     122    C36     22.933615   16.620799   18.866418 C.3        1 MOL1         0.0138
     123    H58     22.792614   17.706512   18.926153 H          1 MOL1         0.0794
     124    H59     22.318165   16.268498   18.027911 H          1 MOL1         0.0794
     125    O30     24.312726   16.327447   18.618213 O.3        1 MOL1        -0.5486
     126    H60     24.838087   16.977432   19.139850 H          1 MOL1         0.3769
     127    C1      20.022055   19.589632   21.216292 C.3        1 MOL1        -0.1693
     128    H1      20.837401   19.351103   20.523298 H          1 MOL1         0.0829
     129    H2      19.401885   20.374697   20.769314 H          1 MOL1         0.0829
     130    C2      20.462064   19.813285   22.702220 C.3        1 MOL1        -0.1768
     131    H3      21.450154   20.250393   22.856189 H          1 MOL1         0.0829
     132    H4      19.744536   20.355068   23.328539 H          1 MOL1         0.0829
     133    C3      20.392715   18.265011   22.828085 C.3        1 MOL1         0.1211
     134    H5      21.296101   17.757028   22.475324 H          1 MOL1         0.0786
     135    C4      19.255789   18.346237   21.767326 C.3        1 MOL1        -0.1768
     136    H6      18.264539   18.567244   22.178704 H          1 MOL1         0.0829
     137    H7      19.175699   17.491419   21.088884 H          1 MOL1         0.0829
     138    O1      20.013368   17.776311   24.090944 O.3        1 MOL1        -0.5515
     139    H8      19.209767   18.265054   24.355865 H          1 MOL1         0.3773
@<TRIPOS>BOND
    1     1     2    1
    2     1     3    1
    3     1     4    1
    4     4     5    1
    5     4     6    1
    6     6     7    1
    7     4     8    1
    8     8     9    1
    9     8    10    1
   10    10    11    1
   11     8    12    1
   12    12    13    1
   13    12    14    1
   14    14    15    1
   15     1    16    1
   16    14    16    1
   17    14    17    1
   18    17    18    1
   19    17    19    1
   20    17    20    1
   21    20    21    1
   22    22    23    1
   23    22    24    1
   24    22    25    1
   25    25    26    1
   26    25    27    1
   27    27    28    1
   28    25    29    1
   29    29    30    1
   30    29    31    1
   31    31    32    1
   32     3    33    1
   33    29    33    1
   34    33    34    1
   35    33    35    1
   36    35    36    1
   37    22    37    1
   38    35    37    1
   39    35    38    1
   40    38    39    1
   41    38    40    1
   42    38    41    1
   43    41    42    1
   44    43    44    1
   45    43    45    1
   46    43    46    1
   47    46    47    1
   48    46    48    1
   49    48    49    1
   50    46    50    1
   51    50    51    1
   52    50    52    1
   53    52    53    1
   54    24    54    1
   55    50    54    1
   56    54    55    1
   57    54    56    1
   58    56    57    1
   59    43    58    1
   60    56    58    1
   61    56    59    1
   62    59    60    1
   63    59    61    1
   64    59    62    1
   65    62    63    1
   66    64    65    1
   67    64    66    1
   68    64    67    1
   69    67    68    1
   70    67    69    1
   71    69    70    1
   72    67    71    1
   73    71    72    1
   74    71    73    1
   75    73    74    1
   76    45    75    1
   77    71    75    1
   78    75    76    1
   79    75    77    1
   80    77    78    1
   81    64    79    1
   82    77    79    1
   83    77    80    1
   84    80    81    1
   85    80    82    1
   86    80    83    1
   87    83    84    1
   88    85    86    1
   89    85    87    1
   90    85    88    1
   91    88    89    1
   92    88    90    1
   93    90    91    1
   94    88    92    1
   95    92    93    1
   96    92    94    1
   97    94    95    1
   98    66    96    1
   99    92    96    1
  100    96    97    1
  101    96    98    1
  102    98    99    1
  103    85   100    1
  104    98   100    1
  105    98   101    1
  106   101   102    1
  107   101   103    1
  108   101   104    1
  109   104   105    1
  110   106   107    1
  111    12   108    1
  112   106   108    1
  113   106   109    1
  114   109   110    1
  115   109   111    1
  116   111   112    1
  117   109   113    1
  118   113   114    1
  119   113   115    1
  120   115   116    1
  121    87   117    1
  122   113   117    1
  123   117   118    1
  124   117   119    1
  125   119   120    1
  126   106   121    1
  127   119   121    1
  128   119   122    1
  129   122   123    1
  130   122   124    1
  131   122   125    1
  132   125   126    1
  133   127   128    1
  134   127   129    1
  135   127   130    1
  136   130   131    1
  137   130   132    1
  138   130   133    1
  139   133   134    1
  140   127   135    1
  141   133   135    1
  142   135   136    1
  143   135   137    1
  144   133   138    1
  145   138   139    1
@<TRIPOS>SUBSTRUCTURE
       1 MOL1            1 RESIDUE      1      MOL     
       2 MOL1          139 RESIDUE      1      MOL     
@<SCITEGIC>MOL_PROPERTY
feprocess Rank
SciTegic.value.IntegerValue
110

@<SCITEGIC>MOL_PROPERTY
Conf_Id
SciTegic.value.IntegerValue
349

@<SCITEGIC>MOL_PROPERTY
Probability
SciTegic.value.DoubleValue
0.02

@<SCITEGIC>MOL_PROPERTY
G
SciTegic.value.DoubleValue
549.124

@<SCITEGIC>MOL_PROPERTY
E
SciTegic.value.DoubleValue
371.930

@<SCITEGIC>MOL_PROPERTY
-TS
SciTegic.value.DoubleValue
177.194

@<SCITEGIC>MOL_PROPERTY
U+W
SciTegic.value.DoubleValue
249.419

@<SCITEGIC>MOL_PROPERTY
U
SciTegic.value.DoubleValue
289.494

@<SCITEGIC>MOL_PROPERTY
W
SciTegic.value.DoubleValue
-40.075

@<SCITEGIC>MOL_PROPERTY
W(PB)
SciTegic.value.DoubleValue
-46.089

@<SCITEGIC>MOL_PROPERTY
W(SA)
SciTegic.value.DoubleValue
6.014

@<SCITEGIC>MOL_PROPERTY
Valence
SciTegic.value.DoubleValue
154.412

@<SCITEGIC>MOL_PROPERTY
Coulomb
SciTegic.value.DoubleValue
157.977

@<SCITEGIC>MOL_PROPERTY
VdW
SciTegic.value.DoubleValue
-22.895

@<SCITEGIC>MOL_PROPERTY
VdW6
SciTegic.value.DoubleValue
-169.275

@<SCITEGIC>MOL_PROPERTY
VdW12
SciTegic.value.DoubleValue
146.380

@<SCITEGIC>MOL_PROPERTY
Bond
SciTegic.value.DoubleValue
4.564

@<SCITEGIC>MOL_PROPERTY
Angle
SciTegic.value.DoubleValue
12.376

@<SCITEGIC>MOL_PROPERTY
Pdih
SciTegic.value.DoubleValue
137.473

@<SCITEGIC>MOL_PROPERTY
Idih
SciTegic.value.DoubleValue
0.000

@<SCITEGIC>MOL_PROPERTY
Tether
SciTegic.value.DoubleValue
0.000

@<TRIPOS>MOLECULE
CD_guest-s16_fast_vm2_rndm.mol2 : feprocess host+ligand conformer 111
         139         145           2
SMALL
USER_CHARGES
 
@<TRIPOS>ATOM
       1    C1      16.230342   15.349905   20.433332 C.3        1 MOL1         0.2972
       2    H1      15.223395   15.277690   20.002360 H          1 MOL1         0.0751
       3    O1      16.446362   16.621974   21.073436 O.3        1 MOL1        -0.3740
       4    C2      16.473703   14.229609   21.478385 C.3        1 MOL1         0.1003
       5    H2      16.360158   13.268537   20.960236 H          1 MOL1         0.0783
       6    O2      15.521475   14.301257   22.551722 O.3        1 MOL1        -0.5519
       7    H3      15.552059   15.223303   22.913605 H          1 MOL1         0.3769
       8    C3      17.917369   14.306097   22.033880 C.3        1 MOL1         0.1053
       9    H4      18.003055   15.230046   22.621228 H          1 MOL1         0.0783
      10    O3      18.170872   13.176374   22.875815 O.3        1 MOL1        -0.5519
      11    H5      17.376364   13.099064   23.449389 H          1 MOL1         0.3769
      12    C4      18.965806   14.357017   20.892800 C.3        1 MOL1         0.1018
      13    H6      19.024229   13.361993   20.432522 H          1 MOL1         0.0783
      14    C5      18.598582   15.413920   19.810825 C.3        1 MOL1         0.1043
      15    H7      18.697873   16.411231   20.257922 H          1 MOL1         0.0783
      16    O4      17.225482   15.207242   19.397460 O.3        1 MOL1        -0.3740
      17    C6      19.484864   15.403308   18.538782 C.3        1 MOL1         0.0138
      18    H8      20.331868   16.080774   18.697331 H          1 MOL1         0.0794
      19    H9      18.902667   15.819664   17.705863 H          1 MOL1         0.0794
      20    O5      19.968331   14.100845   18.193185 O.3        1 MOL1        -0.5486
      21    H10     20.759163   13.935181   18.756789 H          1 MOL1         0.3769
      22    C7      14.723002   20.246123   21.923208 C.3        1 MOL1         0.2972
      23    H11     14.079006   21.109229   22.135931 H          1 MOL1         0.0751
      24    O6      16.105360   20.629794   21.793731 O.3        1 MOL1        -0.3740
      25    C8      14.615140   19.213396   23.069790 C.3        1 MOL1         0.1003
      26    H12     13.574382   18.866377   23.109228 H          1 MOL1         0.0783
      27    O7      14.964827   19.817441   24.325679 O.3        1 MOL1        -0.5519
      28    H13     15.500112   20.623049   24.118834 H          1 MOL1         0.3769
      29    C9      15.519373   17.992342   22.787587 C.3        1 MOL1         0.1053
      30    H14     16.560731   18.329520   22.843195 H          1 MOL1         0.0783
      31    O8      15.289644   16.985972   23.779007 O.3        1 MOL1        -0.5519
      32    H15     15.296986   17.470251   24.634814 H          1 MOL1         0.3769
      33    C10     15.277302   17.406923   21.374068 C.3        1 MOL1         0.1018
      34    H16     14.364219   16.797288   21.399704 H          1 MOL1         0.0783
      35    C11     15.170054   18.497378   20.268105 C.3        1 MOL1         0.1043
      36    H17     16.182734   18.876112   20.083078 H          1 MOL1         0.0783
      37    O9      14.326416   19.597959   20.697576 O.3        1 MOL1        -0.3740
      38    C12     14.630206   17.966292   18.918709 C.3        1 MOL1         0.0138
      39    H18     15.399822   17.330935   18.459940 H          1 MOL1         0.0794
      40    H19     14.468851   18.819024   18.245466 H          1 MOL1         0.0794
      41    O10     13.416780   17.221408   19.079064 O.3        1 MOL1        -0.5486
      42    H20     13.088756   16.989149   18.182904 H          1 MOL1         0.3769
      43    C13     18.481072   24.024525   21.283326 C.3        1 MOL1         0.2972
      44    H21     18.819680   25.048288   21.078934 H          1 MOL1         0.0751
      45    O11     19.591711   23.142207   21.540568 O.3        1 MOL1        -0.3740
      46    C14     17.577405   24.019411   22.542255 C.3        1 MOL1         0.1003
      47    H22     16.731800   24.692055   22.348288 H          1 MOL1         0.0783
      48    O12     18.312390   24.493093   23.681962 O.3        1 MOL1        -0.5519
      49    H23     19.257415   24.245545   23.532247 H          1 MOL1         0.3769
      50    C15     17.013617   22.604762   22.813629 C.3        1 MOL1         0.1053
      51    H24     17.852156   21.955674   23.096564 H          1 MOL1         0.0783
      52    O13     16.063383   22.657656   23.882436 O.3        1 MOL1        -0.5519
      53    H25     16.486165   23.217236   24.571864 H          1 MOL1         0.3769
      54    C16     16.352493   22.023337   21.540877 C.3        1 MOL1         0.1018
      55    H26     15.426878   22.577860   21.337031 H          1 MOL1         0.0783
      56    C17     17.290025   22.125710   20.307384 C.3        1 MOL1         0.1043
      57    H27     18.160814   21.481163   20.485232 H          1 MOL1         0.0783
      58    O14     17.731243   23.499777   20.164695 O.3        1 MOL1        -0.3740
      59    C18     16.651843   21.666166   18.969805 C.3        1 MOL1         0.0138
      60    H28     16.845584   20.593975   18.842271 H          1 MOL1         0.0794
      61    H29     17.161230   22.179549   18.143413 H          1 MOL1         0.0794
      62    O15     15.241520   21.908191   18.900663 O.3        1 MOL1        -0.5486
      63    H30     14.803373   21.239876   19.477646 H          1 MOL1         0.3769
      64    C19     23.631238   22.620687   20.669635 C.3        1 MOL1         0.2972
      65    H31     24.663501   22.713279   20.307930 H          1 MOL1         0.0751
      66    O16     23.377486   21.317707   21.230718 O.3        1 MOL1        -0.3740
      67    C20     23.312811   23.691593   21.746215 C.3        1 MOL1         0.1003
      68    H32     23.424973   24.674408   21.270173 H          1 MOL1         0.0783
      69    O17     24.215724   23.608542   22.859489 O.3        1 MOL1        -0.5519
      70    H33     24.174448   22.681191   23.206245 H          1 MOL1         0.3769
      71    C21     21.844914   23.558126   22.222382 C.3        1 MOL1         0.1053
      72    H34     21.738873   22.599408   22.749059 H          1 MOL1         0.0783
      73    O18     21.526351   24.634874   23.110786 O.3        1 MOL1        -0.5519
      74    H35     22.288805   24.692678   23.728554 H          1 MOL1         0.3769
      75    C22     20.867036   23.566022   21.020431 C.3        1 MOL1         0.1018
      76    H36     20.830958   24.588158   20.621397 H          1 MOL1         0.0783
      77    C23     21.306392   22.587820   19.891286 C.3        1 MOL1         0.1043
      78    H37     21.184585   21.561171   20.254021 H          1 MOL1         0.0783
      79    O19     22.703357   22.817587   19.579564 O.3        1 MOL1        -0.3740
      80    C24     20.492358   22.686685   18.575649 C.3        1 MOL1         0.0138
      81    H38     19.627349   22.016632   18.650953 H          1 MOL1         0.0794
      82    H39     21.113470   22.308717   17.752628 H          1 MOL1         0.0794
      83    O20     20.045016   24.014531   18.281841 O.3        1 MOL1        -0.5486
      84    H40     19.206358   24.145078   18.781221 H          1 MOL1         0.3769
      85    C25     25.007796   17.683475   22.197001 C.3        1 MOL1         0.2972
      86    H41     25.631803   16.816788   22.450975 H          1 MOL1         0.0751
      87    O21     23.635237   17.304098   21.973346 O.3        1 MOL1        -0.3740
      88    C26     25.047526   18.710526   23.351892 C.3        1 MOL1         0.1003
      89    H42     26.087875   19.041962   23.465795 H          1 MOL1         0.0783
      90    O22     24.603359   18.105399   24.577231 O.3        1 MOL1        -0.5519
      91    H43     24.112999   17.282259   24.332325 H          1 MOL1         0.3769
      92    C27     24.184280   19.946840   23.014188 C.3        1 MOL1         0.1053
      93    H44     23.136968   19.628085   23.005382 H          1 MOL1         0.0783
      94    O23     24.368280   20.943267   24.023751 O.3        1 MOL1        -0.5519
      95    H45     24.249315   20.463522   24.874067 H          1 MOL1         0.3769
      96    C28     24.520839   20.531609   21.618232 C.3        1 MOL1         0.1018
      97    H46     25.432972   21.137508   21.700954 H          1 MOL1         0.0783
      98    C29     24.692321   19.440765   20.521553 C.3        1 MOL1         0.1043
      99    H47     23.690808   19.072110   20.268043 H          1 MOL1         0.0783
     100    O24     25.493087   18.330670   21.003343 O.3        1 MOL1        -0.3740
     101    C30     25.325489   19.971520   19.213323 C.3        1 MOL1         0.0138
     102    H48     24.596586   20.622697   18.712050 H          1 MOL1         0.0794
     103    H49     25.516071   19.120863   18.545117 H          1 MOL1         0.0794
     104    O25     26.537520   20.695997   19.456417 O.3        1 MOL1        -0.5486
     105    H50     26.923366   20.932757   18.584797 H          1 MOL1         0.3769
     106    C31     21.337655   13.877316   21.296521 C.3        1 MOL1         0.2972
     107    H51     21.021021   12.853076   21.061333 H          1 MOL1         0.0751
     108    O26     20.206539   14.741113   21.515659 O.3        1 MOL1        -0.3740
     109    C32     22.176422   13.881045   22.600211 C.3        1 MOL1         0.1003
     110    H52     23.043108   13.226181   22.441664 H          1 MOL1         0.0783
     111    O27     21.392305   13.379397   23.694049 O.3        1 MOL1        -0.5519
     112    H53     20.453739   13.616481   23.498356 H          1 MOL1         0.3769
     113    C33     22.698719   15.302803   22.919424 C.3        1 MOL1         0.1053
     114    H54     21.836378   15.936749   23.162365 H          1 MOL1         0.0783
     115    O28     23.590846   15.252865   24.037367 O.3        1 MOL1        -0.5519
     116    H55     23.142886   14.675156   24.695239 H          1 MOL1         0.3769
     117    C34     23.417033   15.910243   21.691673 C.3        1 MOL1         0.1018
     118    H56     24.358272   15.368408   21.529187 H          1 MOL1         0.0783
     119    C35     22.548340   15.809591   20.409832 C.3        1 MOL1         0.1043
     120    H57     21.660231   16.438477   20.551250 H          1 MOL1         0.0783
     121    O29     22.135266   14.431239   20.225507 O.3        1 MOL1        -0.3740
     122    C36     23.250322   16.297083   19.114733 C.3        1 MOL1         0.0138
     123    H58     23.055160   17.370019   18.995921 H          1 MOL1         0.0794
     124    H59     22.787978   15.794782   18.254521 H          1 MOL1         0.0794
     125    O30     24.664142   16.065556   19.114009 O.3        1 MOL1        -0.5486
     126    H60     25.067601   16.722133   19.728594 H          1 MOL1         0.3769
     127    C1      19.096844   19.002904   22.140040 C.3        1 MOL1        -0.1693
     128    H1      18.667772   18.674251   21.186755 H          1 MOL1         0.0829
     129    H2      18.494629   19.831815   22.524816 H          1 MOL1         0.0829
     130    C2      20.637295   19.260675   22.152849 C.3        1 MOL1        -0.1768
     131    H3      21.211490   18.642848   21.453684 H          1 MOL1         0.0829
     132    H4      20.949930   20.302382   22.041520 H          1 MOL1         0.0829
     133    C3      20.625033   18.728793   23.618328 C.3        1 MOL1         0.1211
     134    H5      21.510194   18.148425   23.907176 H          1 MOL1         0.0786
     135    C4      19.393502   17.878117   23.185257 C.3        1 MOL1        -0.1768
     136    H6      19.655503   16.912459   22.745574 H          1 MOL1         0.0829
     137    H7      18.630271   17.714827   23.954035 H          1 MOL1         0.0829
     138    O1      20.355206   19.710092   24.594230 O.3        1 MOL1        -0.5515
     139    H8      19.556000   20.183721   24.293595 H          1 MOL1         0.3773
@<TRIPOS>BOND
    1     1     2    1
    2     1     3    1
    3     1     4    1
    4     4     5    1
    5     4     6    1
    6     6     7    1
    7     4     8    1
    8     8     9    1
    9     8    10    1
   10    10    11    1
   11     8    12    1
   12    12    13    1
   13    12    14    1
   14    14    15    1
   15     1    16    1
   16    14    16    1
   17    14    17    1
   18    17    18    1
   19    17    19    1
   20    17    20    1
   21    20    21    1
   22    22    23    1
   23    22    24    1
   24    22    25    1
   25    25    26    1
   26    25    27    1
   27    27    28    1
   28    25    29    1
   29    29    30    1
   30    29    31    1
   31    31    32    1
   32     3    33    1
   33    29    33    1
   34    33    34    1
   35    33    35    1
   36    35    36    1
   37    22    37    1
   38    35    37    1
   39    35    38    1
   40    38    39    1
   41    38    40    1
   42    38    41    1
   43    41    42    1
   44    43    44    1
   45    43    45    1
   46    43    46    1
   47    46    47    1
   48    46    48    1
   49    48    49    1
   50    46    50    1
   51    50    51    1
   52    50    52    1
   53    52    53    1
   54    24    54    1
   55    50    54    1
   56    54    55    1
   57    54    56    1
   58    56    57    1
   59    43    58    1
   60    56    58    1
   61    56    59    1
   62    59    60    1
   63    59    61    1
   64    59    62    1
   65    62    63    1
   66    64    65    1
   67    64    66    1
   68    64    67    1
   69    67    68    1
   70    67    69    1
   71    69    70    1
   72    67    71    1
   73    71    72    1
   74    71    73    1
   75    73    74    1
   76    45    75    1
   77    71    75    1
   78    75    76    1
   79    75    77    1
   80    77    78    1
   81    64    79    1
   82    77    79    1
   83    77    80    1
   84    80    81    1
   85    80    82    1
   86    80    83    1
   87    83    84    1
   88    85    86    1
   89    85    87    1
   90    85    88    1
   91    88    89    1
   92    88    90    1
   93    90    91    1
   94    88    92    1
   95    92    93    1
   96    92    94    1
   97    94    95    1
   98    66    96    1
   99    92    96    1
  100    96    97    1
  101    96    98    1
  102    98    99    1
  103    85   100    1
  104    98   100    1
  105    98   101    1
  106   101   102    1
  107   101   103    1
  108   101   104    1
  109   104   105    1
  110   106   107    1
  111    12   108    1
  112   106   108    1
  113   106   109    1
  114   109   110    1
  115   109   111    1
  116   111   112    1
  117   109   113    1
  118   113   114    1
  119   113   115    1
  120   115   116    1
  121    87   117    1
  122   113   117    1
  123   117   118    1
  124   117   119    1
  125   119   120    1
  126   106   121    1
  127   119   121    1
  128   119   122    1
  129   122   123    1
  130   122   124    1
  131   122   125    1
  132   125   126    1
  133   127   128    1
  134   127   129    1
  135   127   130    1
  136   130   131    1
  137   130   132    1
  138   130   133    1
  139   133   134    1
  140   127   135    1
  141   133   135    1
  142   135   136    1
  143   135   137    1
  144   133   138    1
  145   138   139    1
@<TRIPOS>SUBSTRUCTURE
       1 MOL1            1 RESIDUE      1      MOL     
       2 MOL1          139 RESIDUE      1      MOL     
@<SCITEGIC>MOL_PROPERTY
feprocess Rank
SciTegic.value.IntegerValue
111

@<SCITEGIC>MOL_PROPERTY
Conf_Id
SciTegic.value.IntegerValue
675

@<SCITEGIC>MOL_PROPERTY
Probability
SciTegic.value.DoubleValue
0.02

@<SCITEGIC>MOL_PROPERTY
G
SciTegic.value.DoubleValue
549.131

@<SCITEGIC>MOL_PROPERTY
E
SciTegic.value.DoubleValue
372.458

@<SCITEGIC>MOL_PROPERTY
-TS
SciTegic.value.DoubleValue
176.673

@<SCITEGIC>MOL_PROPERTY
U+W
SciTegic.value.DoubleValue
249.947

@<SCITEGIC>MOL_PROPERTY
U
SciTegic.value.DoubleValue
288.183

@<SCITEGIC>MOL_PROPERTY
W
SciTegic.value.DoubleValue
-38.236

@<SCITEGIC>MOL_PROPERTY
W(PB)
SciTegic.value.DoubleValue
-44.184

@<SCITEGIC>MOL_PROPERTY
W(SA)
SciTegic.value.DoubleValue
5.948

@<SCITEGIC>MOL_PROPERTY
Valence
SciTegic.value.DoubleValue
155.826

@<SCITEGIC>MOL_PROPERTY
Coulomb
SciTegic.value.DoubleValue
153.859

@<SCITEGIC>MOL_PROPERTY
VdW
SciTegic.value.DoubleValue
-21.502

@<SCITEGIC>MOL_PROPERTY
VdW6
SciTegic.value.DoubleValue
-167.622

@<SCITEGIC>MOL_PROPERTY
VdW12
SciTegic.value.DoubleValue
146.120

@<SCITEGIC>MOL_PROPERTY
Bond
SciTegic.value.DoubleValue
4.518

@<SCITEGIC>MOL_PROPERTY
Angle
SciTegic.value.DoubleValue
11.292

@<SCITEGIC>MOL_PROPERTY
Pdih
SciTegic.value.DoubleValue
140.017

@<SCITEGIC>MOL_PROPERTY
Idih
SciTegic.value.DoubleValue
0.000

@<SCITEGIC>MOL_PROPERTY
Tether
SciTegic.value.DoubleValue
0.000

@<TRIPOS>MOLECULE
CD_guest-s16_fast_vm2_rndm.mol2 : feprocess host+ligand conformer 112
         139         145           2
SMALL
USER_CHARGES
 
@<TRIPOS>ATOM
       1    C1      16.257850   15.285473   21.200066 C.3        1 MOL1         0.2972
       2    H1      15.211070   15.045853   20.973207 H          1 MOL1         0.0751
       3    O1      16.453440   16.704058   21.353744 O.3        1 MOL1        -0.3740
       4    C2      16.666354   14.615576   22.536154 C.3        1 MOL1         0.1003
       5    H2      16.513309   13.533978   22.427363 H          1 MOL1         0.0783
       6    O2      15.847892   15.108046   23.609670 O.3        1 MOL1        -0.5519
       7    H3      15.522372   16.000116   23.334992 H          1 MOL1         0.3769
       8    C3      18.162350   14.861467   22.842870 C.3        1 MOL1         0.1053
       9    H4      18.297877   15.933671   23.031849 H          1 MOL1         0.0783
      10    O3      18.548028   14.112009   23.999230 O.3        1 MOL1        -0.5519
      11    H5      17.823206   14.255840   24.648316 H          1 MOL1         0.3769
      12    C4      19.040251   14.467974   21.631837 C.3        1 MOL1         0.1018
      13    H6      19.010512   13.376670   21.513365 H          1 MOL1         0.0783
      14    C5      18.537248   15.131825   20.322471 C.3        1 MOL1         0.1043
      15    H7      18.658369   16.217894   20.421616 H          1 MOL1         0.0783
      16    O4      17.131850   14.817814   20.147301 O.3        1 MOL1        -0.3740
      17    C6      19.307859   14.704873   19.045463 C.3        1 MOL1         0.0138
      18    H8      20.157395   15.385512   18.908603 H          1 MOL1         0.0794
      19    H9      18.650032   14.840915   18.176686 H          1 MOL1         0.0794
      20    O5      19.782158   13.353878   19.094509 O.3        1 MOL1        -0.5486
      21    H10     20.556220   13.339717   19.704426 H          1 MOL1         0.3769
      22    C7      14.904676   20.383799   20.194287 C.3        1 MOL1         0.2972
      23    H11     14.336462   21.213475   19.754300 H          1 MOL1         0.0751
      24    O6      16.123581   20.841948   20.812473 O.3        1 MOL1        -0.3740
      25    C8      14.060161   19.605880   21.239755 C.3        1 MOL1         0.1003
      26    H12     13.208358   19.166643   20.704356 H          1 MOL1         0.0783
      27    O7      13.559642   20.465365   22.274053 O.3        1 MOL1        -0.5519
      28    H13     14.344596   20.862536   22.729645 H          1 MOL1         0.3769
      29    C9      14.891911   18.446037   21.841174 C.3        1 MOL1         0.1053
      30    H14     15.728266   18.879569   22.407234 H          1 MOL1         0.0783
      31    O8      14.073395   17.659285   22.713682 O.3        1 MOL1        -0.5519
      32    H15     13.586545   18.310036   23.266525 H          1 MOL1         0.3769
      33    C10     15.472565   17.547185   20.720997 C.3        1 MOL1         0.1018
      34    H16     14.646455   16.967936   20.288184 H          1 MOL1         0.0783
      35    C11     16.166784   18.371137   19.597428 C.3        1 MOL1         0.1043
      36    H17     17.082611   18.811414   20.009052 H          1 MOL1         0.0783
      37    O9      15.279044   19.435816   19.169382 O.3        1 MOL1        -0.3740
      38    C12     16.593716   17.556532   18.349229 C.3        1 MOL1         0.0138
      39    H18     17.606324   17.169575   18.516378 H          1 MOL1         0.0794
      40    H19     16.654383   18.239590   17.491468 H          1 MOL1         0.0794
      41    O10     15.710528   16.470267   18.049341 O.3        1 MOL1        -0.5486
      42    H20     15.977351   15.721157   18.630650 H          1 MOL1         0.3769
      43    C13     18.377677   23.961603   22.132090 C.3        1 MOL1         0.2972
      44    H21     18.827686   24.901066   22.478559 H          1 MOL1         0.0751
      45    O11     19.376700   22.951889   21.879775 O.3        1 MOL1        -0.3740
      46    C14     17.397955   23.426808   23.200663 C.3        1 MOL1         0.1003
      47    H22     16.595724   24.166931   23.317635 H          1 MOL1         0.0783
      48    O12     18.071326   23.251359   24.457970 O.3        1 MOL1        -0.5519
      49    H23     19.042322   23.259655   24.270546 H          1 MOL1         0.3769
      50    C15     16.761898   22.099098   22.733985 C.3        1 MOL1         0.1053
      51    H24     17.553863   21.343910   22.714562 H          1 MOL1         0.0783
      52    O13     15.752234   21.702942   23.666151 O.3        1 MOL1        -0.5519
      53    H25     16.215860   21.658820   24.532370 H          1 MOL1         0.3769
      54    C16     16.168905   22.194908   21.303852 C.3        1 MOL1         0.1018
      55    H26     15.172703   22.653416   21.358922 H          1 MOL1         0.0783
      56    C17     17.076013   22.975976   20.307693 C.3        1 MOL1         0.1043
      57    H27     17.899457   22.308694   20.025253 H          1 MOL1         0.0783
      58    O14     17.634203   24.169962   20.914514 O.3        1 MOL1        -0.3740
      59    C18     16.353713   23.378472   19.000169 C.3        1 MOL1         0.0138
      60    H28     16.159839   22.469288   18.415081 H          1 MOL1         0.0794
      61    H29     17.028147   24.010489   18.406730 H          1 MOL1         0.0794
      62    O15     15.121922   24.064734   19.254096 O.3        1 MOL1        -0.5486
      63    H30     14.759365   24.356954   18.389252 H          1 MOL1         0.3769
      64    C19     23.543822   22.676146   21.522796 C.3        1 MOL1         0.2972
      65    H31     24.599476   22.937590   21.374946 H          1 MOL1         0.0751
      66    O16     23.371222   21.256101   21.682797 O.3        1 MOL1        -0.3740
      67    C20     23.014980   23.350939   22.814419 C.3        1 MOL1         0.1003
      68    H32     23.153189   24.434370   22.703868 H          1 MOL1         0.0783
      69    O17     23.757741   22.890204   23.954261 O.3        1 MOL1        -0.5519
      70    H33     24.054366   21.971779   23.743712 H          1 MOL1         0.3769
      71    C21     21.503909   23.077115   23.008673 C.3        1 MOL1         0.1053
      72    H34     21.368784   22.004757   23.204470 H          1 MOL1         0.0783
      73    O18     21.017727   23.837876   24.118906 O.3        1 MOL1        -0.5519
      74    H35     21.693251   23.718532   24.823847 H          1 MOL1         0.3769
      75    C22     20.720465   23.441002   21.725545 C.3        1 MOL1         0.1018
      76    H36     20.747944   24.530498   21.590166 H          1 MOL1         0.0783
      77    C23     21.335493   22.765335   20.472066 C.3        1 MOL1         0.1043
      78    H37     21.229721   21.678250   20.582036 H          1 MOL1         0.0783
      79    O19     22.743069   23.108876   20.399027 O.3        1 MOL1        -0.3740
      80    C24     20.654584   23.157067   19.134017 C.3        1 MOL1         0.0138
      81    H38     19.832995   22.455031   18.944582 H          1 MOL1         0.0794
      82    H39     21.378522   23.024247   18.319013 H          1 MOL1         0.0794
      83    O20     20.149043   24.498018   19.126547 O.3        1 MOL1        -0.5486
      84    H40     19.359210   24.516828   19.715607 H          1 MOL1         0.3769
      85    C25     24.976771   17.571545   20.640042 C.3        1 MOL1         0.2972
      86    H41     25.569376   16.736701   20.244080 H          1 MOL1         0.0751
      87    O21     23.715966   17.124306   21.176120 O.3        1 MOL1        -0.3740
      88    C26     25.746679   18.339260   21.746962 C.3        1 MOL1         0.1003
      89    H42     26.648803   18.759446   21.283542 H          1 MOL1         0.0783
      90    O22     26.137651   17.472446   22.822482 O.3        1 MOL1        -0.5519
      91    H43     25.313000   17.055470   23.179783 H          1 MOL1         0.3769
      92    C27     24.890994   19.516169   22.277355 C.3        1 MOL1         0.1053
      93    H44     24.011450   19.098225   22.786961 H          1 MOL1         0.0783
      94    O23     25.659065   20.294054   23.201761 O.3        1 MOL1        -0.5519
      95    H45     26.101328   19.638195   23.785279 H          1 MOL1         0.3769
      96    C28     24.396965   20.418073   21.117607 C.3        1 MOL1         0.1018
      97    H46     25.251859   21.000337   20.749676 H          1 MOL1         0.0783
      98    C29     23.782987   19.595894   19.946086 C.3        1 MOL1         0.1043
      99    H47     22.833595   19.167429   20.288480 H          1 MOL1         0.0783
     100    O24     24.688142   18.520520   19.589719 O.3        1 MOL1        -0.3740
     101    C30     23.462672   20.405371   18.663116 C.3        1 MOL1         0.0138
     102    H48     22.438909   20.790414   18.741223 H          1 MOL1         0.0794
     103    H49     23.476055   19.719096   17.805859 H          1 MOL1         0.0794
     104    O25     24.366804   21.491589   18.434510 O.3        1 MOL1        -0.5486
     105    H50     24.048180   22.243336   18.985457 H          1 MOL1         0.3769
     106    C31     21.360534   13.930842   22.146326 C.3        1 MOL1         0.2972
     107    H51     20.899306   12.968914   22.404903 H          1 MOL1         0.0751
     108    O26     20.370511   14.948592   21.893966 O.3        1 MOL1        -0.3740
     109    C32     22.264366   14.405540   23.306978 C.3        1 MOL1         0.1003
     110    H52     23.063374   13.663092   23.431666 H          1 MOL1         0.0783
     111    O27     21.512005   14.505404   24.527031 O.3        1 MOL1        -0.5519
     112    H53     20.557186   14.566752   24.274790 H          1 MOL1         0.3769
     113    C33     22.918154   15.761887   22.964410 C.3        1 MOL1         0.1053
     114    H54     22.122644   16.513651   22.935294 H          1 MOL1         0.0783
     115    O28     23.857743   16.104483   23.987078 O.3        1 MOL1        -0.5519
     116    H55     23.384027   15.926864   24.830639 H          1 MOL1         0.3769
     117    C34     23.611382   15.745337   21.577401 C.3        1 MOL1         0.1018
     118    H56     24.593778   15.264970   21.677403 H          1 MOL1         0.0783
     119    C35     22.768222   15.037097   20.476268 C.3        1 MOL1         0.1043
     120    H57     21.960337   15.722539   20.191312 H          1 MOL1         0.0783
     121    O29     22.181933   13.803869   20.968040 O.3        1 MOL1        -0.3740
     122    C36     23.569131   14.722521   19.190474 C.3        1 MOL1         0.0138
     123    H58     23.789710   15.668145   18.676941 H          1 MOL1         0.0794
     124    H59     22.935632   14.127071   18.519239 H          1 MOL1         0.0794
     125    O30     24.789442   14.026529   19.472145 O.3        1 MOL1        -0.5486
     126    H60     25.203420   13.790667   18.613240 H          1 MOL1         0.3769
     127    C1      20.689652   18.833157   22.210709 C.3        1 MOL1        -0.1693
     128    H1      21.325138   19.724987   22.185855 H          1 MOL1         0.0829
     129    H2      21.121424   18.071385   21.552330 H          1 MOL1         0.0829
     130    C2      19.167082   19.112588   22.014236 C.3        1 MOL1        -0.1768
     131    H3      18.912415   19.956622   21.364343 H          1 MOL1         0.0829
     132    H4      18.583978   18.239041   21.707320 H          1 MOL1         0.0829
     133    C3      19.141710   19.400483   23.544868 C.3        1 MOL1         0.1211
     134    H5      19.440958   20.423256   23.811083 H          1 MOL1         0.0786
     135    C4      20.296634   18.361288   23.648874 C.3        1 MOL1        -0.1768
     136    H6      19.973538   17.316748   23.717619 H          1 MOL1         0.0829
     137    H7      21.036310   18.550040   24.434452 H          1 MOL1         0.0829
     138    O1      17.945501   19.048237   24.197660 O.3        1 MOL1        -0.5515
     139    H8      17.698844   18.156947   23.884546 H          1 MOL1         0.3773
@<TRIPOS>BOND
    1     1     2    1
    2     1     3    1
    3     1     4    1
    4     4     5    1
    5     4     6    1
    6     6     7    1
    7     4     8    1
    8     8     9    1
    9     8    10    1
   10    10    11    1
   11     8    12    1
   12    12    13    1
   13    12    14    1
   14    14    15    1
   15     1    16    1
   16    14    16    1
   17    14    17    1
   18    17    18    1
   19    17    19    1
   20    17    20    1
   21    20    21    1
   22    22    23    1
   23    22    24    1
   24    22    25    1
   25    25    26    1
   26    25    27    1
   27    27    28    1
   28    25    29    1
   29    29    30    1
   30    29    31    1
   31    31    32    1
   32     3    33    1
   33    29    33    1
   34    33    34    1
   35    33    35    1
   36    35    36    1
   37    22    37    1
   38    35    37    1
   39    35    38    1
   40    38    39    1
   41    38    40    1
   42    38    41    1
   43    41    42    1
   44    43    44    1
   45    43    45    1
   46    43    46    1
   47    46    47    1
   48    46    48    1
   49    48    49    1
   50    46    50    1
   51    50    51    1
   52    50    52    1
   53    52    53    1
   54    24    54    1
   55    50    54    1
   56    54    55    1
   57    54    56    1
   58    56    57    1
   59    43    58    1
   60    56    58    1
   61    56    59    1
   62    59    60    1
   63    59    61    1
   64    59    62    1
   65    62    63    1
   66    64    65    1
   67    64    66    1
   68    64    67    1
   69    67    68    1
   70    67    69    1
   71    69    70    1
   72    67    71    1
   73    71    72    1
   74    71    73    1
   75    73    74    1
   76    45    75    1
   77    71    75    1
   78    75    76    1
   79    75    77    1
   80    77    78    1
   81    64    79    1
   82    77    79    1
   83    77    80    1
   84    80    81    1
   85    80    82    1
   86    80    83    1
   87    83    84    1
   88    85    86    1
   89    85    87    1
   90    85    88    1
   91    88    89    1
   92    88    90    1
   93    90    91    1
   94    88    92    1
   95    92    93    1
   96    92    94    1
   97    94    95    1
   98    66    96    1
   99    92    96    1
  100    96    97    1
  101    96    98    1
  102    98    99    1
  103    85   100    1
  104    98   100    1
  105    98   101    1
  106   101   102    1
  107   101   103    1
  108   101   104    1
  109   104   105    1
  110   106   107    1
  111    12   108    1
  112   106   108    1
  113   106   109    1
  114   109   110    1
  115   109   111    1
  116   111   112    1
  117   109   113    1
  118   113   114    1
  119   113   115    1
  120   115   116    1
  121    87   117    1
  122   113   117    1
  123   117   118    1
  124   117   119    1
  125   119   120    1
  126   106   121    1
  127   119   121    1
  128   119   122    1
  129   122   123    1
  130   122   124    1
  131   122   125    1
  132   125   126    1
  133   127   128    1
  134   127   129    1
  135   127   130    1
  136   130   131    1
  137   130   132    1
  138   130   133    1
  139   133   134    1
  140   127   135    1
  141   133   135    1
  142   135   136    1
  143   135   137    1
  144   133   138    1
  145   138   139    1
@<TRIPOS>SUBSTRUCTURE
       1 MOL1            1 RESIDUE      1      MOL     
       2 MOL1          139 RESIDUE      1      MOL     
@<SCITEGIC>MOL_PROPERTY
feprocess Rank
SciTegic.value.IntegerValue
112

@<SCITEGIC>MOL_PROPERTY
Conf_Id
SciTegic.value.IntegerValue
509

@<SCITEGIC>MOL_PROPERTY
Probability
SciTegic.value.DoubleValue
0.02

@<SCITEGIC>MOL_PROPERTY
G
SciTegic.value.DoubleValue
549.136

@<SCITEGIC>MOL_PROPERTY
E
SciTegic.value.DoubleValue
372.027

@<SCITEGIC>MOL_PROPERTY
-TS
SciTegic.value.DoubleValue
177.110

@<SCITEGIC>MOL_PROPERTY
U+W
SciTegic.value.DoubleValue
249.515

@<SCITEGIC>MOL_PROPERTY
U
SciTegic.value.DoubleValue
286.830

@<SCITEGIC>MOL_PROPERTY
W
SciTegic.value.DoubleValue
-37.315

@<SCITEGIC>MOL_PROPERTY
W(PB)
SciTegic.value.DoubleValue
-43.234

@<SCITEGIC>MOL_PROPERTY
W(SA)
SciTegic.value.DoubleValue
5.919

@<SCITEGIC>MOL_PROPERTY
Valence
SciTegic.value.DoubleValue
155.857

@<SCITEGIC>MOL_PROPERTY
Coulomb
SciTegic.value.DoubleValue
152.749

@<SCITEGIC>MOL_PROPERTY
VdW
SciTegic.value.DoubleValue
-21.776

@<SCITEGIC>MOL_PROPERTY
VdW6
SciTegic.value.DoubleValue
-168.521

@<SCITEGIC>MOL_PROPERTY
VdW12
SciTegic.value.DoubleValue
146.744

@<SCITEGIC>MOL_PROPERTY
Bond
SciTegic.value.DoubleValue
4.573

@<SCITEGIC>MOL_PROPERTY
Angle
SciTegic.value.DoubleValue
12.162

@<SCITEGIC>MOL_PROPERTY
Pdih
SciTegic.value.DoubleValue
139.123

@<SCITEGIC>MOL_PROPERTY
Idih
SciTegic.value.DoubleValue
0.000

@<SCITEGIC>MOL_PROPERTY
Tether
SciTegic.value.DoubleValue
0.000

@<TRIPOS>MOLECULE
CD_guest-s16_fast_vm2_rndm.mol2 : feprocess host+ligand conformer 113
         139         145           2
SMALL
USER_CHARGES
 
@<TRIPOS>ATOM
       1    C1      16.471395   15.518897   20.229159 C.3        1 MOL1         0.2972
       2    H1      15.538414   15.401437   19.662867 H          1 MOL1         0.0751
       3    O1      16.491258   16.750455   20.973480 O.3        1 MOL1        -0.3740
       4    C2      16.660130   14.354397   21.233311 C.3        1 MOL1         0.1003
       5    H2      16.665380   13.423691   20.651227 H          1 MOL1         0.0783
       6    O2      15.577533   14.311440   22.178069 O.3        1 MOL1        -0.5519
       7    H3      15.470832   15.225262   22.545781 H          1 MOL1         0.3769
       8    C3      18.018743   14.457153   21.975093 C.3        1 MOL1         0.1053
       9    H4      17.973180   15.319035   22.654421 H          1 MOL1         0.0783
      10    O3      18.207238   13.252399   22.724074 O.3        1 MOL1        -0.5519
      11    H5      17.368979   13.124691   23.220364 H          1 MOL1         0.3769
      12    C4      19.201649   14.681228   20.989197 C.3        1 MOL1         0.1018
      13    H6      19.410826   13.739717   20.465537 H          1 MOL1         0.0783
      14    C5      18.881802   15.789648   19.947516 C.3        1 MOL1         0.1043
      15    H7      18.836450   16.752220   20.473947 H          1 MOL1         0.0783
      16    O4      17.601025   15.518457   19.331941 O.3        1 MOL1        -0.3740
      17    C6      19.938264   15.941162   18.824353 C.3        1 MOL1         0.0138
      18    H8      20.745907   16.585104   19.194051 H          1 MOL1         0.0794
      19    H9      19.477583   16.469660   17.979149 H          1 MOL1         0.0794
      20    O5      20.473740   14.685555   18.385534 O.3        1 MOL1        -0.5486
      21    H10     20.909120   14.264077   19.158213 H          1 MOL1         0.3769
      22    C7      14.509266   20.281603   21.570565 C.3        1 MOL1         0.2972
      23    H11     13.814342   21.124141   21.678795 H          1 MOL1         0.0751
      24    O6      15.878232   20.690372   21.745948 O.3        1 MOL1        -0.3740
      25    C8      14.202658   19.204421   22.637394 C.3        1 MOL1         0.1003
      26    H12     13.182597   18.839349   22.460395 H          1 MOL1         0.0783
      27    O7      14.286808   19.772982   23.954250 O.3        1 MOL1        -0.5519
      28    H13     14.963291   20.493016   23.912146 H          1 MOL1         0.3769
      29    C9      15.173285   18.007501   22.502954 C.3        1 MOL1         0.1053
      30    H14     16.172483   18.348103   22.800421 H          1 MOL1         0.0783
      31    O8      14.756074   16.950063   23.373129 O.3        1 MOL1        -0.5519
      32    H15     14.589153   17.384073   24.239233 H          1 MOL1         0.3769
      33    C10     15.254784   17.483561   21.047227 C.3        1 MOL1         0.1018
      34    H16     14.382516   16.843026   20.860784 H          1 MOL1         0.0783
      35    C11     15.333088   18.614972   19.980171 C.3        1 MOL1         0.1043
      36    H17     16.349013   19.029092   20.012836 H          1 MOL1         0.0783
      37    O9      14.382931   19.673039   20.270098 O.3        1 MOL1        -0.3740
      38    C12     15.088130   18.125290   18.532585 C.3        1 MOL1         0.0138
      39    H18     15.955698   17.533149   18.211701 H          1 MOL1         0.0794
      40    H19     15.029777   19.000537   17.871702 H          1 MOL1         0.0794
      41    O10     13.895180   17.339211   18.422902 O.3        1 MOL1        -0.5486
      42    H20     13.760594   17.132361   17.472266 H          1 MOL1         0.3769
      43    C13     18.402270   23.992158   21.592169 C.3        1 MOL1         0.2972
      44    H21     18.807166   25.007496   21.494176 H          1 MOL1         0.0751
      45    O11     19.450232   23.019434   21.783763 O.3        1 MOL1        -0.3740
      46    C14     17.454472   23.930089   22.815965 C.3        1 MOL1         0.1003
      47    H22     16.657854   24.668050   22.655200 H          1 MOL1         0.0783
      48    O12     18.168312   24.256271   24.019356 O.3        1 MOL1        -0.5519
      49    H23     19.118132   24.026868   23.862385 H          1 MOL1         0.3769
      50    C15     16.796007   22.536658   22.939228 C.3        1 MOL1         0.1053
      51    H24     17.579988   21.816254   23.199491 H          1 MOL1         0.0783
      52    O13     15.803747   22.558216   23.970794 O.3        1 MOL1        -0.5519
      53    H25     16.235263   23.012660   24.728320 H          1 MOL1         0.3769
      54    C16     16.158428   22.093156   21.600709 C.3        1 MOL1         0.1018
      55    H26     15.250017   22.685862   21.430796 H          1 MOL1         0.0783
      56    C17     17.133558   22.272388   20.403068 C.3        1 MOL1         0.1043
      57    H27     17.961128   21.564876   20.533672 H          1 MOL1         0.0783
      58    O14     17.657426   23.624674   20.410108 O.3        1 MOL1        -0.3740
      59    C18     16.520267   21.988701   19.006999 C.3        1 MOL1         0.0138
      60    H28     16.655488   20.924932   18.776018 H          1 MOL1         0.0794
      61    H29     17.089594   22.550162   18.254122 H          1 MOL1         0.0794
      62    O15     15.130722   22.321923   18.919114 O.3        1 MOL1        -0.5486
      63    H30     14.632717   21.566254   19.308044 H          1 MOL1         0.3769
      64    C19     23.589690   22.649994   21.144590 C.3        1 MOL1         0.2972
      65    H31     24.623114   22.888421   20.862948 H          1 MOL1         0.0751
      66    O16     23.465414   21.282765   21.582220 O.3        1 MOL1        -0.3740
      67    C20     23.150883   23.555961   22.323686 C.3        1 MOL1         0.1003
      68    H32     23.273385   24.599298   22.005059 H          1 MOL1         0.0783
      69    O17     23.977515   23.307445   23.472262 O.3        1 MOL1        -0.5519
      70    H33     24.195005   22.343352   23.461239 H          1 MOL1         0.3769
      71    C21     21.660181   23.333716   22.675257 C.3        1 MOL1         0.1053
      72    H34     21.556115   22.319689   23.081291 H          1 MOL1         0.0783
      73    O18     21.244939   24.295132   23.651282 O.3        1 MOL1        -0.5519
      74    H35     21.956256   24.294311   24.329842 H          1 MOL1         0.3769
      75    C22     20.775701   23.445338   21.411479 C.3        1 MOL1         0.1018
      76    H36     20.791981   24.488063   21.067793 H          1 MOL1         0.0783
      77    C23     21.305129   22.528809   20.275459 C.3        1 MOL1         0.1043
      78    H37     21.232858   21.485674   20.609493 H          1 MOL1         0.0783
      79    O19     22.695377   22.859209   20.028821 O.3        1 MOL1        -0.3740
      80    C24     20.528814   22.634697   18.937508 C.3        1 MOL1         0.0138
      81    H38     19.670810   21.952198   18.977712 H          1 MOL1         0.0794
      82    H39     21.178621   22.281546   18.126144 H          1 MOL1         0.0794
      83    O20     20.071345   23.961289   18.653719 O.3        1 MOL1        -0.5486
      84    H40     19.238200   24.089737   19.163567 H          1 MOL1         0.3769
      85    C25     25.127579   17.509268   20.969156 C.3        1 MOL1         0.2972
      86    H41     25.756392   16.651974   20.696334 H          1 MOL1         0.0751
      87    O21     23.810367   17.095380   21.374614 O.3        1 MOL1        -0.3740
      88    C26     25.769004   18.346211   22.108528 C.3        1 MOL1         0.1003
      89    H42     26.727588   18.725546   21.731221 H          1 MOL1         0.0783
      90    O22     26.011673   17.552391   23.280332 O.3        1 MOL1        -0.5519
      91    H43     25.139494   17.187294   23.575856 H          1 MOL1         0.3769
      92    C27     24.877671   19.564959   22.454460 C.3        1 MOL1         0.1053
      93    H44     23.944406   19.188399   22.893903 H          1 MOL1         0.0783
      94    O23     25.552434   20.402862   23.399427 O.3        1 MOL1        -0.5519
      95    H45     25.911508   19.789754   24.078497 H          1 MOL1         0.3769
      96    C28     24.524192   20.386500   21.188180 C.3        1 MOL1         0.1018
      97    H46     25.426469   20.928583   20.876230 H          1 MOL1         0.0783
      98    C29     24.026034   19.483522   20.021516 C.3        1 MOL1         0.1043
      99    H47     23.041986   19.082234   20.296893 H          1 MOL1         0.0783
     100    O24     24.960092   18.388581   19.836068 O.3        1 MOL1        -0.3740
     101    C30     23.847380   20.194857   18.656590 C.3        1 MOL1         0.0138
     102    H48     22.846808   20.642831   18.625113 H          1 MOL1         0.0794
     103    H49     23.878163   19.436326   17.863051 H          1 MOL1         0.0794
     104    O25     24.834359   21.201919   18.409359 O.3        1 MOL1        -0.5486
     105    H50     24.449741   22.052443   18.717436 H          1 MOL1         0.3769
     106    C31     21.219613   14.121953   22.275359 C.3        1 MOL1         0.2972
     107    H51     20.659130   13.221729   22.554392 H          1 MOL1         0.0751
     108    O26     20.353352   15.138724   21.729120 O.3        1 MOL1        -0.3740
     109    C32     21.935310   14.700716   23.519835 C.3        1 MOL1         0.1003
     110    H52     22.629516   13.935091   23.889571 H          1 MOL1         0.0783
     111    O27     20.986507   15.026287   24.546690 O.3        1 MOL1        -0.5519
     112    H53     20.349066   15.669020   24.143429 H          1 MOL1         0.3769
     113    C33     22.748705   15.960087   23.153923 C.3        1 MOL1         0.1053
     114    H54     22.030425   16.749592   22.917036 H          1 MOL1         0.0783
     115    O28     23.537258   16.366532   24.276690 O.3        1 MOL1        -0.5519
     116    H55     22.925027   16.322847   25.044891 H          1 MOL1         0.3769
     117    C34     23.648745   15.768423   21.909088 C.3        1 MOL1         0.1018
     118    H56     24.602137   15.320558   22.219193 H          1 MOL1         0.0783
     119    C35     22.987379   14.930688   20.776177 C.3        1 MOL1         0.1043
     120    H57     22.296624   15.595747   20.249866 H          1 MOL1         0.0783
     121    O29     22.233725   13.806639   21.297454 O.3        1 MOL1        -0.3740
     122    C36     23.994189   14.408057   19.724167 C.3        1 MOL1         0.0138
     123    H58     24.364171   15.262135   19.140968 H          1 MOL1         0.0794
     124    H59     23.462950   13.744993   19.028150 H          1 MOL1         0.0794
     125    O30     25.094788   13.717615   20.327760 O.3        1 MOL1        -0.5486
     126    H60     25.648242   13.348399   19.605003 H          1 MOL1         0.3769
     127    C1      19.647803   20.146730   23.939731 C.3        1 MOL1        -0.1693
     128    H1      19.790990   21.230326   24.011207 H          1 MOL1         0.0829
     129    H2      19.066346   19.820281   24.810994 H          1 MOL1         0.0829
     130    C2      20.928540   19.297465   23.643715 C.3        1 MOL1        -0.1768
     131    H3      21.675266   19.805418   23.023633 H          1 MOL1         0.0829
     132    H4      21.433413   18.861859   24.512986 H          1 MOL1         0.0829
     133    C3      19.986708   18.339854   22.850398 C.3        1 MOL1         0.1211
     134    H5      20.432255   17.880931   21.959588 H          1 MOL1         0.0786
     135    C4      19.132848   19.608677   22.563300 C.3        1 MOL1        -0.1768
     136    H6      19.469555   20.185764   21.695512 H          1 MOL1         0.0829
     137    H7      18.056493   19.445971   22.477309 H          1 MOL1         0.0829
     138    O1      19.352374   17.355950   23.639396 O.3        1 MOL1        -0.5515
     139    H8      18.883374   17.839541   24.347057 H          1 MOL1         0.3773
@<TRIPOS>BOND
    1     1     2    1
    2     1     3    1
    3     1     4    1
    4     4     5    1
    5     4     6    1
    6     6     7    1
    7     4     8    1
    8     8     9    1
    9     8    10    1
   10    10    11    1
   11     8    12    1
   12    12    13    1
   13    12    14    1
   14    14    15    1
   15     1    16    1
   16    14    16    1
   17    14    17    1
   18    17    18    1
   19    17    19    1
   20    17    20    1
   21    20    21    1
   22    22    23    1
   23    22    24    1
   24    22    25    1
   25    25    26    1
   26    25    27    1
   27    27    28    1
   28    25    29    1
   29    29    30    1
   30    29    31    1
   31    31    32    1
   32     3    33    1
   33    29    33    1
   34    33    34    1
   35    33    35    1
   36    35    36    1
   37    22    37    1
   38    35    37    1
   39    35    38    1
   40    38    39    1
   41    38    40    1
   42    38    41    1
   43    41    42    1
   44    43    44    1
   45    43    45    1
   46    43    46    1
   47    46    47    1
   48    46    48    1
   49    48    49    1
   50    46    50    1
   51    50    51    1
   52    50    52    1
   53    52    53    1
   54    24    54    1
   55    50    54    1
   56    54    55    1
   57    54    56    1
   58    56    57    1
   59    43    58    1
   60    56    58    1
   61    56    59    1
   62    59    60    1
   63    59    61    1
   64    59    62    1
   65    62    63    1
   66    64    65    1
   67    64    66    1
   68    64    67    1
   69    67    68    1
   70    67    69    1
   71    69    70    1
   72    67    71    1
   73    71    72    1
   74    71    73    1
   75    73    74    1
   76    45    75    1
   77    71    75    1
   78    75    76    1
   79    75    77    1
   80    77    78    1
   81    64    79    1
   82    77    79    1
   83    77    80    1
   84    80    81    1
   85    80    82    1
   86    80    83    1
   87    83    84    1
   88    85    86    1
   89    85    87    1
   90    85    88    1
   91    88    89    1
   92    88    90    1
   93    90    91    1
   94    88    92    1
   95    92    93    1
   96    92    94    1
   97    94    95    1
   98    66    96    1
   99    92    96    1
  100    96    97    1
  101    96    98    1
  102    98    99    1
  103    85   100    1
  104    98   100    1
  105    98   101    1
  106   101   102    1
  107   101   103    1
  108   101   104    1
  109   104   105    1
  110   106   107    1
  111    12   108    1
  112   106   108    1
  113   106   109    1
  114   109   110    1
  115   109   111    1
  116   111   112    1
  117   109   113    1
  118   113   114    1
  119   113   115    1
  120   115   116    1
  121    87   117    1
  122   113   117    1
  123   117   118    1
  124   117   119    1
  125   119   120    1
  126   106   121    1
  127   119   121    1
  128   119   122    1
  129   122   123    1
  130   122   124    1
  131   122   125    1
  132   125   126    1
  133   127   128    1
  134   127   129    1
  135   127   130    1
  136   130   131    1
  137   130   132    1
  138   130   133    1
  139   133   134    1
  140   127   135    1
  141   133   135    1
  142   135   136    1
  143   135   137    1
  144   133   138    1
  145   138   139    1
@<TRIPOS>SUBSTRUCTURE
       1 MOL1            1 RESIDUE      1      MOL     
       2 MOL1          139 RESIDUE      1      MOL     
@<SCITEGIC>MOL_PROPERTY
feprocess Rank
SciTegic.value.IntegerValue
113

@<SCITEGIC>MOL_PROPERTY
Conf_Id
SciTegic.value.IntegerValue
20

@<SCITEGIC>MOL_PROPERTY
Probability
SciTegic.value.DoubleValue
0.02

@<SCITEGIC>MOL_PROPERTY
G
SciTegic.value.DoubleValue
549.157

@<SCITEGIC>MOL_PROPERTY
E
SciTegic.value.DoubleValue
371.932

@<SCITEGIC>MOL_PROPERTY
-TS
SciTegic.value.DoubleValue
177.225

@<SCITEGIC>MOL_PROPERTY
U+W
SciTegic.value.DoubleValue
249.421

@<SCITEGIC>MOL_PROPERTY
U
SciTegic.value.DoubleValue
288.414

@<SCITEGIC>MOL_PROPERTY
W
SciTegic.value.DoubleValue
-38.993

@<SCITEGIC>MOL_PROPERTY
W(PB)
SciTegic.value.DoubleValue
-44.934

@<SCITEGIC>MOL_PROPERTY
W(SA)
SciTegic.value.DoubleValue
5.941

@<SCITEGIC>MOL_PROPERTY
Valence
SciTegic.value.DoubleValue
153.844

@<SCITEGIC>MOL_PROPERTY
Coulomb
SciTegic.value.DoubleValue
155.814

@<SCITEGIC>MOL_PROPERTY
VdW
SciTegic.value.DoubleValue
-21.244

@<SCITEGIC>MOL_PROPERTY
VdW6
SciTegic.value.DoubleValue
-167.472

@<SCITEGIC>MOL_PROPERTY
VdW12
SciTegic.value.DoubleValue
146.228

@<SCITEGIC>MOL_PROPERTY
Bond
SciTegic.value.DoubleValue
4.553

@<SCITEGIC>MOL_PROPERTY
Angle
SciTegic.value.DoubleValue
12.616

@<SCITEGIC>MOL_PROPERTY
Pdih
SciTegic.value.DoubleValue
136.675

@<SCITEGIC>MOL_PROPERTY
Idih
SciTegic.value.DoubleValue
0.000

@<SCITEGIC>MOL_PROPERTY
Tether
SciTegic.value.DoubleValue
0.000

@<TRIPOS>MOLECULE
CD_guest-s16_fast_vm2_rndm.mol2 : feprocess host+ligand conformer 114
         139         145           2
SMALL
USER_CHARGES
 
@<TRIPOS>ATOM
       1    C1      16.216324   15.325305   20.383788 C.3        1 MOL1         0.2972
       2    H1      15.208376   15.241677   19.957180 H          1 MOL1         0.0751
       3    O1      16.440385   16.622685   20.970380 O.3        1 MOL1        -0.3740
       4    C2      16.463766   14.240049   21.464596 C.3        1 MOL1         0.1003
       5    H2      16.382940   13.264292   20.968101 H          1 MOL1         0.0783
       6    O2      15.489969   14.305915   22.517393 O.3        1 MOL1        -0.5519
       7    H3      15.522640   15.222066   22.893435 H          1 MOL1         0.3769
       8    C3      17.898087   14.364492   22.036148 C.3        1 MOL1         0.1053
       9    H4      17.972850   15.316745   22.580327 H          1 MOL1         0.0783
      10    O3      18.154551   13.275103   22.929290 O.3        1 MOL1        -0.5519
      11    H5      17.355261   13.215178   23.498204 H          1 MOL1         0.3769
      12    C4      18.951860   14.367440   20.899658 C.3        1 MOL1         0.1018
      13    H6      19.015842   13.348510   20.496051 H          1 MOL1         0.0783
      14    C5      18.585425   15.354853   19.752166 C.3        1 MOL1         0.1043
      15    H7      18.687872   16.378215   20.129489 H          1 MOL1         0.0783
      16    O4      17.209545   15.133460   19.352005 O.3        1 MOL1        -0.3740
      17    C6      19.478799   15.263447   18.488537 C.3        1 MOL1         0.0138
      18    H8      20.337243   15.932994   18.620911 H          1 MOL1         0.0794
      19    H9      18.909499   15.646481   17.631103 H          1 MOL1         0.0794
      20    O5      19.943588   13.937321   18.214787 O.3        1 MOL1        -0.5486
      21    H10     20.749259   13.803421   18.765019 H          1 MOL1         0.3769
      22    C7      14.768232   20.233074   21.952502 C.3        1 MOL1         0.2972
      23    H11     14.133814   21.093909   22.200547 H          1 MOL1         0.0751
      24    O6      16.147393   20.618039   21.788852 O.3        1 MOL1        -0.3740
      25    C8      14.686473   19.182230   23.083444 C.3        1 MOL1         0.1003
      26    H12     13.642216   18.850783   23.152865 H          1 MOL1         0.0783
      27    O7      15.087396   19.760127   24.336811 O.3        1 MOL1        -0.5519
      28    H13     15.559246   20.604087   24.128726 H          1 MOL1         0.3769
      29    C9      15.559692   17.951074   22.752545 C.3        1 MOL1         0.1053
      30    H14     16.607190   18.266462   22.792461 H          1 MOL1         0.0783
      31    O8      15.332489   16.935529   23.733724 O.3        1 MOL1        -0.5519
      32    H15     15.418917   17.398103   24.597333 H          1 MOL1         0.3769
      33    C10     15.279962   17.396785   21.331507 C.3        1 MOL1         0.1018
      34    H16     14.367114   16.787210   21.363658 H          1 MOL1         0.0783
      35    C11     15.149576   18.511771   20.253542 C.3        1 MOL1         0.1043
      36    H17     16.159659   18.886508   20.047067 H          1 MOL1         0.0783
      37    O9      14.329465   19.610840   20.727963 O.3        1 MOL1        -0.3740
      38    C12     14.568670   18.009358   18.910364 C.3        1 MOL1         0.0138
      39    H18     15.317160   17.368786   18.424520 H          1 MOL1         0.0794
      40    H19     14.404159   18.874177   18.253506 H          1 MOL1         0.0794
      41    O10     13.348401   17.280179   19.089881 O.3        1 MOL1        -0.5486
      42    H20     12.997401   17.062170   18.198846 H          1 MOL1         0.3769
      43    C13     18.467386   24.060683   21.304383 C.3        1 MOL1         0.2972
      44    H21     18.794765   25.089747   21.108164 H          1 MOL1         0.0751
      45    O11     19.586629   23.191603   21.560902 O.3        1 MOL1        -0.3740
      46    C14     17.564498   24.028182   22.564106 C.3        1 MOL1         0.1003
      47    H22     16.705665   24.685752   22.376654 H          1 MOL1         0.0783
      48    O12     18.292017   24.506292   23.706517 O.3        1 MOL1        -0.5519
      49    H23     19.240189   24.277829   23.551047 H          1 MOL1         0.3769
      50    C15     17.029573   22.599395   22.825801 C.3        1 MOL1         0.1053
      51    H24     17.879916   21.960874   23.097123 H          1 MOL1         0.0783
      52    O13     16.083312   22.624016   23.899204 O.3        1 MOL1        -0.5519
      53    H25     16.495687   23.190745   24.589188 H          1 MOL1         0.3769
      54    C16     16.374505   22.018437   21.550799 C.3        1 MOL1         0.1018
      55    H26     15.440698   22.561686   21.353814 H          1 MOL1         0.0783
      56    C17     17.304893   22.148748   20.315900 C.3        1 MOL1         0.1043
      57    H27     18.186243   21.517960   20.486820 H          1 MOL1         0.0783
      58    O14     17.724471   23.530992   20.182782 O.3        1 MOL1        -0.3740
      59    C18     16.668109   21.687924   18.978047 C.3        1 MOL1         0.0138
      60    H28     16.872335   20.618125   18.846235 H          1 MOL1         0.0794
      61    H29     17.169894   22.209644   18.152177 H          1 MOL1         0.0794
      62    O15     15.255070   21.915729   18.913998 O.3        1 MOL1        -0.5486
      63    H30     14.825058   21.248527   19.498316 H          1 MOL1         0.3769
      64    C19     23.613530   22.604157   20.675947 C.3        1 MOL1         0.2972
      65    H31     24.641450   22.682414   20.298913 H          1 MOL1         0.0751
      66    O16     23.365262   21.323010   21.285616 O.3        1 MOL1        -0.3740
      67    C20     23.315079   23.709492   21.722657 C.3        1 MOL1         0.1003
      68    H32     23.452588   24.677837   21.224230 H          1 MOL1         0.0783
      69    O17     24.211667   23.624671   22.841914 O.3        1 MOL1        -0.5519
      70    H33     24.164045   22.697959   23.189808 H          1 MOL1         0.3769
      71    C21     21.845136   23.622822   22.202602 C.3        1 MOL1         0.1053
      72    H34     21.731500   22.689856   22.770638 H          1 MOL1         0.0783
      73    O18     21.546580   24.739156   23.047613 O.3        1 MOL1        -0.5519
      74    H35     22.311209   24.809433   23.661313 H          1 MOL1         0.3769
      75    C22     20.856532   23.588063   21.008724 C.3        1 MOL1         0.1018
      76    H36     20.819037   24.590093   20.561662 H          1 MOL1         0.0783
      77    C23     21.280738   22.548968   19.930376 C.3        1 MOL1         0.1043
      78    H37     21.159395   21.544735   20.355763 H          1 MOL1         0.0783
      79    O19     22.673302   22.762210   19.592023 O.3        1 MOL1        -0.3740
      80    C24     20.461066   22.579692   18.614675 C.3        1 MOL1         0.0138
      81    H38     19.608989   21.897865   18.717707 H          1 MOL1         0.0794
      82    H39     21.086578   22.178907   17.805867 H          1 MOL1         0.0794
      83    O20     19.992174   23.886914   18.266862 O.3        1 MOL1        -0.5486
      84    H40     19.175159   24.043132   18.794721 H          1 MOL1         0.3769
      85    C25     25.042294   17.687812   22.181811 C.3        1 MOL1         0.2972
      86    H41     25.673301   16.821013   22.417134 H          1 MOL1         0.0751
      87    O21     23.667733   17.309074   21.977553 O.3        1 MOL1        -0.3740
      88    C26     25.093753   18.708400   23.343169 C.3        1 MOL1         0.1003
      89    H42     26.130984   19.055729   23.436219 H          1 MOL1         0.0783
      90    O22     24.685453   18.091286   24.574516 O.3        1 MOL1        -0.5519
      91    H43     24.125933   17.311862   24.333905 H          1 MOL1         0.3769
      92    C27     24.203187   19.931991   23.030076 C.3        1 MOL1         0.1053
      93    H44     23.160599   19.593550   23.029127 H          1 MOL1         0.0783
      94    O23     24.382039   20.926800   24.043497 O.3        1 MOL1        -0.5519
      95    H45     24.332043   20.432418   24.892068 H          1 MOL1         0.3769
      96    C28     24.517018   20.533690   21.637483 C.3        1 MOL1         0.1018
      97    H46     25.427643   21.142356   21.716836 H          1 MOL1         0.0783
      98    C29     24.681081   19.455841   20.526059 C.3        1 MOL1         0.1043
      99    H47     23.679194   19.080049   20.284771 H          1 MOL1         0.0783
     100    O24     25.501398   18.349490   20.985451 O.3        1 MOL1        -0.3740
     101    C30     25.289540   20.002368   19.212519 C.3        1 MOL1         0.0138
     102    H48     24.544597   20.643826   18.722563 H          1 MOL1         0.0794
     103    H49     25.484933   19.157511   18.538367 H          1 MOL1         0.0794
     104    O25     26.493353   20.744260   19.443657 O.3        1 MOL1        -0.5486
     105    H50     26.866647   20.987240   18.568295 H          1 MOL1         0.3769
     106    C31     21.319726   13.915254   21.310823 C.3        1 MOL1         0.2972
     107    H51     20.999900   12.890870   21.080953 H          1 MOL1         0.0751
     108    O26     20.189971   14.788554   21.505127 O.3        1 MOL1        -0.3740
     109    C32     22.146540   13.917690   22.621929 C.3        1 MOL1         0.1003
     110    H52     23.003664   13.247695   22.475191 H          1 MOL1         0.0783
     111    O27     21.346676   13.434975   23.712795 O.3        1 MOL1        -0.5519
     112    H53     20.417944   13.715319   23.525579 H          1 MOL1         0.3769
     113    C33     22.691922   15.331513   22.934879 C.3        1 MOL1         0.1053
     114    H54     21.838630   15.980282   23.174453 H          1 MOL1         0.0783
     115    O28     23.581406   15.268625   24.054525 O.3        1 MOL1        -0.5519
     116    H55     23.111880   14.720120   24.722045 H          1 MOL1         0.3769
     117    C34     23.426799   15.917946   21.705306 C.3        1 MOL1         0.1018
     118    H56     24.359659   15.359807   21.550299 H          1 MOL1         0.0783
     119    C35     22.559351   15.825038   20.421039 C.3        1 MOL1         0.1043
     120    H57     21.677989   16.465676   20.556516 H          1 MOL1         0.0783
     121    O29     22.131726   14.450847   20.241746 O.3        1 MOL1        -0.3740
     122    C36     23.269823   16.297713   19.125132 C.3        1 MOL1         0.0138
     123    H58     23.083958   17.371394   18.998479 H          1 MOL1         0.0794
     124    H59     22.806128   15.793464   18.266859 H          1 MOL1         0.0794
     125    O30     24.681634   16.054602   19.130579 O.3        1 MOL1        -0.5486
     126    H60     25.088117   16.718092   19.735641 H          1 MOL1         0.3769
     127    C1      20.673068   18.945507   22.158603 C.3        1 MOL1        -0.1693
     128    H1      21.164324   19.304708   21.247811 H          1 MOL1         0.0829
     129    H2      21.240458   18.096762   22.554011 H          1 MOL1         0.0829
     130    C2      19.134571   18.695290   22.068184 C.3        1 MOL1        -0.1768
     131    H3      18.602291   19.345702   21.366204 H          1 MOL1         0.0829
     132    H4      18.829536   17.660092   21.895227 H          1 MOL1         0.0829
     133    C3      19.066014   19.156469   23.556077 C.3        1 MOL1         0.1211
     134    H5      18.164346   19.723825   23.819032 H          1 MOL1         0.0786
     135    C4      20.316525   20.027874   23.228784 C.3        1 MOL1        -0.1768
     136    H6      21.037506   20.157420   24.043057 H          1 MOL1         0.0829
     137    H7      20.077745   21.010657   22.814460 H          1 MOL1         0.0829
     138    O1      19.280411   18.127432   24.499982 O.3        1 MOL1        -0.5515
     139    H8      19.416494   18.553579   25.369644 H          1 MOL1         0.3773
@<TRIPOS>BOND
    1     1     2    1
    2     1     3    1
    3     1     4    1
    4     4     5    1
    5     4     6    1
    6     6     7    1
    7     4     8    1
    8     8     9    1
    9     8    10    1
   10    10    11    1
   11     8    12    1
   12    12    13    1
   13    12    14    1
   14    14    15    1
   15     1    16    1
   16    14    16    1
   17    14    17    1
   18    17    18    1
   19    17    19    1
   20    17    20    1
   21    20    21    1
   22    22    23    1
   23    22    24    1
   24    22    25    1
   25    25    26    1
   26    25    27    1
   27    27    28    1
   28    25    29    1
   29    29    30    1
   30    29    31    1
   31    31    32    1
   32     3    33    1
   33    29    33    1
   34    33    34    1
   35    33    35    1
   36    35    36    1
   37    22    37    1
   38    35    37    1
   39    35    38    1
   40    38    39    1
   41    38    40    1
   42    38    41    1
   43    41    42    1
   44    43    44    1
   45    43    45    1
   46    43    46    1
   47    46    47    1
   48    46    48    1
   49    48    49    1
   50    46    50    1
   51    50    51    1
   52    50    52    1
   53    52    53    1
   54    24    54    1
   55    50    54    1
   56    54    55    1
   57    54    56    1
   58    56    57    1
   59    43    58    1
   60    56    58    1
   61    56    59    1
   62    59    60    1
   63    59    61    1
   64    59    62    1
   65    62    63    1
   66    64    65    1
   67    64    66    1
   68    64    67    1
   69    67    68    1
   70    67    69    1
   71    69    70    1
   72    67    71    1
   73    71    72    1
   74    71    73    1
   75    73    74    1
   76    45    75    1
   77    71    75    1
   78    75    76    1
   79    75    77    1
   80    77    78    1
   81    64    79    1
   82    77    79    1
   83    77    80    1
   84    80    81    1
   85    80    82    1
   86    80    83    1
   87    83    84    1
   88    85    86    1
   89    85    87    1
   90    85    88    1
   91    88    89    1
   92    88    90    1
   93    90    91    1
   94    88    92    1
   95    92    93    1
   96    92    94    1
   97    94    95    1
   98    66    96    1
   99    92    96    1
  100    96    97    1
  101    96    98    1
  102    98    99    1
  103    85   100    1
  104    98   100    1
  105    98   101    1
  106   101   102    1
  107   101   103    1
  108   101   104    1
  109   104   105    1
  110   106   107    1
  111    12   108    1
  112   106   108    1
  113   106   109    1
  114   109   110    1
  115   109   111    1
  116   111   112    1
  117   109   113    1
  118   113   114    1
  119   113   115    1
  120   115   116    1
  121    87   117    1
  122   113   117    1
  123   117   118    1
  124   117   119    1
  125   119   120    1
  126   106   121    1
  127   119   121    1
  128   119   122    1
  129   122   123    1
  130   122   124    1
  131   122   125    1
  132   125   126    1
  133   127   128    1
  134   127   129    1
  135   127   130    1
  136   130   131    1
  137   130   132    1
  138   130   133    1
  139   133   134    1
  140   127   135    1
  141   133   135    1
  142   135   136    1
  143   135   137    1
  144   133   138    1
  145   138   139    1
@<TRIPOS>SUBSTRUCTURE
       1 MOL1            1 RESIDUE      1      MOL     
       2 MOL1          139 RESIDUE      1      MOL     
@<SCITEGIC>MOL_PROPERTY
feprocess Rank
SciTegic.value.IntegerValue
114

@<SCITEGIC>MOL_PROPERTY
Conf_Id
SciTegic.value.IntegerValue
3

@<SCITEGIC>MOL_PROPERTY
Probability
SciTegic.value.DoubleValue
0.02

@<SCITEGIC>MOL_PROPERTY
G
SciTegic.value.DoubleValue
549.160

@<SCITEGIC>MOL_PROPERTY
E
SciTegic.value.DoubleValue
372.176

@<SCITEGIC>MOL_PROPERTY
-TS
SciTegic.value.DoubleValue
176.984

@<SCITEGIC>MOL_PROPERTY
U+W
SciTegic.value.DoubleValue
249.664

@<SCITEGIC>MOL_PROPERTY
U
SciTegic.value.DoubleValue
287.951

@<SCITEGIC>MOL_PROPERTY
W
SciTegic.value.DoubleValue
-38.286

@<SCITEGIC>MOL_PROPERTY
W(PB)
SciTegic.value.DoubleValue
-44.284

@<SCITEGIC>MOL_PROPERTY
W(SA)
SciTegic.value.DoubleValue
5.998

@<SCITEGIC>MOL_PROPERTY
Valence
SciTegic.value.DoubleValue
155.204

@<SCITEGIC>MOL_PROPERTY
Coulomb
SciTegic.value.DoubleValue
154.083

@<SCITEGIC>MOL_PROPERTY
VdW
SciTegic.value.DoubleValue
-21.337

@<SCITEGIC>MOL_PROPERTY
VdW6
SciTegic.value.DoubleValue
-167.683

@<SCITEGIC>MOL_PROPERTY
VdW12
SciTegic.value.DoubleValue
146.346

@<SCITEGIC>MOL_PROPERTY
Bond
SciTegic.value.DoubleValue
4.538

@<SCITEGIC>MOL_PROPERTY
Angle
SciTegic.value.DoubleValue
11.413

@<SCITEGIC>MOL_PROPERTY
Pdih
SciTegic.value.DoubleValue
139.253

@<SCITEGIC>MOL_PROPERTY
Idih
SciTegic.value.DoubleValue
0.000

@<SCITEGIC>MOL_PROPERTY
Tether
SciTegic.value.DoubleValue
0.000

@<TRIPOS>MOLECULE
CD_guest-s16_fast_vm2_rndm.mol2 : feprocess host+ligand conformer 115
         139         145           2
SMALL
USER_CHARGES
 
@<TRIPOS>ATOM
       1    C1      16.216876   15.280640   21.722245 C.3        1 MOL1         0.2972
       2    H1      15.127234   15.234021   21.844515 H          1 MOL1         0.0751
       3    O1      16.647378   16.582880   21.282922 O.3        1 MOL1        -0.3740
       4    C2      16.918470   14.964193   23.065651 C.3        1 MOL1         0.1003
       5    H2      16.605885   13.957478   23.372000 H          1 MOL1         0.0783
       6    O2      16.539900   15.920164   24.073809 O.3        1 MOL1        -0.5519
       7    H3      15.679021   16.312264   23.787208 H          1 MOL1         0.3769
       8    C3      18.454520   14.973907   22.897026 C.3        1 MOL1         0.1053
       9    H4      18.747408   16.013617   22.739176 H          1 MOL1         0.0783
      10    O3      19.079558   14.482436   24.086951 O.3        1 MOL1        -0.5519
      11    H5      18.619757   14.945023   24.822533 H          1 MOL1         0.3769
      12    C4      18.953614   14.177227   21.667677 C.3        1 MOL1         0.1018
      13    H6      19.029311   13.116417   21.941141 H          1 MOL1         0.0783
      14    C5      18.063214   14.357436   20.403385 C.3        1 MOL1         0.1043
      15    H7      18.290692   15.340709   19.973118 H          1 MOL1         0.0783
      16    O4      16.655860   14.312361   20.747766 O.3        1 MOL1        -0.3740
      17    C6      18.332237   13.309850   19.296604 C.3        1 MOL1         0.0138
      18    H8      19.308858   13.524754   18.842272 H          1 MOL1         0.0794
      19    H9      17.575145   13.429320   18.509941 H          1 MOL1         0.0794
      20    O5      18.316146   11.969931   19.804001 O.3        1 MOL1        -0.5486
      21    H10     18.408863   11.360287   19.039364 H          1 MOL1         0.3769
      22    C7      14.945111   20.290762   20.392791 C.3        1 MOL1         0.2972
      23    H11     14.322399   21.097770   19.985491 H          1 MOL1         0.0751
      24    O6      16.115648   20.801001   21.058550 O.3        1 MOL1        -0.3740
      25    C8      14.154232   19.442923   21.424361 C.3        1 MOL1         0.1003
      26    H12     13.288465   19.014682   20.902773 H          1 MOL1         0.0783
      27    O7      13.691969   20.256486   22.514681 O.3        1 MOL1        -0.5519
      28    H13     14.458892   20.803794   22.821961 H          1 MOL1         0.3769
      29    C9      15.020999   18.271810   21.954115 C.3        1 MOL1         0.1053
      30    H14     15.849622   18.701979   22.529190 H          1 MOL1         0.0783
      31    O8      14.224835   17.436562   22.803323 O.3        1 MOL1        -0.5519
      32    H15     13.710890   18.063417   23.361045 H          1 MOL1         0.3769
      33    C10     15.620313   17.454167   20.778273 C.3        1 MOL1         0.1018
      34    H16     14.816958   16.887875   20.289391 H          1 MOL1         0.0783
      35    C11     16.306566   18.370857   19.731497 C.3        1 MOL1         0.1043
      36    H17     17.189071   18.827812   20.198506 H          1 MOL1         0.0783
      37    O9      15.382429   19.411356   19.332242 O.3        1 MOL1        -0.3740
      38    C12     16.805270   17.622732   18.468537 C.3        1 MOL1         0.0138
      39    H18     17.786356   17.184141   18.692301 H          1 MOL1         0.0794
      40    H19     16.958039   18.354655   17.664317 H          1 MOL1         0.0794
      41    O10     15.908805   16.591872   18.035567 O.3        1 MOL1        -0.5486
      42    H20     15.929273   15.883128   18.715902 H          1 MOL1         0.3769
      43    C13     18.389085   24.136677   21.760654 C.3        1 MOL1         0.2972
      44    H21     18.812337   25.138644   21.907968 H          1 MOL1         0.0751
      45    O11     19.406098   23.116529   21.819836 O.3        1 MOL1        -0.3740
      46    C14     17.337842   23.850332   22.859308 C.3        1 MOL1         0.1003
      47    H22     16.543096   24.600946   22.758962 H          1 MOL1         0.0783
      48    O12     17.932863   23.960461   24.162214 O.3        1 MOL1        -0.5519
      49    H23     18.904008   23.810436   24.048311 H          1 MOL1         0.3769
      50    C15     16.701199   22.454308   22.669260 C.3        1 MOL1         0.1053
      51    H24     17.465389   21.702668   22.896356 H          1 MOL1         0.0783
      52    O13     15.604689   22.300476   23.576132 O.3        1 MOL1        -0.5519
      53    H25     15.962464   22.564209   24.452930 H          1 MOL1         0.3769
      54    C16     16.211420   22.228554   21.216424 C.3        1 MOL1         0.1018
      55    H26     15.239654   22.725539   21.096615 H          1 MOL1         0.0783
      56    C17     17.212348   22.733029   20.137017 C.3        1 MOL1         0.1043
      57    H27     18.042085   22.016823   20.097977 H          1 MOL1         0.0783
      58    O14     17.735471   24.042483   20.479117 O.3        1 MOL1        -0.3740
      59    C18     16.606245   22.805419   18.715079 C.3        1 MOL1         0.0138
      60    H28     16.447496   21.781776   18.350110 H          1 MOL1         0.0794
      61    H29     17.336771   23.279757   18.045956 H          1 MOL1         0.0794
      62    O15     15.368296   23.526679   18.692583 O.3        1 MOL1        -0.5486
      63    H30     15.078608   23.592310   17.756466 H          1 MOL1         0.3769
      64    C19     23.586939   22.776802   21.600056 C.3        1 MOL1         0.2972
      65    H31     24.646105   23.020034   21.447411 H          1 MOL1         0.0751
      66    O16     23.407340   21.386425   21.926627 O.3        1 MOL1        -0.3740
      67    C20     23.026011   23.603193   22.786157 C.3        1 MOL1         0.1003
      68    H32     23.177239   24.664991   22.552075 H          1 MOL1         0.0783
      69    O17     23.731340   23.276700   23.994527 O.3        1 MOL1        -0.5519
      70    H33     23.977634   22.321542   23.929164 H          1 MOL1         0.3769
      71    C21     21.506909   23.363887   22.967121 C.3        1 MOL1         0.1053
      72    H34     21.359067   22.324185   23.288852 H          1 MOL1         0.0783
      73    O18     20.993442   24.257799   23.960256 O.3        1 MOL1        -0.5519
      74    H35     21.636815   24.210957   24.702341 H          1 MOL1         0.3769
      75    C22     20.759489   23.570031   21.628633 C.3        1 MOL1         0.1018
      76    H36     20.802961   24.634272   21.361574 H          1 MOL1         0.0783
      77    C23     21.405800   22.737497   20.488618 C.3        1 MOL1         0.1043
      78    H37     21.294341   21.672895   20.733005 H          1 MOL1         0.0783
      79    O19     22.816040   23.070299   20.412900 O.3        1 MOL1        -0.3740
      80    C24     20.771793   22.954036   19.089572 C.3        1 MOL1         0.0138
      81    H38     19.941586   22.247160   18.970092 H          1 MOL1         0.0794
      82    H39     21.516679   22.699538   18.324045 H          1 MOL1         0.0794
      83    O20     20.296812   24.289597   18.883414 O.3        1 MOL1        -0.5486
      84    H40     19.454431   24.378600   19.387630 H          1 MOL1         0.3769
      85    C25     25.111819   17.627243   21.332315 C.3        1 MOL1         0.2972
      86    H41     25.799430   16.804972   21.097070 H          1 MOL1         0.0751
      87    O21     23.802194   17.137651   21.687046 O.3        1 MOL1        -0.3740
      88    C26     25.658181   18.430225   22.538105 C.3        1 MOL1         0.1003
      89    H42     26.654555   18.802486   22.266507 H          1 MOL1         0.0783
      90    O22     25.762998   17.579234   23.690975 O.3        1 MOL1        -0.5519
      91    H43     25.011780   16.938309   23.640030 H          1 MOL1         0.3769
      92    C27     24.757985   19.649418   22.848108 C.3        1 MOL1         0.1053
      93    H44     23.801629   19.269842   23.229597 H          1 MOL1         0.0783
      94    O23     25.380542   20.466760   23.845151 O.3        1 MOL1        -0.5519
      95    H45     25.672872   19.840640   24.544227 H          1 MOL1         0.3769
      96    C28     24.481016   20.490981   21.576696 C.3        1 MOL1         0.1018
      97    H46     25.400550   21.030863   21.315266 H          1 MOL1         0.0783
      98    C29     24.033326   19.603955   20.378385 C.3        1 MOL1         0.1043
      99    H47     23.048034   19.183788   20.613919 H          1 MOL1         0.0783
     100    O24     24.981183   18.520498   20.205704 O.3        1 MOL1        -0.3740
     101    C30     23.890587   20.342553   19.023183 C.3        1 MOL1         0.0138
     102    H48     22.878325   20.760250   18.959563 H          1 MOL1         0.0794
     103    H49     23.981461   19.607389   18.212625 H          1 MOL1         0.0794
     104    O25     24.852149   21.387155   18.843587 O.3        1 MOL1        -0.5486
     105    H50     24.454806   22.201308   19.227429 H          1 MOL1         0.3769
     106    C31     21.288791   13.857882   20.965582 C.3        1 MOL1         0.2972
     107    H51     20.893138   12.881048   20.658756 H          1 MOL1         0.0751
     108    O26     20.236142   14.756230   21.357796 O.3        1 MOL1        -0.3740
     109    C32     22.276792   13.713985   22.154895 C.3        1 MOL1         0.1003
     110    H52     23.084612   13.046984   21.826925 H          1 MOL1         0.0783
     111    O27     21.630726   13.139793   23.302985 O.3        1 MOL1        -0.5519
     112    H53     20.824708   13.683230   23.493930 H          1 MOL1         0.3769
     113    C33     22.908416   15.080742   22.523327 C.3        1 MOL1         0.1053
     114    H54     22.119261   15.719918   22.939262 H          1 MOL1         0.0783
     115    O28     23.938412   14.886606   23.499149 O.3        1 MOL1        -0.5519
     116    H55     23.548068   14.282987   24.169509 H          1 MOL1         0.3769
     117    C34     23.494751   15.789399   21.277372 C.3        1 MOL1         0.1018
     118    H56     24.392043   15.239999   20.963537 H          1 MOL1         0.0783
     119    C35     22.471874   15.825065   20.106882 C.3        1 MOL1         0.1043
     120    H57     21.630502   16.464218   20.404049 H          1 MOL1         0.0783
     121    O29     21.995037   14.477074   19.868268 O.3        1 MOL1        -0.3740
     122    C36     23.010345   16.388333   18.767493 C.3        1 MOL1         0.0138
     123    H58     22.896618   17.479176   18.777873 H          1 MOL1         0.0794
     124    H59     22.377496   16.012179   17.952637 H          1 MOL1         0.0794
     125    O30     24.379314   16.050451   18.520518 O.3        1 MOL1        -0.5486
     126    H60     24.920333   16.768373   18.920797 H          1 MOL1         0.3769
     127    C1      20.749092   19.099504   22.422105 C.3        1 MOL1        -0.1693
     128    H1      20.786677   18.578519   21.457262 H          1 MOL1         0.0829
     129    H2      21.698906   19.610102   22.589278 H          1 MOL1         0.0829
     130    C2      20.228576   18.236237   23.614022 C.3        1 MOL1        -0.1768
     131    H3      20.480765   18.627163   24.607453 H          1 MOL1         0.0829
     132    H4      20.477208   17.171790   23.585097 H          1 MOL1         0.0829
     133    C3      18.807776   18.629786   23.108540 C.3        1 MOL1         0.1211
     134    H5      18.443644   18.036783   22.262426 H          1 MOL1         0.0786
     135    C4      19.468737   19.962569   22.657170 C.3        1 MOL1        -0.1768
     136    H6      19.556855   20.715980   23.449193 H          1 MOL1         0.0829
     137    H7      19.034860   20.426496   21.766224 H          1 MOL1         0.0829
     138    O1      17.823144   18.725092   24.110180 O.3        1 MOL1        -0.5515
     139    H8      17.497372   17.812562   24.284370 H          1 MOL1         0.3773
@<TRIPOS>BOND
    1     1     2    1
    2     1     3    1
    3     1     4    1
    4     4     5    1
    5     4     6    1
    6     6     7    1
    7     4     8    1
    8     8     9    1
    9     8    10    1
   10    10    11    1
   11     8    12    1
   12    12    13    1
   13    12    14    1
   14    14    15    1
   15     1    16    1
   16    14    16    1
   17    14    17    1
   18    17    18    1
   19    17    19    1
   20    17    20    1
   21    20    21    1
   22    22    23    1
   23    22    24    1
   24    22    25    1
   25    25    26    1
   26    25    27    1
   27    27    28    1
   28    25    29    1
   29    29    30    1
   30    29    31    1
   31    31    32    1
   32     3    33    1
   33    29    33    1
   34    33    34    1
   35    33    35    1
   36    35    36    1
   37    22    37    1
   38    35    37    1
   39    35    38    1
   40    38    39    1
   41    38    40    1
   42    38    41    1
   43    41    42    1
   44    43    44    1
   45    43    45    1
   46    43    46    1
   47    46    47    1
   48    46    48    1
   49    48    49    1
   50    46    50    1
   51    50    51    1
   52    50    52    1
   53    52    53    1
   54    24    54    1
   55    50    54    1
   56    54    55    1
   57    54    56    1
   58    56    57    1
   59    43    58    1
   60    56    58    1
   61    56    59    1
   62    59    60    1
   63    59    61    1
   64    59    62    1
   65    62    63    1
   66    64    65    1
   67    64    66    1
   68    64    67    1
   69    67    68    1
   70    67    69    1
   71    69    70    1
   72    67    71    1
   73    71    72    1
   74    71    73    1
   75    73    74    1
   76    45    75    1
   77    71    75    1
   78    75    76    1
   79    75    77    1
   80    77    78    1
   81    64    79    1
   82    77    79    1
   83    77    80    1
   84    80    81    1
   85    80    82    1
   86    80    83    1
   87    83    84    1
   88    85    86    1
   89    85    87    1
   90    85    88    1
   91    88    89    1
   92    88    90    1
   93    90    91    1
   94    88    92    1
   95    92    93    1
   96    92    94    1
   97    94    95    1
   98    66    96    1
   99    92    96    1
  100    96    97    1
  101    96    98    1
  102    98    99    1
  103    85   100    1
  104    98   100    1
  105    98   101    1
  106   101   102    1
  107   101   103    1
  108   101   104    1
  109   104   105    1
  110   106   107    1
  111    12   108    1
  112   106   108    1
  113   106   109    1
  114   109   110    1
  115   109   111    1
  116   111   112    1
  117   109   113    1
  118   113   114    1
  119   113   115    1
  120   115   116    1
  121    87   117    1
  122   113   117    1
  123   117   118    1
  124   117   119    1
  125   119   120    1
  126   106   121    1
  127   119   121    1
  128   119   122    1
  129   122   123    1
  130   122   124    1
  131   122   125    1
  132   125   126    1
  133   127   128    1
  134   127   129    1
  135   127   130    1
  136   130   131    1
  137   130   132    1
  138   130   133    1
  139   133   134    1
  140   127   135    1
  141   133   135    1
  142   135   136    1
  143   135   137    1
  144   133   138    1
  145   138   139    1
@<TRIPOS>SUBSTRUCTURE
       1 MOL1            1 RESIDUE      1      MOL     
       2 MOL1          139 RESIDUE      1      MOL     
@<SCITEGIC>MOL_PROPERTY
feprocess Rank
SciTegic.value.IntegerValue
115

@<SCITEGIC>MOL_PROPERTY
Conf_Id
SciTegic.value.IntegerValue
427

@<SCITEGIC>MOL_PROPERTY
Probability
SciTegic.value.DoubleValue
0.02

@<SCITEGIC>MOL_PROPERTY
G
SciTegic.value.DoubleValue
549.175

@<SCITEGIC>MOL_PROPERTY
E
SciTegic.value.DoubleValue
371.767

@<SCITEGIC>MOL_PROPERTY
-TS
SciTegic.value.DoubleValue
177.408

@<SCITEGIC>MOL_PROPERTY
U+W
SciTegic.value.DoubleValue
249.256

@<SCITEGIC>MOL_PROPERTY
U
SciTegic.value.DoubleValue
287.241

@<SCITEGIC>MOL_PROPERTY
W
SciTegic.value.DoubleValue
-37.985

@<SCITEGIC>MOL_PROPERTY
W(PB)
SciTegic.value.DoubleValue
-43.970

@<SCITEGIC>MOL_PROPERTY
W(SA)
SciTegic.value.DoubleValue
5.984

@<SCITEGIC>MOL_PROPERTY
Valence
SciTegic.value.DoubleValue
154.116

@<SCITEGIC>MOL_PROPERTY
Coulomb
SciTegic.value.DoubleValue
154.485

@<SCITEGIC>MOL_PROPERTY
VdW
SciTegic.value.DoubleValue
-21.361

@<SCITEGIC>MOL_PROPERTY
VdW6
SciTegic.value.DoubleValue
-166.796

@<SCITEGIC>MOL_PROPERTY
VdW12
SciTegic.value.DoubleValue
145.435

@<SCITEGIC>MOL_PROPERTY
Bond
SciTegic.value.DoubleValue
4.576

@<SCITEGIC>MOL_PROPERTY
Angle
SciTegic.value.DoubleValue
12.080

@<SCITEGIC>MOL_PROPERTY
Pdih
SciTegic.value.DoubleValue
137.461

@<SCITEGIC>MOL_PROPERTY
Idih
SciTegic.value.DoubleValue
0.000

@<SCITEGIC>MOL_PROPERTY
Tether
SciTegic.value.DoubleValue
0.000

@<TRIPOS>MOLECULE
CD_guest-s16_fast_vm2_rndm.mol2 : feprocess host+ligand conformer 116
         139         145           2
SMALL
USER_CHARGES
 
@<TRIPOS>ATOM
       1    C1      16.363637   15.438498   20.174796 C.3        1 MOL1         0.2972
       2    H1      15.378371   15.347344   19.699628 H          1 MOL1         0.0751
       3    O1      16.541896   16.736736   20.779581 O.3        1 MOL1        -0.3740
       4    C2      16.576631   14.338740   21.252287 C.3        1 MOL1         0.1003
       5    H2      16.534810   13.370631   20.736343 H          1 MOL1         0.0783
       6    O2      15.554851   14.367351   22.259546 O.3        1 MOL1        -0.5519
       7    H3      15.592049   15.259120   22.689089 H          1 MOL1         0.3769
       8    C3      17.980946   14.473786   21.892968 C.3        1 MOL1         0.1053
       9    H4      18.018988   15.425587   22.439790 H          1 MOL1         0.0783
      10    O3      18.209192   13.387585   22.796661 O.3        1 MOL1        -0.5519
      11    H5      17.366419   13.285534   23.293380 H          1 MOL1         0.3769
      12    C4      19.077572   14.494642   20.798783 C.3        1 MOL1         0.1018
      13    H6      19.163678   13.489453   20.365443 H          1 MOL1         0.0783
      14    C5      18.756892   15.507580   19.667137 C.3        1 MOL1         0.1043
      15    H7      18.817986   16.518807   20.085094 H          1 MOL1         0.0783
      16    O4      17.408788   15.273712   19.187522 O.3        1 MOL1        -0.3740
      17    C6      19.743418   15.463659   18.470464 C.3        1 MOL1         0.0138
      18    H8      20.559915   16.168927   18.671218 H          1 MOL1         0.0794
      19    H9      19.223975   15.827319   17.573885 H          1 MOL1         0.0794
      20    O5      20.289447   14.160246   18.230203 O.3        1 MOL1        -0.5486
      21    H10     20.905855   13.960356   18.972080 H          1 MOL1         0.3769
      22    C7      14.722113   20.238909   21.933183 C.3        1 MOL1         0.2972
      23    H11     14.050408   21.055785   22.227414 H          1 MOL1         0.0751
      24    O6      16.073568   20.699915   21.748937 O.3        1 MOL1        -0.3740
      25    C8      14.733114   19.145101   23.026144 C.3        1 MOL1         0.1003
      26    H12     13.711939   18.750947   23.110314 H          1 MOL1         0.0783
      27    O7      15.136618   19.696023   24.290857 O.3        1 MOL1        -0.5519
      28    H13     15.525208   20.587095   24.109555 H          1 MOL1         0.3769
      29    C9      15.666705   17.979900   22.625511 C.3        1 MOL1         0.1053
      30    H14     16.695927   18.355134   22.630967 H          1 MOL1         0.0783
      31    O8      15.541012   16.929278   23.587595 O.3        1 MOL1        -0.5519
      32    H15     15.575003   17.383961   24.459383 H          1 MOL1         0.3769
      33    C10     15.362030   17.451028   21.200021 C.3        1 MOL1         0.1018
      34    H16     14.477121   16.802221   21.242984 H          1 MOL1         0.0783
      35    C11     15.145838   18.594352   20.164619 C.3        1 MOL1         0.1043
      36    H17     16.128202   19.029290   19.942427 H          1 MOL1         0.0783
      37    O9      14.284711   19.634277   20.698637 O.3        1 MOL1        -0.3740
      38    C12     14.552109   18.106942   18.821645 C.3        1 MOL1         0.0138
      39    H18     15.317957   17.522879   18.293504 H          1 MOL1         0.0794
      40    H19     14.324064   18.983314   18.200073 H          1 MOL1         0.0794
      41    O10     13.376775   17.309240   19.009461 O.3        1 MOL1        -0.5486
      42    H20     13.010247   17.104374   18.121557 H          1 MOL1         0.3769
      43    C13     18.384301   24.132237   21.486805 C.3        1 MOL1         0.2972
      44    H21     18.752007   25.158338   21.357340 H          1 MOL1         0.0751
      45    O11     19.473106   23.204275   21.689320 O.3        1 MOL1        -0.3740
      46    C14     17.461255   24.063535   22.730078 C.3        1 MOL1         0.1003
      47    H22     16.626253   24.756275   22.562504 H          1 MOL1         0.0783
      48    O12     18.182417   24.462445   23.906154 O.3        1 MOL1        -0.5519
      49    H23     19.129323   24.230205   23.751919 H          1 MOL1         0.3769
      50    C15     16.875918   22.642482   22.912216 C.3        1 MOL1         0.1053
      51    H24     17.699815   21.974762   23.186858 H          1 MOL1         0.0783
      52    O13     15.901325   22.646262   23.959433 O.3        1 MOL1        -0.5519
      53    H25     16.311883   23.164093   24.688021 H          1 MOL1         0.3769
      54    C16     16.241330   22.120521   21.599687 C.3        1 MOL1         0.1018
      55    H26     15.287808   22.639081   21.434071 H          1 MOL1         0.0783
      56    C17     17.162557   22.335136   20.370404 C.3        1 MOL1         0.1043
      57    H27     18.026906   21.676584   20.491526 H          1 MOL1         0.0783
      58    O14     17.624034   23.708692   20.332630 O.3        1 MOL1        -0.3740
      59    C18     16.514664   21.972467   19.007928 C.3        1 MOL1         0.0138
      60    H28     16.716821   20.914165   18.799463 H          1 MOL1         0.0794
      61    H29     17.009901   22.551813   18.217184 H          1 MOL1         0.0794
      62    O15     15.100926   22.200777   18.972601 O.3        1 MOL1        -0.5486
      63    H30     14.678109   21.487940   19.504697 H          1 MOL1         0.3769
      64    C19     23.521651   22.646783   20.787458 C.3        1 MOL1         0.2972
      65    H31     24.544635   22.758544   20.405675 H          1 MOL1         0.0751
      66    O16     23.311604   21.350284   21.382585 O.3        1 MOL1        -0.3740
      67    C20     23.218919   23.718907   21.866060 C.3        1 MOL1         0.1003
      68    H32     23.363018   24.703218   21.402070 H          1 MOL1         0.0783
      69    O17     24.114830   23.583210   22.981547 O.3        1 MOL1        -0.5519
      70    H33     24.147433   22.620664   23.214984 H          1 MOL1         0.3769
      71    C21     21.747853   23.624892   22.344144 C.3        1 MOL1         0.1053
      72    H34     21.644684   22.688386   22.905991 H          1 MOL1         0.0783
      73    O18     21.445716   24.732519   23.198968 O.3        1 MOL1        -0.5519
      74    H35     22.196047   24.780519   23.831950 H          1 MOL1         0.3769
      75    C22     20.755307   23.597747   21.151717 C.3        1 MOL1         0.1018
      76    H36     20.724095   24.601812   20.708540 H          1 MOL1         0.0783
      77    C23     21.186958   22.571650   20.064514 C.3        1 MOL1         0.1043
      78    H37     21.096040   21.563141   20.485084 H          1 MOL1         0.0783
      79    O19     22.569781   22.813468   19.715878 O.3        1 MOL1        -0.3740
      80    C24     20.358146   22.600391   18.754122 C.3        1 MOL1         0.0138
      81    H38     19.508881   21.915911   18.858027 H          1 MOL1         0.0794
      82    H39     20.980864   22.203341   17.941315 H          1 MOL1         0.0794
      83    O20     19.884591   23.907276   18.410596 O.3        1 MOL1        -0.5486
      84    H40     19.092317   24.081008   18.970093 H          1 MOL1         0.3769
      85    C25     25.112196   17.615721   21.704686 C.3        1 MOL1         0.2972
      86    H41     25.816088   16.774118   21.730395 H          1 MOL1         0.0751
      87    O21     23.742898   17.171210   21.777645 O.3        1 MOL1        -0.3740
      88    C26     25.369403   18.580060   22.891323 C.3        1 MOL1         0.1003
      89    H42     26.393691   18.960693   22.786072 H          1 MOL1         0.0783
      90    O22     25.252188   17.898483   24.150207 O.3        1 MOL1        -0.5519
      91    H43     24.461289   17.304131   24.094850 H          1 MOL1         0.3769
      92    C27     24.406889   19.792288   22.834551 C.3        1 MOL1         0.1053
      93    H44     23.383510   19.431905   23.007913 H          1 MOL1         0.0783
      94    O23     24.768005   20.735715   23.849972 O.3        1 MOL1        -0.5519
      95    H45     24.883253   20.198966   24.665440 H          1 MOL1         0.3769
      96    C28     24.457756   20.479913   21.448187 C.3        1 MOL1         0.1018
      97    H46     25.399537   21.040658   21.381941 H          1 MOL1         0.0783
      98    C29     24.361639   19.464623   20.272919 C.3        1 MOL1         0.1043
      99    H47     23.338110   19.070828   20.238828 H          1 MOL1         0.0783
     100    O24     25.284130   18.367172   20.484709 O.3        1 MOL1        -0.3740
     101    C30     24.663553   20.085181   18.887402 C.3        1 MOL1         0.0138
     102    H48     23.821534   20.729252   18.601444 H          1 MOL1         0.0794
     103    H49     24.718907   19.276271   18.146717 H          1 MOL1         0.0794
     104    O25     25.879425   20.844538   18.886763 O.3        1 MOL1        -0.5486
     105    H50     26.037442   21.152072   17.967634 H          1 MOL1         0.3769
     106    C31     21.258842   13.882627   21.702150 C.3        1 MOL1         0.2972
     107    H51     20.789769   12.890061   21.704679 H          1 MOL1         0.0751
     108    O26     20.304007   14.920888   21.415033 O.3        1 MOL1        -0.3740
     109    C32     21.884836   14.174512   23.086058 C.3        1 MOL1         0.1003
     110    H52     22.666951   13.424462   23.261778 H          1 MOL1         0.0783
     111    O27     20.892645   14.079468   24.121279 O.3        1 MOL1        -0.5519
     112    H53     20.011761   14.054325   23.673065 H          1 MOL1         0.3769
     113    C33     22.545259   15.571686   23.097106 C.3        1 MOL1         0.1053
     114    H54     21.750374   16.318952   22.997602 H          1 MOL1         0.0783
     115    O28     23.228390   15.763224   24.339138 O.3        1 MOL1        -0.5519
     116    H55     22.593388   15.453325   25.023377 H          1 MOL1         0.3769
     117    C34     23.528466   15.750835   21.913428 C.3        1 MOL1         0.1018
     118    H56     24.454723   15.211267   22.150539 H          1 MOL1         0.0783
     119    C35     22.952061   15.244705   20.558800 C.3        1 MOL1         0.1043
     120    H57     22.209311   15.975180   20.218643 H          1 MOL1         0.0783
     121    O29     22.305047   13.953194   20.710622 O.3        1 MOL1        -0.3740
     122    C36     24.019956   15.129507   19.445275 C.3        1 MOL1         0.0138
     123    H58     24.344024   16.141408   19.167005 H          1 MOL1         0.0794
     124    H59     23.555193   14.679921   18.557511 H          1 MOL1         0.0794
     125    O30     25.151362   14.354993   19.862343 O.3        1 MOL1        -0.5486
     126    H60     25.762838   14.285397   19.097043 H          1 MOL1         0.3769
     127    C1      20.554780   18.412921   21.619799 C.3        1 MOL1        -0.1693
     128    H1      20.717941   17.494864   21.050786 H          1 MOL1         0.0829
     129    H2      21.491021   18.982923   21.639020 H          1 MOL1         0.0829
     130    C2      19.867903   18.256231   23.016692 C.3        1 MOL1        -0.1768
     131    H3      19.143650   17.435989   23.081377 H          1 MOL1         0.0829
     132    H4      20.539291   18.202587   23.880609 H          1 MOL1         0.0829
     133    C3      19.236726   19.654476   22.742254 C.3        1 MOL1         0.1211
     134    H5      18.229540   19.788489   23.152636 H          1 MOL1         0.0786
     135    C4      19.294087   19.249549   21.235385 C.3        1 MOL1        -0.1768
     136    H6      19.466244   20.050684   20.515188 H          1 MOL1         0.0829
     137    H7      18.435538   18.659249   20.898748 H          1 MOL1         0.0829
     138    O1      20.053023   20.745719   23.108915 O.3        1 MOL1        -0.5515
     139    H8      19.735922   21.537930   22.626290 H          1 MOL1         0.3773
@<TRIPOS>BOND
    1     1     2    1
    2     1     3    1
    3     1     4    1
    4     4     5    1
    5     4     6    1
    6     6     7    1
    7     4     8    1
    8     8     9    1
    9     8    10    1
   10    10    11    1
   11     8    12    1
   12    12    13    1
   13    12    14    1
   14    14    15    1
   15     1    16    1
   16    14    16    1
   17    14    17    1
   18    17    18    1
   19    17    19    1
   20    17    20    1
   21    20    21    1
   22    22    23    1
   23    22    24    1
   24    22    25    1
   25    25    26    1
   26    25    27    1
   27    27    28    1
   28    25    29    1
   29    29    30    1
   30    29    31    1
   31    31    32    1
   32     3    33    1
   33    29    33    1
   34    33    34    1
   35    33    35    1
   36    35    36    1
   37    22    37    1
   38    35    37    1
   39    35    38    1
   40    38    39    1
   41    38    40    1
   42    38    41    1
   43    41    42    1
   44    43    44    1
   45    43    45    1
   46    43    46    1
   47    46    47    1
   48    46    48    1
   49    48    49    1
   50    46    50    1
   51    50    51    1
   52    50    52    1
   53    52    53    1
   54    24    54    1
   55    50    54    1
   56    54    55    1
   57    54    56    1
   58    56    57    1
   59    43    58    1
   60    56    58    1
   61    56    59    1
   62    59    60    1
   63    59    61    1
   64    59    62    1
   65    62    63    1
   66    64    65    1
   67    64    66    1
   68    64    67    1
   69    67    68    1
   70    67    69    1
   71    69    70    1
   72    67    71    1
   73    71    72    1
   74    71    73    1
   75    73    74    1
   76    45    75    1
   77    71    75    1
   78    75    76    1
   79    75    77    1
   80    77    78    1
   81    64    79    1
   82    77    79    1
   83    77    80    1
   84    80    81    1
   85    80    82    1
   86    80    83    1
   87    83    84    1
   88    85    86    1
   89    85    87    1
   90    85    88    1
   91    88    89    1
   92    88    90    1
   93    90    91    1
   94    88    92    1
   95    92    93    1
   96    92    94    1
   97    94    95    1
   98    66    96    1
   99    92    96    1
  100    96    97    1
  101    96    98    1
  102    98    99    1
  103    85   100    1
  104    98   100    1
  105    98   101    1
  106   101   102    1
  107   101   103    1
  108   101   104    1
  109   104   105    1
  110   106   107    1
  111    12   108    1
  112   106   108    1
  113   106   109    1
  114   109   110    1
  115   109   111    1
  116   111   112    1
  117   109   113    1
  118   113   114    1
  119   113   115    1
  120   115   116    1
  121    87   117    1
  122   113   117    1
  123   117   118    1
  124   117   119    1
  125   119   120    1
  126   106   121    1
  127   119   121    1
  128   119   122    1
  129   122   123    1
  130   122   124    1
  131   122   125    1
  132   125   126    1
  133   127   128    1
  134   127   129    1
  135   127   130    1
  136   130   131    1
  137   130   132    1
  138   130   133    1
  139   133   134    1
  140   127   135    1
  141   133   135    1
  142   135   136    1
  143   135   137    1
  144   133   138    1
  145   138   139    1
@<TRIPOS>SUBSTRUCTURE
       1 MOL1            1 RESIDUE      1      MOL     
       2 MOL1          139 RESIDUE      1      MOL     
@<SCITEGIC>MOL_PROPERTY
feprocess Rank
SciTegic.value.IntegerValue
116

@<SCITEGIC>MOL_PROPERTY
Conf_Id
SciTegic.value.IntegerValue
228

@<SCITEGIC>MOL_PROPERTY
Probability
SciTegic.value.DoubleValue
0.02

@<SCITEGIC>MOL_PROPERTY
G
SciTegic.value.DoubleValue
549.180

@<SCITEGIC>MOL_PROPERTY
E
SciTegic.value.DoubleValue
370.411

@<SCITEGIC>MOL_PROPERTY
-TS
SciTegic.value.DoubleValue
178.769

@<SCITEGIC>MOL_PROPERTY
U+W
SciTegic.value.DoubleValue
247.900

@<SCITEGIC>MOL_PROPERTY
U
SciTegic.value.DoubleValue
285.165

@<SCITEGIC>MOL_PROPERTY
W
SciTegic.value.DoubleValue
-37.266

@<SCITEGIC>MOL_PROPERTY
W(PB)
SciTegic.value.DoubleValue
-43.275

@<SCITEGIC>MOL_PROPERTY
W(SA)
SciTegic.value.DoubleValue
6.009

@<SCITEGIC>MOL_PROPERTY
Valence
SciTegic.value.DoubleValue
154.258

@<SCITEGIC>MOL_PROPERTY
Coulomb
SciTegic.value.DoubleValue
152.802

@<SCITEGIC>MOL_PROPERTY
VdW
SciTegic.value.DoubleValue
-21.895

@<SCITEGIC>MOL_PROPERTY
VdW6
SciTegic.value.DoubleValue
-170.970

@<SCITEGIC>MOL_PROPERTY
VdW12
SciTegic.value.DoubleValue
149.075

@<SCITEGIC>MOL_PROPERTY
Bond
SciTegic.value.DoubleValue
4.667

@<SCITEGIC>MOL_PROPERTY
Angle
SciTegic.value.DoubleValue
11.466

@<SCITEGIC>MOL_PROPERTY
Pdih
SciTegic.value.DoubleValue
138.125

@<SCITEGIC>MOL_PROPERTY
Idih
SciTegic.value.DoubleValue
0.000

@<SCITEGIC>MOL_PROPERTY
Tether
SciTegic.value.DoubleValue
0.000

@<TRIPOS>MOLECULE
CD_guest-s16_fast_vm2_rndm.mol2 : feprocess host+ligand conformer 117
         139         145           2
SMALL
USER_CHARGES
 
@<TRIPOS>ATOM
       1    C1      16.155989   15.152979   21.565351 C.3        1 MOL1         0.2972
       2    H1      15.070481   15.018908   21.657527 H          1 MOL1         0.0751
       3    O1      16.512296   16.543313   21.435272 O.3        1 MOL1        -0.3740
       4    C2      16.859246   14.587129   22.821296 C.3        1 MOL1         0.1003
       5    H2      16.633744   13.514052   22.873783 H          1 MOL1         0.0783
       6    O2      16.368603   15.236318   24.005381 O.3        1 MOL1        -0.5519
       7    H3      15.994163   16.106868   23.721903 H          1 MOL1         0.3769
       8    C3      18.391809   14.750692   22.711228 C.3        1 MOL1         0.1053
       9    H4      18.618105   15.820509   22.765833 H          1 MOL1         0.0783
      10    O3      19.026557   14.074462   23.801204 O.3        1 MOL1        -0.5519
      11    H5      18.520084   14.350434   24.597604 H          1 MOL1         0.3769
      12    C4      18.940765   14.216815   21.365482 C.3        1 MOL1         0.1018
      13    H6      19.017362   13.123036   21.426926 H          1 MOL1         0.0783
      14    C5      18.076073   14.633178   20.139484 C.3        1 MOL1         0.1043
      15    H7      18.267286   15.696371   19.946792 H          1 MOL1         0.0783
      16    O4      16.662194   14.451615   20.411575 O.3        1 MOL1        -0.3740
      17    C6      18.426833   13.866294   18.842113 C.3        1 MOL1         0.0138
      18    H8      19.407950   14.210084   18.487540 H          1 MOL1         0.0794
      19    H9      17.691351   14.128840   18.069761 H          1 MOL1         0.0794
      20    O5      18.452649   12.447984   19.044019 O.3        1 MOL1        -0.5486
      21    H10     18.598480   12.024890   18.169730 H          1 MOL1         0.3769
      22    C7      14.835894   20.262285   20.543109 C.3        1 MOL1         0.2972
      23    H11     14.183273   21.078251   20.207100 H          1 MOL1         0.0751
      24    O6      16.162272   20.745458   20.846940 O.3        1 MOL1        -0.3740
      25    C8      14.228717   19.522884   21.770454 C.3        1 MOL1         0.1003
      26    H12     13.280353   19.082023   21.436596 H          1 MOL1         0.0783
      27    O7      13.954473   20.408119   22.865421 O.3        1 MOL1        -0.5519
      28    H13     14.828650   20.741751   23.189139 H          1 MOL1         0.3769
      29    C9      15.152882   18.363109   22.216810 C.3        1 MOL1         0.1053
      30    H14     16.102114   18.790413   22.567781 H          1 MOL1         0.0783
      31    O8      14.531067   17.623299   23.273364 O.3        1 MOL1        -0.5519
      32    H15     14.166387   18.302415   23.883399 H          1 MOL1         0.3769
      33    C10     15.450731   17.423381   21.023835 C.3        1 MOL1         0.1018
      34    H16     14.531769   16.874590   20.779283 H          1 MOL1         0.0783
      35    C11     15.921172   18.204909   19.765499 C.3        1 MOL1         0.1043
      36    H17     16.907263   18.636150   19.975049 H          1 MOL1         0.0783
      37    O9      14.978695   19.275634   19.493590 O.3        1 MOL1        -0.3740
      38    C12     16.080445   17.338760   18.488280 C.3        1 MOL1         0.0138
      39    H18     17.106474   16.951235   18.458052 H          1 MOL1         0.0794
      40    H19     15.961289   17.986808   17.609756 H          1 MOL1         0.0794
      41    O10     15.156854   16.245403   18.421875 O.3        1 MOL1        -0.5486
      42    H20     15.487260   15.551573   19.039022 H          1 MOL1         0.3769
      43    C13     18.554419   23.908811   21.946120 C.3        1 MOL1         0.2972
      44    H21     18.993159   24.852905   22.289408 H          1 MOL1         0.0751
      45    O11     19.532849   23.055866   21.321211 O.3        1 MOL1        -0.3740
      46    C14     17.939191   23.136282   23.139813 C.3        1 MOL1         0.1003
      47    H22     17.191824   23.790521   23.606858 H          1 MOL1         0.0783
      48    O12     18.946227   22.785637   24.102115 O.3        1 MOL1        -0.5519
      49    H23     19.557488   22.161595   23.640044 H          1 MOL1         0.3769
      50    C15     17.237618   21.842649   22.674377 C.3        1 MOL1         0.1053
      51    H24     18.026497   21.148880   22.365350 H          1 MOL1         0.0783
      52    O13     16.514000   21.293759   23.780370 O.3        1 MOL1        -0.5519
      53    H25     17.142777   21.327107   24.535081 H          1 MOL1         0.3769
      54    C16     16.298066   22.046370   21.459263 C.3        1 MOL1         0.1018
      55    H26     15.337645   22.445808   21.809998 H          1 MOL1         0.0783
      56    C17     16.906112   22.986097   20.379714 C.3        1 MOL1         0.1043
      57    H27     17.688176   22.428089   19.849007 H          1 MOL1         0.0783
      58    O14     17.499054   24.159366   20.992695 O.3        1 MOL1        -0.3740
      59    C18     15.879316   23.448361   19.318306 C.3        1 MOL1         0.0138
      60    H28     15.620750   22.587379   18.687206 H          1 MOL1         0.0794
      61    H29     16.357596   24.195389   18.670736 H          1 MOL1         0.0794
      62    O15     14.691857   23.989419   19.910888 O.3        1 MOL1        -0.5486
      63    H30     14.124500   24.329390   19.184680 H          1 MOL1         0.3769
      64    C19     23.612483   22.704326   20.960875 C.3        1 MOL1         0.2972
      65    H31     24.679561   22.781709   20.715626 H          1 MOL1         0.0751
      66    O16     23.298303   21.444109   21.590272 O.3        1 MOL1        -0.3740
      67    C20     23.199474   23.831746   21.934229 C.3        1 MOL1         0.1003
      68    H32     23.425248   24.786096   21.440831 H          1 MOL1         0.0783
      69    O17     23.949771   23.738822   23.157532 O.3        1 MOL1        -0.5519
      70    H33     23.917360   22.794404   23.451072 H          1 MOL1         0.3769
      71    C21     21.679657   23.798156   22.236421 C.3        1 MOL1         0.1053
      72    H34     21.490522   22.940664   22.892747 H          1 MOL1         0.0783
      73    O18     21.340182   25.007141   22.922012 O.3        1 MOL1        -0.5519
      74    H35     21.983841   25.075688   23.661004 H          1 MOL1         0.3769
      75    C22     20.804029   23.632289   20.956015 C.3        1 MOL1         0.1018
      76    H36     20.674275   24.612313   20.480693 H          1 MOL1         0.0783
      77    C23     21.400420   22.629275   19.928362 C.3        1 MOL1         0.1043
      78    H37     21.237959   21.612918   20.308923 H          1 MOL1         0.0783
      79    O19     22.819613   22.845490   19.766229 O.3        1 MOL1        -0.3740
      80    C24     20.726193   22.688960   18.535355 C.3        1 MOL1         0.0138
      81    H38     19.715760   22.267408   18.618391 H          1 MOL1         0.0794
      82    H39     21.289632   22.042602   17.849541 H          1 MOL1         0.0794
      83    O20     20.655119   24.019344   18.007294 O.3        1 MOL1        -0.5486
      84    H40     19.982430   24.508915   18.526965 H          1 MOL1         0.3769
      85    C25     24.931203   17.690474   22.182759 C.3        1 MOL1         0.2972
      86    H41     25.584259   16.823826   22.349660 H          1 MOL1         0.0751
      87    O21     23.563459   17.279254   21.978041 O.3        1 MOL1        -0.3740
      88    C26     24.992979   18.629875   23.412717 C.3        1 MOL1         0.1003
      89    H42     26.033441   18.959959   23.529532 H          1 MOL1         0.0783
      90    O22     24.578589   17.926620   24.593325 O.3        1 MOL1        -0.5519
      91    H43     23.949150   17.230873   24.293464 H          1 MOL1         0.3769
      92    C27     24.112961   19.880834   23.196114 C.3        1 MOL1         0.1053
      93    H44     23.070771   19.546818   23.187948 H          1 MOL1         0.0783
      94    O23     24.307574   20.811911   24.265574 O.3        1 MOL1        -0.5519
      95    H45     24.241674   20.275812   25.086775 H          1 MOL1         0.3769
      96    C28     24.420252   20.574912   21.848043 C.3        1 MOL1         0.1018
      97    H46     25.358042   21.136014   21.957558 H          1 MOL1         0.0783
      98    C29     24.529677   19.573634   20.663304 C.3        1 MOL1         0.1043
      99    H47     23.514048   19.228297   20.441675 H          1 MOL1         0.0783
     100    O24     25.354195   18.434157   21.021797 O.3        1 MOL1        -0.3740
     101    C30     25.106064   20.189320   19.364947 C.3        1 MOL1         0.0138
     102    H48     24.353472   20.857562   18.926530 H          1 MOL1         0.0794
     103    H49     25.280751   19.382880   18.640203 H          1 MOL1         0.0794
     104    O25     26.319921   20.911626   19.605138 O.3        1 MOL1        -0.5486
     105    H50     26.668053   21.206773   18.735576 H          1 MOL1         0.3769
     106    C31     21.300776   14.017130   20.717051 C.3        1 MOL1         0.2972
     107    H51     20.929555   13.085641   20.270397 H          1 MOL1         0.0751
     108    O26     20.225610   14.844320   21.200251 O.3        1 MOL1        -0.3740
     109    C32     22.264692   13.729257   21.897214 C.3        1 MOL1         0.1003
     110    H52     23.111842   13.158196   21.495585 H          1 MOL1         0.0783
     111    O27     21.619281   12.956085   22.921607 O.3        1 MOL1        -0.5519
     112    H53     20.785408   13.430270   23.170196 H          1 MOL1         0.3769
     113    C33     22.815438   15.051501   22.486802 C.3        1 MOL1         0.1053
     114    H54     21.980603   15.575985   22.966030 H          1 MOL1         0.0783
     115    O28     23.821607   14.759017   23.461210 O.3        1 MOL1        -0.5519
     116    H55     23.444906   14.038423   24.013434 H          1 MOL1         0.3769
     117    C34     23.398198   15.973871   21.384229 C.3        1 MOL1         0.1018
     118    H56     24.355250   15.549365   21.053464 H          1 MOL1         0.0783
     119    C35     22.451458   16.104433   20.155038 C.3        1 MOL1         0.1043
     120    H57     21.571264   16.687662   20.455450 H          1 MOL1         0.0783
     121    O29     22.032911   14.781981   19.737150 O.3        1 MOL1        -0.3740
     122    C36     23.065960   16.814019   18.919596 C.3        1 MOL1         0.0138
     123    H58     22.836986   17.884087   18.976571 H          1 MOL1         0.0794
     124    H59     22.562041   16.439576   18.018463 H          1 MOL1         0.0794
     125    O30     24.481024   16.623475   18.798041 O.3        1 MOL1        -0.5486
     126    H60     24.911019   17.142318   19.517799 H          1 MOL1         0.3769
     127    C1      18.866926   18.524047   23.559713 C.3        1 MOL1        -0.1693
     128    H1      18.207898   17.716489   23.896298 H          1 MOL1         0.0829
     129    H2      18.515820   19.461744   24.004199 H          1 MOL1         0.0829
     130    C2      19.163206   18.590845   22.023373 C.3        1 MOL1        -0.1768
     131    H3      19.190911   17.620029   21.516590 H          1 MOL1         0.0829
     132    H4      18.540093   19.267400   21.433592 H          1 MOL1         0.0829
     133    C3      20.566872   19.137427   22.420965 C.3        1 MOL1         0.1211
     134    H5      21.376945   18.821648   21.752877 H          1 MOL1         0.0786
     135    C4      20.403818   18.281627   23.715621 C.3        1 MOL1        -0.1768
     136    H6      20.866404   18.691601   24.619906 H          1 MOL1         0.0829
     137    H7      20.705893   17.235305   23.610063 H          1 MOL1         0.0829
     138    O1      20.635251   20.532716   22.643122 O.3        1 MOL1        -0.5515
     139    H8      21.572037   20.799801   22.521460 H          1 MOL1         0.3773
@<TRIPOS>BOND
    1     1     2    1
    2     1     3    1
    3     1     4    1
    4     4     5    1
    5     4     6    1
    6     6     7    1
    7     4     8    1
    8     8     9    1
    9     8    10    1
   10    10    11    1
   11     8    12    1
   12    12    13    1
   13    12    14    1
   14    14    15    1
   15     1    16    1
   16    14    16    1
   17    14    17    1
   18    17    18    1
   19    17    19    1
   20    17    20    1
   21    20    21    1
   22    22    23    1
   23    22    24    1
   24    22    25    1
   25    25    26    1
   26    25    27    1
   27    27    28    1
   28    25    29    1
   29    29    30    1
   30    29    31    1
   31    31    32    1
   32     3    33    1
   33    29    33    1
   34    33    34    1
   35    33    35    1
   36    35    36    1
   37    22    37    1
   38    35    37    1
   39    35    38    1
   40    38    39    1
   41    38    40    1
   42    38    41    1
   43    41    42    1
   44    43    44    1
   45    43    45    1
   46    43    46    1
   47    46    47    1
   48    46    48    1
   49    48    49    1
   50    46    50    1
   51    50    51    1
   52    50    52    1
   53    52    53    1
   54    24    54    1
   55    50    54    1
   56    54    55    1
   57    54    56    1
   58    56    57    1
   59    43    58    1
   60    56    58    1
   61    56    59    1
   62    59    60    1
   63    59    61    1
   64    59    62    1
   65    62    63    1
   66    64    65    1
   67    64    66    1
   68    64    67    1
   69    67    68    1
   70    67    69    1
   71    69    70    1
   72    67    71    1
   73    71    72    1
   74    71    73    1
   75    73    74    1
   76    45    75    1
   77    71    75    1
   78    75    76    1
   79    75    77    1
   80    77    78    1
   81    64    79    1
   82    77    79    1
   83    77    80    1
   84    80    81    1
   85    80    82    1
   86    80    83    1
   87    83    84    1
   88    85    86    1
   89    85    87    1
   90    85    88    1
   91    88    89    1
   92    88    90    1
   93    90    91    1
   94    88    92    1
   95    92    93    1
   96    92    94    1
   97    94    95    1
   98    66    96    1
   99    92    96    1
  100    96    97    1
  101    96    98    1
  102    98    99    1
  103    85   100    1
  104    98   100    1
  105    98   101    1
  106   101   102    1
  107   101   103    1
  108   101   104    1
  109   104   105    1
  110   106   107    1
  111    12   108    1
  112   106   108    1
  113   106   109    1
  114   109   110    1
  115   109   111    1
  116   111   112    1
  117   109   113    1
  118   113   114    1
  119   113   115    1
  120   115   116    1
  121    87   117    1
  122   113   117    1
  123   117   118    1
  124   117   119    1
  125   119   120    1
  126   106   121    1
  127   119   121    1
  128   119   122    1
  129   122   123    1
  130   122   124    1
  131   122   125    1
  132   125   126    1
  133   127   128    1
  134   127   129    1
  135   127   130    1
  136   130   131    1
  137   130   132    1
  138   130   133    1
  139   133   134    1
  140   127   135    1
  141   133   135    1
  142   135   136    1
  143   135   137    1
  144   133   138    1
  145   138   139    1
@<TRIPOS>SUBSTRUCTURE
       1 MOL1            1 RESIDUE      1      MOL     
       2 MOL1          139 RESIDUE      1      MOL     
@<SCITEGIC>MOL_PROPERTY
feprocess Rank
SciTegic.value.IntegerValue
117

@<SCITEGIC>MOL_PROPERTY
Conf_Id
SciTegic.value.IntegerValue
78

@<SCITEGIC>MOL_PROPERTY
Probability
SciTegic.value.DoubleValue
0.02

@<SCITEGIC>MOL_PROPERTY
G
SciTegic.value.DoubleValue
549.181

@<SCITEGIC>MOL_PROPERTY
E
SciTegic.value.DoubleValue
370.454

@<SCITEGIC>MOL_PROPERTY
-TS
SciTegic.value.DoubleValue
178.727

@<SCITEGIC>MOL_PROPERTY
U+W
SciTegic.value.DoubleValue
247.942

@<SCITEGIC>MOL_PROPERTY
U
SciTegic.value.DoubleValue
285.561

@<SCITEGIC>MOL_PROPERTY
W
SciTegic.value.DoubleValue
-37.618

@<SCITEGIC>MOL_PROPERTY
W(PB)
SciTegic.value.DoubleValue
-43.653

@<SCITEGIC>MOL_PROPERTY
W(SA)
SciTegic.value.DoubleValue
6.035

@<SCITEGIC>MOL_PROPERTY
Valence
SciTegic.value.DoubleValue
151.540

@<SCITEGIC>MOL_PROPERTY
Coulomb
SciTegic.value.DoubleValue
155.428

@<SCITEGIC>MOL_PROPERTY
VdW
SciTegic.value.DoubleValue
-21.407

@<SCITEGIC>MOL_PROPERTY
VdW6
SciTegic.value.DoubleValue
-170.032

@<SCITEGIC>MOL_PROPERTY
VdW12
SciTegic.value.DoubleValue
148.625

@<SCITEGIC>MOL_PROPERTY
Bond
SciTegic.value.DoubleValue
4.648

@<SCITEGIC>MOL_PROPERTY
Angle
SciTegic.value.DoubleValue
12.883

@<SCITEGIC>MOL_PROPERTY
Pdih
SciTegic.value.DoubleValue
134.008

@<SCITEGIC>MOL_PROPERTY
Idih
SciTegic.value.DoubleValue
0.000

@<SCITEGIC>MOL_PROPERTY
Tether
SciTegic.value.DoubleValue
0.000

@<TRIPOS>MOLECULE
CD_guest-s16_fast_vm2_rndm.mol2 : feprocess host+ligand conformer 118
         139         145           2
SMALL
USER_CHARGES
 
@<TRIPOS>ATOM
       1    C1      16.179084   15.244015   20.757472 C.3        1 MOL1         0.2972
       2    H1      15.142805   15.124220   20.415937 H          1 MOL1         0.0751
       3    O1      16.447144   16.605781   21.156693 O.3        1 MOL1        -0.3740
       4    C2      16.485328   14.290380   21.943166 C.3        1 MOL1         0.1003
       5    H2      16.317396   13.266454   21.584701 H          1 MOL1         0.0783
       6    O2      15.618134   14.538728   23.060817 O.3        1 MOL1        -0.5519
       7    H3      15.711753   15.494608   23.303886 H          1 MOL1         0.3769
       8    C3      17.968904   14.402758   22.372339 C.3        1 MOL1         0.1053
       9    H4      18.123276   15.404758   22.794609 H          1 MOL1         0.0783
      10    O3      18.255540   13.411639   23.365073 O.3        1 MOL1        -0.5519
      11    H5      17.504045   13.455351   23.997120 H          1 MOL1         0.3769
      12    C4      18.928625   14.228926   21.166411 C.3        1 MOL1         0.1018
      13    H6      18.928595   13.169950   20.876959 H          1 MOL1         0.0783
      14    C5      18.497245   15.109927   19.956929 C.3        1 MOL1         0.1043
      15    H7      18.664578   16.155831   20.228863 H          1 MOL1         0.0783
      16    O4      17.087728   14.905829   19.688445 O.3        1 MOL1        -0.3740
      17    C6      19.269317   14.868725   18.635849 C.3        1 MOL1         0.0138
      18    H8      20.147961   15.523986   18.623681 H          1 MOL1         0.0794
      19    H9      18.632524   15.183627   17.798369 H          1 MOL1         0.0794
      20    O5      19.677280   13.508405   18.456206 O.3        1 MOL1        -0.5486
      21    H10     20.561837   13.426515   18.879309 H          1 MOL1         0.3769
      22    C7      14.786371   20.301852   21.732128 C.3        1 MOL1         0.2972
      23    H11     14.186748   21.205952   21.900127 H          1 MOL1         0.0751
      24    O6      16.144267   20.618348   21.369576 O.3        1 MOL1        -0.3740
      25    C8      14.821488   19.437684   23.013873 C.3        1 MOL1         0.1003
      26    H12     13.796123   19.103934   23.219979 H          1 MOL1         0.0783
      27    O7      15.309836   20.199722   24.129936 O.3        1 MOL1        -0.5519
      28    H13     15.658061   21.051523   23.767624 H          1 MOL1         0.3769
      29    C9      15.702997   18.188870   22.789436 C.3        1 MOL1         0.1053
      30    H14     16.735490   18.534743   22.671473 H          1 MOL1         0.0783
      31    O8      15.619447   17.333025   23.932308 O.3        1 MOL1        -0.5519
      32    H15     15.710428   17.936869   24.703511 H          1 MOL1         0.3769
      33    C10     15.300444   17.410518   21.509512 C.3        1 MOL1         0.1018
      34    H16     14.423212   16.793611   21.746181 H          1 MOL1         0.0783
      35    C11     14.991206   18.331069   20.287368 C.3        1 MOL1         0.1043
      36    H17     15.945159   18.673888   19.872384 H          1 MOL1         0.0783
      37    O9      14.218340   19.495531   20.679484 O.3        1 MOL1        -0.3740
      38    C12     14.243761   17.609942   19.140685 C.3        1 MOL1         0.0138
      39    H18     14.936994   16.905962   18.660676 H          1 MOL1         0.0794
      40    H19     13.961128   18.354305   18.384078 H          1 MOL1         0.0794
      41    O10     13.084564   16.909382   19.607990 O.3        1 MOL1        -0.5486
      42    H20     12.616768   16.549719   18.822761 H          1 MOL1         0.3769
      43    C13     18.551842   23.908101   20.482139 C.3        1 MOL1         0.2972
      44    H21     18.944420   24.865436   20.115914 H          1 MOL1         0.0751
      45    O11     19.616204   23.038696   20.926650 O.3        1 MOL1        -0.3740
      46    C14     17.532909   24.122005   21.637447 C.3        1 MOL1         0.1003
      47    H22     16.698267   24.702400   21.223030 H          1 MOL1         0.0783
      48    O12     18.099241   24.855690   22.732936 O.3        1 MOL1        -0.5519
      49    H23     18.844741   24.311865   23.092690 H          1 MOL1         0.3769
      50    C15     16.967381   22.763604   22.121990 C.3        1 MOL1         0.1053
      51    H24     17.790691   22.184503   22.562567 H          1 MOL1         0.0783
      52    O13     15.950989   22.986958   23.105025 O.3        1 MOL1        -0.5519
      53    H25     16.304458   23.701726   23.681146 H          1 MOL1         0.3769
      54    C16     16.389585   21.963631   20.927314 C.3        1 MOL1         0.1018
      55    H26     15.468357   22.453225   20.585134 H          1 MOL1         0.0783
      56    C17     17.390299   21.885347   19.741430 C.3        1 MOL1         0.1043
      57    H27     18.250246   21.278637   20.048907 H          1 MOL1         0.0783
      58    O14     17.847369   23.223441   19.419367 O.3        1 MOL1        -0.3740
      59    C18     16.815422   21.216520   18.465565 C.3        1 MOL1         0.0138
      60    H28     17.013236   20.138391   18.525731 H          1 MOL1         0.0794
      61    H29     17.367324   21.591068   17.593356 H          1 MOL1         0.0794
      62    O15     15.408880   21.435799   18.293922 O.3        1 MOL1        -0.5486
      63    H30     14.948877   20.930022   19.002034 H          1 MOL1         0.3769
      64    C19     23.576959   22.786492   22.037216 C.3        1 MOL1         0.2972
      65    H31     24.616867   22.942521   22.351848 H          1 MOL1         0.0751
      66    O16     23.359941   21.439337   21.568305 O.3        1 MOL1        -0.3740
      67    C20     22.605722   23.095074   23.207148 C.3        1 MOL1         0.1003
      68    H32     22.743492   24.152360   23.468848 H          1 MOL1         0.0783
      69    O17     22.878174   22.288100   24.363700 O.3        1 MOL1        -0.5519
      70    H33     23.697649   21.769878   24.173263 H          1 MOL1         0.3769
      71    C21     21.136886   22.899570   22.771727 C.3        1 MOL1         0.1053
      72    H34     20.985023   21.830619   22.593191 H          1 MOL1         0.0783
      73    O18     20.277600   23.329654   23.831167 O.3        1 MOL1        -0.5519
      74    H35     20.676013   22.939729   24.642251 H          1 MOL1         0.3769
      75    C22     20.806066   23.656863   21.460210 C.3        1 MOL1         0.1018
      76    H36     20.650855   24.717994   21.695789 H          1 MOL1         0.0783
      77    C23     21.916981   23.506027   20.379219 C.3        1 MOL1         0.1043
      78    H37     21.846856   22.492718   19.962818 H          1 MOL1         0.0783
      79    O19     23.235710   23.684904   20.960371 O.3        1 MOL1        -0.3740
      80    C24     21.763354   24.492207   19.196708 C.3        1 MOL1         0.0138
      81    H38     20.892296   24.187804   18.600772 H          1 MOL1         0.0794
      82    H39     22.647104   24.404319   18.550587 H          1 MOL1         0.0794
      83    O20     21.600840   25.846080   19.637707 O.3        1 MOL1        -0.5486
      84    H40     21.591859   26.420168   18.840723 H          1 MOL1         0.3769
      85    C25     25.111786   17.685849   21.514152 C.3        1 MOL1         0.2972
      86    H41     25.787175   16.825489   21.425545 H          1 MOL1         0.0751
      87    O21     23.747329   17.272492   21.737340 O.3        1 MOL1        -0.3740
      88    C26     25.553551   18.570936   22.703535 C.3        1 MOL1         0.1003
      89    H42     26.579991   18.902722   22.499541 H          1 MOL1         0.0783
      90    O22     25.535625   17.817645   23.926585 O.3        1 MOL1        -0.5519
      91    H43     24.820015   17.138741   23.839224 H          1 MOL1         0.3769
      92    C27     24.665248   19.831195   22.833195 C.3        1 MOL1         0.1053
      93    H44     23.668291   19.510477   23.158989 H          1 MOL1         0.0783
      94    O23     25.241658   20.694687   23.818000 O.3        1 MOL1        -0.5519
      95    H45     25.520507   20.093634   24.546286 H          1 MOL1         0.3769
      96    C28     24.514279   20.577691   21.480267 C.3        1 MOL1         0.1018
      97    H46     25.430219   21.146889   21.277132 H          1 MOL1         0.0783
      98    C29     24.240627   19.612251   20.292553 C.3        1 MOL1         0.1043
      99    H47     23.220039   19.232450   20.398802 H          1 MOL1         0.0783
     100    O24     25.158128   18.490518   20.317847 O.3        1 MOL1        -0.3740
     101    C30     24.319507   20.293304   18.904142 C.3        1 MOL1         0.0138
     102    H48     23.442108   20.942679   18.783019 H          1 MOL1         0.0794
     103    H49     24.256136   19.516170   18.130963 H          1 MOL1         0.0794
     104    O25     25.516374   21.061097   18.730599 O.3        1 MOL1        -0.5486
     105    H50     25.415137   21.887214   19.250362 H          1 MOL1         0.3769
     106    C31     21.355344   13.832189   21.310302 C.3        1 MOL1         0.2972
     107    H51     21.047449   12.797973   21.110548 H          1 MOL1         0.0751
     108    O26     20.222962   14.660118   21.637223 O.3        1 MOL1        -0.3740
     109    C32     22.311262   13.866613   22.531370 C.3        1 MOL1         0.1003
     110    H52     23.162081   13.210721   22.305525 H          1 MOL1         0.0783
     111    O27     21.633523   13.382190   23.701604 O.3        1 MOL1        -0.5519
     112    H53     20.694376   13.677510   23.621742 H          1 MOL1         0.3769
     113    C33     22.859149   15.294283   22.779847 C.3        1 MOL1         0.1053
     114    H54     22.024676   15.934297   23.097324 H          1 MOL1         0.0783
     115    O28     23.858935   15.253107   23.803841 O.3        1 MOL1        -0.5519
     116    H55     23.468759   14.703818   24.519795 H          1 MOL1         0.3769
     117    C34     23.457101   15.883279   21.481217 C.3        1 MOL1         0.1018
     118    H56     24.361106   15.314066   21.227625 H          1 MOL1         0.0783
     119    C35     22.445969   15.781757   20.307364 C.3        1 MOL1         0.1043
     120    H57     21.568302   16.390908   20.554724 H          1 MOL1         0.0783
     121    O29     22.034832   14.397570   20.165306 O.3        1 MOL1        -0.3740
     122    C36     22.983372   16.287292   18.943326 C.3        1 MOL1         0.0138
     123    H58     22.820677   17.371267   18.886450 H          1 MOL1         0.0794
     124    H59     22.388971   15.832438   18.140330 H          1 MOL1         0.0794
     125    O30     24.372035   16.002782   18.742428 O.3        1 MOL1        -0.5486
     126    H60     24.874714   16.735577   19.167156 H          1 MOL1         0.3769
     127    C1      20.814106   18.950133   22.829652 C.3        1 MOL1        -0.1693
     128    H1      20.669366   19.789879   23.520765 H          1 MOL1         0.0829
     129    H2      21.720036   18.409737   23.121520 H          1 MOL1         0.0829
     130    C2      20.674150   19.303285   21.311323 C.3        1 MOL1        -0.1768
     131    H3      20.985939   20.304052   21.000944 H          1 MOL1         0.0829
     132    H4      21.111480   18.573948   20.623343 H          1 MOL1         0.0829
     133    C3      19.149244   19.117029   21.530342 C.3        1 MOL1         0.1211
     134    H5      18.645194   20.000878   21.941533 H          1 MOL1         0.0786
     135    C4      19.547193   18.065797   22.607917 C.3        1 MOL1        -0.1768
     136    H6      18.872325   17.970835   23.465157 H          1 MOL1         0.0829
     137    H7      19.759346   17.069357   22.213791 H          1 MOL1         0.0829
     138    O1      18.462575   18.612895   20.410926 O.3        1 MOL1        -0.5515
     139    H8      17.726172   18.059917   20.749840 H          1 MOL1         0.3773
@<TRIPOS>BOND
    1     1     2    1
    2     1     3    1
    3     1     4    1
    4     4     5    1
    5     4     6    1
    6     6     7    1
    7     4     8    1
    8     8     9    1
    9     8    10    1
   10    10    11    1
   11     8    12    1
   12    12    13    1
   13    12    14    1
   14    14    15    1
   15     1    16    1
   16    14    16    1
   17    14    17    1
   18    17    18    1
   19    17    19    1
   20    17    20    1
   21    20    21    1
   22    22    23    1
   23    22    24    1
   24    22    25    1
   25    25    26    1
   26    25    27    1
   27    27    28    1
   28    25    29    1
   29    29    30    1
   30    29    31    1
   31    31    32    1
   32     3    33    1
   33    29    33    1
   34    33    34    1
   35    33    35    1
   36    35    36    1
   37    22    37    1
   38    35    37    1
   39    35    38    1
   40    38    39    1
   41    38    40    1
   42    38    41    1
   43    41    42    1
   44    43    44    1
   45    43    45    1
   46    43    46    1
   47    46    47    1
   48    46    48    1
   49    48    49    1
   50    46    50    1
   51    50    51    1
   52    50    52    1
   53    52    53    1
   54    24    54    1
   55    50    54    1
   56    54    55    1
   57    54    56    1
   58    56    57    1
   59    43    58    1
   60    56    58    1
   61    56    59    1
   62    59    60    1
   63    59    61    1
   64    59    62    1
   65    62    63    1
   66    64    65    1
   67    64    66    1
   68    64    67    1
   69    67    68    1
   70    67    69    1
   71    69    70    1
   72    67    71    1
   73    71    72    1
   74    71    73    1
   75    73    74    1
   76    45    75    1
   77    71    75    1
   78    75    76    1
   79    75    77    1
   80    77    78    1
   81    64    79    1
   82    77    79    1
   83    77    80    1
   84    80    81    1
   85    80    82    1
   86    80    83    1
   87    83    84    1
   88    85    86    1
   89    85    87    1
   90    85    88    1
   91    88    89    1
   92    88    90    1
   93    90    91    1
   94    88    92    1
   95    92    93    1
   96    92    94    1
   97    94    95    1
   98    66    96    1
   99    92    96    1
  100    96    97    1
  101    96    98    1
  102    98    99    1
  103    85   100    1
  104    98   100    1
  105    98   101    1
  106   101   102    1
  107   101   103    1
  108   101   104    1
  109   104   105    1
  110   106   107    1
  111    12   108    1
  112   106   108    1
  113   106   109    1
  114   109   110    1
  115   109   111    1
  116   111   112    1
  117   109   113    1
  118   113   114    1
  119   113   115    1
  120   115   116    1
  121    87   117    1
  122   113   117    1
  123   117   118    1
  124   117   119    1
  125   119   120    1
  126   106   121    1
  127   119   121    1
  128   119   122    1
  129   122   123    1
  130   122   124    1
  131   122   125    1
  132   125   126    1
  133   127   128    1
  134   127   129    1
  135   127   130    1
  136   130   131    1
  137   130   132    1
  138   130   133    1
  139   133   134    1
  140   127   135    1
  141   133   135    1
  142   135   136    1
  143   135   137    1
  144   133   138    1
  145   138   139    1
@<TRIPOS>SUBSTRUCTURE
       1 MOL1            1 RESIDUE      1      MOL     
       2 MOL1          139 RESIDUE      1      MOL     
@<SCITEGIC>MOL_PROPERTY
feprocess Rank
SciTegic.value.IntegerValue
118

@<SCITEGIC>MOL_PROPERTY
Conf_Id
SciTegic.value.IntegerValue
36

@<SCITEGIC>MOL_PROPERTY
Probability
SciTegic.value.DoubleValue
0.02

@<SCITEGIC>MOL_PROPERTY
G
SciTegic.value.DoubleValue
549.186

@<SCITEGIC>MOL_PROPERTY
E
SciTegic.value.DoubleValue
369.767

@<SCITEGIC>MOL_PROPERTY
-TS
SciTegic.value.DoubleValue
179.418

@<SCITEGIC>MOL_PROPERTY
U+W
SciTegic.value.DoubleValue
247.256

@<SCITEGIC>MOL_PROPERTY
U
SciTegic.value.DoubleValue
283.176

@<SCITEGIC>MOL_PROPERTY
W
SciTegic.value.DoubleValue
-35.920

@<SCITEGIC>MOL_PROPERTY
W(PB)
SciTegic.value.DoubleValue
-41.913

@<SCITEGIC>MOL_PROPERTY
W(SA)
SciTegic.value.DoubleValue
5.993

@<SCITEGIC>MOL_PROPERTY
Valence
SciTegic.value.DoubleValue
155.035

@<SCITEGIC>MOL_PROPERTY
Coulomb
SciTegic.value.DoubleValue
149.872

@<SCITEGIC>MOL_PROPERTY
VdW
SciTegic.value.DoubleValue
-21.730

@<SCITEGIC>MOL_PROPERTY
VdW6
SciTegic.value.DoubleValue
-172.936

@<SCITEGIC>MOL_PROPERTY
VdW12
SciTegic.value.DoubleValue
151.206

@<SCITEGIC>MOL_PROPERTY
Bond
SciTegic.value.DoubleValue
4.887

@<SCITEGIC>MOL_PROPERTY
Angle
SciTegic.value.DoubleValue
12.652

@<SCITEGIC>MOL_PROPERTY
Pdih
SciTegic.value.DoubleValue
137.496

@<SCITEGIC>MOL_PROPERTY
Idih
SciTegic.value.DoubleValue
0.000

@<SCITEGIC>MOL_PROPERTY
Tether
SciTegic.value.DoubleValue
0.000

@<TRIPOS>MOLECULE
CD_guest-s16_fast_vm2_rndm.mol2 : feprocess host+ligand conformer 119
         139         145           2
SMALL
USER_CHARGES
 
@<TRIPOS>ATOM
       1    C1      16.142488   15.056520   21.175067 C.3        1 MOL1         0.2972
       2    H1      15.093634   14.852702   20.924271 H          1 MOL1         0.0751
       3    O1      16.372738   16.465643   21.383984 O.3        1 MOL1        -0.3740
       4    C2      16.518265   14.327701   22.489582 C.3        1 MOL1         0.1003
       5    H2      16.372517   13.251384   22.330189 H          1 MOL1         0.0783
       6    O2      15.670588   14.773428   23.559950 O.3        1 MOL1        -0.5519
       7    H3      15.461041   15.720986   23.375730 H          1 MOL1         0.3769
       8    C3      18.005420   14.567162   22.844685 C.3        1 MOL1         0.1053
       9    H4      18.119746   15.628325   23.097672 H          1 MOL1         0.0783
      10    O3      18.373927   13.766159   23.971627 O.3        1 MOL1        -0.5519
      11    H5      17.637527   13.874673   24.614227 H          1 MOL1         0.3769
      12    C4      18.929114   14.249056   21.642753 C.3        1 MOL1         0.1018
      13    H6      18.983249   13.160028   21.514097 H          1 MOL1         0.0783
      14    C5      18.426596   14.899848   20.325872 C.3        1 MOL1         0.1043
      15    H7      18.535789   15.983768   20.431770 H          1 MOL1         0.0783
      16    O4      17.024006   14.589798   20.128969 O.3        1 MOL1        -0.3740
      17    C6      19.221184   14.492184   19.056827 C.3        1 MOL1         0.0138
      18    H8      20.035448   15.213011   18.911280 H          1 MOL1         0.0794
      19    H9      18.560085   14.581359   18.184457 H          1 MOL1         0.0794
      20    O5      19.764679   13.168656   19.126173 O.3        1 MOL1        -0.5486
      21    H10     20.530182   13.201343   19.745847 H          1 MOL1         0.3769
      22    C7      15.061008   20.254216   20.221076 C.3        1 MOL1         0.2972
      23    H11     14.519218   21.096373   19.771807 H          1 MOL1         0.0751
      24    O6      16.301871   20.686202   20.820610 O.3        1 MOL1        -0.3740
      25    C8      14.188535   19.532930   21.285015 C.3        1 MOL1         0.1003
      26    H12     13.295363   19.159127   20.767653 H          1 MOL1         0.0783
      27    O7      13.775706   20.422662   22.333048 O.3        1 MOL1        -0.5519
      28    H13     14.598544   20.771315   22.760587 H          1 MOL1         0.3769
      29    C9      14.939546   18.312613   21.872041 C.3        1 MOL1         0.1053
      30    H14     15.805871   18.684671   22.436178 H          1 MOL1         0.0783
      31    O8      14.068746   17.585488   22.745733 O.3        1 MOL1        -0.5519
      32    H15     13.628191   18.268911   23.298039 H          1 MOL1         0.3769
      33    C10     15.454298   17.377154   20.748830 C.3        1 MOL1         0.1018
      34    H16     14.591798   16.855902   20.313289 H          1 MOL1         0.0783
      35    C11     16.204525   18.167551   19.636574 C.3        1 MOL1         0.1043
      36    H17     17.135672   18.558099   20.063057 H          1 MOL1         0.0783
      37    O9      15.382055   19.279738   19.205016 O.3        1 MOL1        -0.3740
      38    C12     16.591420   17.344986   18.380451 C.3        1 MOL1         0.0138
      39    H18     17.583626   16.907465   18.539330 H          1 MOL1         0.0794
      40    H19     16.684884   18.032984   17.529562 H          1 MOL1         0.0794
      41    O10     15.654619   16.308056   18.069679 O.3        1 MOL1        -0.5486
      42    H20     15.888526   15.537815   18.637065 H          1 MOL1         0.3769
      43    C13     18.421411   24.049151   21.994435 C.3        1 MOL1         0.2972
      44    H21     18.756339   25.049993   22.294048 H          1 MOL1         0.0751
      45    O11     19.531284   23.155532   21.763778 O.3        1 MOL1        -0.3740
      46    C14     17.506579   23.441493   23.087489 C.3        1 MOL1         0.1003
      47    H22     16.622354   24.087233   23.168372 H          1 MOL1         0.0783
      48    O12     18.163516   23.394491   24.362993 O.3        1 MOL1        -0.5519
      49    H23     19.131531   23.266788   24.196884 H          1 MOL1         0.3769
      50    C15     17.023060   22.033311   22.673100 C.3        1 MOL1         0.1053
      51    H24     17.894888   21.369961   22.634730 H          1 MOL1         0.0783
      52    O13     16.094675   21.552065   23.649618 O.3        1 MOL1        -0.5519
      53    H25     16.509780   21.766820   24.515458 H          1 MOL1         0.3769
      54    C16     16.365171   22.056106   21.270285 C.3        1 MOL1         0.1018
      55    H26     15.366220   22.502630   21.363700 H          1 MOL1         0.0783
      56    C17     17.205964   22.853231   20.227975 C.3        1 MOL1         0.1043
      57    H27     18.089824   22.256019   19.971854 H          1 MOL1         0.0783
      58    O14     17.644142   24.121988   20.780816 O.3        1 MOL1        -0.3740
      59    C18     16.449085   23.132545   18.907455 C.3        1 MOL1         0.0138
      60    H28     16.345801   22.186883   18.358239 H          1 MOL1         0.0794
      61    H29     17.060184   23.803532   18.288990 H          1 MOL1         0.0794
      62    O15     15.155529   23.705691   19.135742 O.3        1 MOL1        -0.5486
      63    H30     14.772120   23.934196   18.260839 H          1 MOL1         0.3769
      64    C19     23.652070   22.799988   21.604673 C.3        1 MOL1         0.2972
      65    H31     24.740959   22.935290   21.576792 H          1 MOL1         0.0751
      66    O16     23.273662   21.438421   21.319278 O.3        1 MOL1        -0.3740
      67    C20     23.093283   23.192256   22.995507 C.3        1 MOL1         0.1003
      68    H32     23.291394   24.262767   23.136771 H          1 MOL1         0.0783
      69    O17     23.733262   22.458514   24.050531 O.3        1 MOL1        -0.5519
      70    H33     24.188936   21.687680   23.631911 H          1 MOL1         0.3769
      71    C21     21.562413   22.983716   23.042017 C.3        1 MOL1         0.1053
      72    H34     21.363077   21.908567   22.951433 H          1 MOL1         0.0783
      73    O18     21.065683   23.463736   24.293437 O.3        1 MOL1        -0.5519
      74    H35     21.698082   23.110836   24.959982 H          1 MOL1         0.3769
      75    C22     20.857628   23.715055   21.871020 C.3        1 MOL1         0.1018
      76    H36     20.838640   24.789190   22.094515 H          1 MOL1         0.0783
      77    C23     21.567031   23.484663   20.504580 C.3        1 MOL1         0.1043
      78    H37     21.359323   22.458602   20.184356 H          1 MOL1         0.0783
      79    O19     23.004467   23.651008   20.633007 O.3        1 MOL1        -0.3740
      80    C24     21.056034   24.410991   19.374134 C.3        1 MOL1         0.0138
      81    H38     20.039883   24.099019   19.096856 H          1 MOL1         0.0794
      82    H39     21.692342   24.263002   18.491530 H          1 MOL1         0.0794
      83    O20     21.053148   25.793758   19.749392 O.3        1 MOL1        -0.5486
      84    H40     20.229479   25.961965   20.254454 H          1 MOL1         0.3769
      85    C25     24.778705   17.635070   20.647518 C.3        1 MOL1         0.2972
      86    H41     25.352938   16.760549   20.315742 H          1 MOL1         0.0751
      87    O21     23.515409   17.248391   21.232113 O.3        1 MOL1        -0.3740
      88    C26     25.582924   18.460765   21.686258 C.3        1 MOL1         0.1003
      89    H42     26.512845   18.776607   21.195699 H          1 MOL1         0.0783
      90    O22     25.908936   17.673490   22.842605 O.3        1 MOL1        -0.5519
      91    H43     25.060259   17.307438   23.200397 H          1 MOL1         0.3769
      92    C27     24.811885   19.737196   22.106347 C.3        1 MOL1         0.1053
      93    H44     23.940662   19.424075   22.693919 H          1 MOL1         0.0783
      94    O23     25.664506   20.553479   22.913450 O.3        1 MOL1        -0.5519
      95    H45     26.110790   19.928183   23.528158 H          1 MOL1         0.3769
      96    C28     24.310345   20.541894   20.876765 C.3        1 MOL1         0.1018
      97    H46     25.154852   21.081901   20.430052 H          1 MOL1         0.0783
      98    C29     23.657731   19.633560   19.800279 C.3        1 MOL1         0.1043
      99    H47     22.704778   19.269042   20.196730 H          1 MOL1         0.0783
     100    O24     24.510198   18.498598   19.522804 O.3        1 MOL1        -0.3740
     101    C30     23.338133   20.362891   18.471471 C.3        1 MOL1         0.0138
     102    H48     22.448174   20.987984   18.621771 H          1 MOL1         0.0794
     103    H49     23.079126   19.610099   17.715194 H          1 MOL1         0.0794
     104    O25     24.422260   21.175443   18.006064 O.3        1 MOL1        -0.5486
     105    H50     24.439590   21.985853   18.559830 H          1 MOL1         0.3769
     106    C31     21.280366   13.908078   22.220858 C.3        1 MOL1         0.2972
     107    H51     20.899426   12.915475   22.493987 H          1 MOL1         0.0751
     108    O26     20.211538   14.829449   21.938151 O.3        1 MOL1        -0.3740
     109    C32     22.116474   14.492395   23.384486 C.3        1 MOL1         0.1003
     110    H52     22.970169   13.822684   23.551259 H          1 MOL1         0.0783
     111    O27     21.325490   14.564103   24.581877 O.3        1 MOL1        -0.5519
     112    H53     20.378019   14.541510   24.301590 H          1 MOL1         0.3769
     113    C33     22.665898   15.889498   23.012785 C.3        1 MOL1         0.1053
     114    H54     21.812906   16.573797   22.933404 H          1 MOL1         0.0783
     115    O28     23.554848   16.344052   24.037715 O.3        1 MOL1        -0.5519
     116    H55     23.059519   16.215082   24.877082 H          1 MOL1         0.3769
     117    C34     23.404276   15.870889   21.651692 C.3        1 MOL1         0.1018
     118    H56     24.388924   15.407838   21.801386 H          1 MOL1         0.0783
     119    C35     22.617732   15.102513   20.548258 C.3        1 MOL1         0.1043
     120    H57     21.764674   15.724244   20.253222 H          1 MOL1         0.0783
     121    O29     22.122267   13.833630   21.051588 O.3        1 MOL1        -0.3740
     122    C36     23.443704   14.827660   19.269004 C.3        1 MOL1         0.0138
     123    H58     23.596769   15.778237   18.740315 H          1 MOL1         0.0794
     124    H59     22.857087   14.177597   18.605894 H          1 MOL1         0.0794
     125    O30     24.709944   14.225498   19.564091 O.3        1 MOL1        -0.5486
     126    H60     25.139463   14.000485   18.710034 H          1 MOL1         0.3769
     127    C1      19.969425   18.314191   20.775134 C.3        1 MOL1        -0.1693
     128    H1      19.355154   18.011449   19.922135 H          1 MOL1         0.0829
     129    H2      20.953637   17.846164   20.672467 H          1 MOL1         0.0829
     130    C2      19.324471   18.177558   22.195632 C.3        1 MOL1        -0.1768
     131    H3      18.237487   18.313148   22.223854 H          1 MOL1         0.0829
     132    H4      19.579932   17.279485   22.763821 H          1 MOL1         0.0829
     133    C3      20.130421   19.453363   22.578260 C.3        1 MOL1         0.1211
     134    H5      19.626898   20.124686   23.284229 H          1 MOL1         0.0786
     135    C4      19.991730   19.846295   21.076511 C.3        1 MOL1        -0.1768
     136    H6      19.059749   20.365335   20.832207 H          1 MOL1         0.0829
     137    H7      20.823891   20.410490   20.653390 H          1 MOL1         0.0829
     138    O1      21.449683   19.209913   23.010970 O.3        1 MOL1        -0.5515
     139    H8      21.855150   18.600462   22.364018 H          1 MOL1         0.3773
@<TRIPOS>BOND
    1     1     2    1
    2     1     3    1
    3     1     4    1
    4     4     5    1
    5     4     6    1
    6     6     7    1
    7     4     8    1
    8     8     9    1
    9     8    10    1
   10    10    11    1
   11     8    12    1
   12    12    13    1
   13    12    14    1
   14    14    15    1
   15     1    16    1
   16    14    16    1
   17    14    17    1
   18    17    18    1
   19    17    19    1
   20    17    20    1
   21    20    21    1
   22    22    23    1
   23    22    24    1
   24    22    25    1
   25    25    26    1
   26    25    27    1
   27    27    28    1
   28    25    29    1
   29    29    30    1
   30    29    31    1
   31    31    32    1
   32     3    33    1
   33    29    33    1
   34    33    34    1
   35    33    35    1
   36    35    36    1
   37    22    37    1
   38    35    37    1
   39    35    38    1
   40    38    39    1
   41    38    40    1
   42    38    41    1
   43    41    42    1
   44    43    44    1
   45    43    45    1
   46    43    46    1
   47    46    47    1
   48    46    48    1
   49    48    49    1
   50    46    50    1
   51    50    51    1
   52    50    52    1
   53    52    53    1
   54    24    54    1
   55    50    54    1
   56    54    55    1
   57    54    56    1
   58    56    57    1
   59    43    58    1
   60    56    58    1
   61    56    59    1
   62    59    60    1
   63    59    61    1
   64    59    62    1
   65    62    63    1
   66    64    65    1
   67    64    66    1
   68    64    67    1
   69    67    68    1
   70    67    69    1
   71    69    70    1
   72    67    71    1
   73    71    72    1
   74    71    73    1
   75    73    74    1
   76    45    75    1
   77    71    75    1
   78    75    76    1
   79    75    77    1
   80    77    78    1
   81    64    79    1
   82    77    79    1
   83    77    80    1
   84    80    81    1
   85    80    82    1
   86    80    83    1
   87    83    84    1
   88    85    86    1
   89    85    87    1
   90    85    88    1
   91    88    89    1
   92    88    90    1
   93    90    91    1
   94    88    92    1
   95    92    93    1
   96    92    94    1
   97    94    95    1
   98    66    96    1
   99    92    96    1
  100    96    97    1
  101    96    98    1
  102    98    99    1
  103    85   100    1
  104    98   100    1
  105    98   101    1
  106   101   102    1
  107   101   103    1
  108   101   104    1
  109   104   105    1
  110   106   107    1
  111    12   108    1
  112   106   108    1
  113   106   109    1
  114   109   110    1
  115   109   111    1
  116   111   112    1
  117   109   113    1
  118   113   114    1
  119   113   115    1
  120   115   116    1
  121    87   117    1
  122   113   117    1
  123   117   118    1
  124   117   119    1
  125   119   120    1
  126   106   121    1
  127   119   121    1
  128   119   122    1
  129   122   123    1
  130   122   124    1
  131   122   125    1
  132   125   126    1
  133   127   128    1
  134   127   129    1
  135   127   130    1
  136   130   131    1
  137   130   132    1
  138   130   133    1
  139   133   134    1
  140   127   135    1
  141   133   135    1
  142   135   136    1
  143   135   137    1
  144   133   138    1
  145   138   139    1
@<TRIPOS>SUBSTRUCTURE
       1 MOL1            1 RESIDUE      1      MOL     
       2 MOL1          139 RESIDUE      1      MOL     
@<SCITEGIC>MOL_PROPERTY
feprocess Rank
SciTegic.value.IntegerValue
119

@<SCITEGIC>MOL_PROPERTY
Conf_Id
SciTegic.value.IntegerValue
305

@<SCITEGIC>MOL_PROPERTY
Probability
SciTegic.value.DoubleValue
0.02

@<SCITEGIC>MOL_PROPERTY
G
SciTegic.value.DoubleValue
549.194

@<SCITEGIC>MOL_PROPERTY
E
SciTegic.value.DoubleValue
370.786

@<SCITEGIC>MOL_PROPERTY
-TS
SciTegic.value.DoubleValue
178.407

@<SCITEGIC>MOL_PROPERTY
U+W
SciTegic.value.DoubleValue
248.275

@<SCITEGIC>MOL_PROPERTY
U
SciTegic.value.DoubleValue
286.826

@<SCITEGIC>MOL_PROPERTY
W
SciTegic.value.DoubleValue
-38.551

@<SCITEGIC>MOL_PROPERTY
W(PB)
SciTegic.value.DoubleValue
-44.573

@<SCITEGIC>MOL_PROPERTY
W(SA)
SciTegic.value.DoubleValue
6.023

@<SCITEGIC>MOL_PROPERTY
Valence
SciTegic.value.DoubleValue
155.088

@<SCITEGIC>MOL_PROPERTY
Coulomb
SciTegic.value.DoubleValue
154.389

@<SCITEGIC>MOL_PROPERTY
VdW
SciTegic.value.DoubleValue
-22.651

@<SCITEGIC>MOL_PROPERTY
VdW6
SciTegic.value.DoubleValue
-171.389

@<SCITEGIC>MOL_PROPERTY
VdW12
SciTegic.value.DoubleValue
148.737

@<SCITEGIC>MOL_PROPERTY
Bond
SciTegic.value.DoubleValue
4.702

@<SCITEGIC>MOL_PROPERTY
Angle
SciTegic.value.DoubleValue
11.892

@<SCITEGIC>MOL_PROPERTY
Pdih
SciTegic.value.DoubleValue
138.494

@<SCITEGIC>MOL_PROPERTY
Idih
SciTegic.value.DoubleValue
0.000

@<SCITEGIC>MOL_PROPERTY
Tether
SciTegic.value.DoubleValue
0.000

@<TRIPOS>MOLECULE
CD_guest-s16_fast_vm2_rndm.mol2 : feprocess host+ligand conformer 120
         139         145           2
SMALL
USER_CHARGES
 
@<TRIPOS>ATOM
       1    C1      16.170370   15.053781   21.360366 C.3        1 MOL1         0.2972
       2    H1      15.078576   14.945569   21.327194 H          1 MOL1         0.0751
       3    O1      16.561455   16.429464   21.538949 O.3        1 MOL1        -0.3740
       4    C2      16.741678   14.230526   22.539820 C.3        1 MOL1         0.1003
       5    H2      16.486812   13.177155   22.364897 H          1 MOL1         0.0783
       6    O2      16.157429   14.663685   23.778799 O.3        1 MOL1        -0.5519
       7    H3      15.855401   15.595573   23.642119 H          1 MOL1         0.3769
       8    C3      18.282381   14.348514   22.597409 C.3        1 MOL1         0.1053
       9    H4      18.526403   15.380948   22.876627 H          1 MOL1         0.0783
      10    O3      18.800310   13.454261   23.588139 O.3        1 MOL1        -0.5519
      11    H5      18.230648   13.592941   24.377426 H          1 MOL1         0.3769
      12    C4      18.938700   14.044558   21.227081 C.3        1 MOL1         0.1018
      13    H6      18.964863   12.956183   21.084612 H          1 MOL1         0.0783
      14    C5      18.210049   14.731423   20.036858 C.3        1 MOL1         0.1043
      15    H7      18.453874   15.799800   20.077527 H          1 MOL1         0.0783
      16    O4      16.771045   14.569383   20.141717 O.3        1 MOL1        -0.3740
      17    C6      18.658115   14.210741   18.650356 C.3        1 MOL1         0.0138
      18    H8      19.680217   14.562616   18.457509 H          1 MOL1         0.0794
      19    H9      18.011158   14.655679   17.882336 H          1 MOL1         0.0794
      20    O5      18.613297   12.780677   18.571972 O.3        1 MOL1        -0.5486
      21    H10     18.849714   12.525056   17.653727 H          1 MOL1         0.3769
      22    C7      14.933405   20.291259   21.082688 C.3        1 MOL1         0.2972
      23    H11     14.242964   21.095060   20.796147 H          1 MOL1         0.0751
      24    O6      16.156628   20.816899   21.632492 O.3        1 MOL1        -0.3740
      25    C8      14.291625   19.391113   22.172640 C.3        1 MOL1         0.1003
      26    H12     13.335076   19.025789   21.776959 H          1 MOL1         0.0783
      27    O7      14.052554   20.148696   23.370646 O.3        1 MOL1        -0.5519
      28    H13     14.836860   20.737529   23.500612 H          1 MOL1         0.3769
      29    C9      15.180657   18.159700   22.486282 C.3        1 MOL1         0.1053
      30    H14     16.099265   18.514215   22.974055 H          1 MOL1         0.0783
      31    O8      14.479448   17.268848   23.360550 O.3        1 MOL1        -0.5519
      32    H15     14.095575   17.844654   24.058982 H          1 MOL1         0.3769
      33    C10     15.579578   17.421747   21.185793 C.3        1 MOL1         0.1018
      34    H16     14.681427   16.970656   20.743298 H          1 MOL1         0.0783
      35    C11     16.207011   18.407921   20.165064 C.3        1 MOL1         0.1043
      36    H17     17.127919   18.822415   20.595261 H          1 MOL1         0.0783
      37    O9      15.258750   19.475884   19.934337 O.3        1 MOL1        -0.3740
      38    C12     16.579891   17.784447   18.795366 C.3        1 MOL1         0.0138
      39    H18     17.601748   17.391365   18.856862 H          1 MOL1         0.0794
      40    H19     16.594962   18.583202   18.041950 H          1 MOL1         0.0794
      41    O10     15.686127   16.742381   18.386055 O.3        1 MOL1        -0.5486
      42    H20     15.902951   15.945648   18.924663 H          1 MOL1         0.3769
      43    C13     18.516280   24.215330   21.598958 C.3        1 MOL1         0.2972
      44    H21     18.924401   25.233945   21.571381 H          1 MOL1         0.0751
      45    O11     19.565759   23.228509   21.625417 O.3        1 MOL1        -0.3740
      46    C14     17.648654   24.037627   22.868106 C.3        1 MOL1         0.1003
      47    H22     16.829146   24.766255   22.816367 H          1 MOL1         0.0783
      48    O12     18.436268   24.285946   24.043204 O.3        1 MOL1        -0.5519
      49    H23     19.370695   24.074727   23.804565 H          1 MOL1         0.3769
      50    C15     17.030105   22.621653   22.921730 C.3        1 MOL1         0.1053
      51    H24     17.846803   21.910587   23.090563 H          1 MOL1         0.0783
      52    O13     16.099521   22.540376   24.006779 O.3        1 MOL1        -0.5519
      53    H25     16.568016   22.935863   24.775128 H          1 MOL1         0.3769
      54    C16     16.316493   22.250884   21.597132 C.3        1 MOL1         0.1018
      55    H26     15.349019   22.769704   21.576346 H          1 MOL1         0.0783
      56    C17     17.148729   22.620865   20.333542 C.3        1 MOL1         0.1043
      57    H27     17.976267   21.904507   20.262798 H          1 MOL1         0.0783
      58    O14     17.688385   23.963656   20.446541 O.3        1 MOL1        -0.3740
      59    C18     16.354746   22.548089   19.006505 C.3        1 MOL1         0.0138
      60    H28     16.196337   21.494590   18.745154 H          1 MOL1         0.0794
      61    H29     16.967448   22.987244   18.207710 H          1 MOL1         0.0794
      62    O15     15.094913   23.225366   19.093149 O.3        1 MOL1        -0.5486
      63    H30     14.676015   23.189462   18.205730 H          1 MOL1         0.3769
      64    C19     23.563417   22.636395   20.600494 C.3        1 MOL1         0.2972
      65    H31     24.583819   22.708507   20.202678 H          1 MOL1         0.0751
      66    O16     23.289007   21.317714   21.113985 O.3        1 MOL1        -0.3740
      67    C20     23.308008   23.698600   21.705714 C.3        1 MOL1         0.1003
      68    H32     23.421413   24.683892   21.235075 H          1 MOL1         0.0783
      69    O17     24.249786   23.593370   22.783458 O.3        1 MOL1        -0.5519
      70    H33     24.118906   22.703157   23.197379 H          1 MOL1         0.3769
      71    C21     21.856511   23.592472   22.236082 C.3        1 MOL1         0.1053
      72    H34     21.752754   22.628055   22.750894 H          1 MOL1         0.0783
      73    O18     21.596705   24.659541   23.154429 O.3        1 MOL1        -0.5519
      74    H35     22.388047   24.698395   23.736183 H          1 MOL1         0.3769
      75    C22     20.832246   23.640814   21.073431 C.3        1 MOL1         0.1018
      76    H36     20.798978   24.668583   20.688753 H          1 MOL1         0.0783
      77    C23     21.210178   22.674166   19.913262 C.3        1 MOL1         0.1043
      78    H37     21.079410   21.643627   20.267115 H          1 MOL1         0.0783
      79    O19     22.600139   22.886140   19.552320 O.3        1 MOL1        -0.3740
      80    C24     20.349495   22.815900   18.630472 C.3        1 MOL1         0.0138
      81    H38     19.496676   22.130819   18.703879 H          1 MOL1         0.0794
      82    H39     20.946775   22.480053   17.772273 H          1 MOL1         0.0794
      83    O20     19.877049   24.149127   18.404636 O.3        1 MOL1        -0.5486
      84    H40     19.126377   24.297468   19.026254 H          1 MOL1         0.3769
      85    C25     24.714244   17.692664   22.388052 C.3        1 MOL1         0.2972
      86    H41     25.294434   16.840047   22.763662 H          1 MOL1         0.0751
      87    O21     23.411217   17.267469   21.938366 O.3        1 MOL1        -0.3740
      88    C26     24.563393   18.748654   23.512785 C.3        1 MOL1         0.1003
      89    H42     25.576641   19.041786   23.816501 H          1 MOL1         0.0783
      90    O22     23.869266   18.203259   24.645027 O.3        1 MOL1        -0.5519
      91    H43     22.940690   18.035298   24.350018 H          1 MOL1         0.3769
      92    C27     23.826745   20.013012   23.021412 C.3        1 MOL1         0.1053
      93    H44     22.781787   19.739616   22.854914 H          1 MOL1         0.0783
      94    O23     23.894621   21.019840   24.036212 O.3        1 MOL1        -0.5519
      95    H45     23.673298   20.552251   24.872111 H          1 MOL1         0.3769
      96    C28     24.375679   20.558650   21.681775 C.3        1 MOL1         0.1018
      97    H46     25.263737   21.174538   21.875587 H          1 MOL1         0.0783
      98    C29     24.699957   19.435817   20.656209 C.3        1 MOL1         0.1043
      99    H47     23.742886   19.078917   20.262692 H          1 MOL1         0.0783
     100    O24     25.391861   18.320021   21.276454 O.3        1 MOL1        -0.3740
     101    C30     25.533796   19.928346   19.449196 C.3        1 MOL1         0.0138
     102    H48     24.901456   20.581183   18.832409 H          1 MOL1         0.0794
     103    H49     25.807256   19.062678   18.831232 H          1 MOL1         0.0794
     104    O25     26.708952   20.637384   19.859883 O.3        1 MOL1        -0.5486
     105    H50     27.226267   20.850941   19.052693 H          1 MOL1         0.3769
     106    C31     21.352794   13.847188   20.771684 C.3        1 MOL1         0.2972
     107    H51     21.016967   12.891159   20.349725 H          1 MOL1         0.0751
     108    O26     20.257524   14.615253   21.302756 O.3        1 MOL1        -0.3740
     109    C32     22.350893   13.620882   21.932936 C.3        1 MOL1         0.1003
     110    H52     23.209618   13.072621   21.524164 H          1 MOL1         0.0783
     111    O27     21.743428   12.840984   22.976667 O.3        1 MOL1        -0.5519
     112    H53     20.838116   13.211804   23.130773 H          1 MOL1         0.3769
     113    C33     22.870147   14.968601   22.500841 C.3        1 MOL1         0.1053
     114    H54     22.045054   15.454449   23.038635 H          1 MOL1         0.0783
     115    O28     23.942699   14.694647   23.407544 O.3        1 MOL1        -0.5519
     116    H55     23.598947   14.001661   24.013028 H          1 MOL1         0.3769
     117    C34     23.351292   15.934521   21.381381 C.3        1 MOL1         0.1018
     118    H56     24.337376   15.596229   21.037907 H          1 MOL1         0.0783
     119    C35     22.381522   15.981582   20.164178 C.3        1 MOL1         0.1043
     120    H57     21.472084   16.512649   20.464462 H          1 MOL1         0.0783
     121    O29     22.027791   14.635320   19.768028 O.3        1 MOL1        -0.3740
     122    C36     22.936072   16.725756   18.921836 C.3        1 MOL1         0.0138
     123    H58     22.656909   17.783504   18.997942 H          1 MOL1         0.0794
     124    H59     22.432917   16.335563   18.027065 H          1 MOL1         0.0794
     125    O30     24.357208   16.605702   18.775055 O.3        1 MOL1        -0.5486
     126    H60     24.773597   17.039525   19.554522 H          1 MOL1         0.3769
     127    C1      20.399385   18.922973   21.338215 C.3        1 MOL1        -0.1693
     128    H1      20.061344   18.953167   20.296475 H          1 MOL1         0.0829
     129    H2      21.492048   18.939102   21.346685 H          1 MOL1         0.0829
     130    C2      19.754696   17.817003   22.232857 C.3        1 MOL1        -0.1768
     131    H3      18.754369   17.517535   21.918022 H          1 MOL1         0.0829
     132    H4      20.356271   16.922419   22.406040 H          1 MOL1         0.0829
     133    C3      19.768446   18.839139   23.403106 C.3        1 MOL1         0.1211
     134    H5      18.881320   18.798973   24.047764 H          1 MOL1         0.0786
     135    C4      19.720715   19.943388   22.303924 C.3        1 MOL1        -0.1768
     136    H6      20.291040   20.849805   22.523187 H          1 MOL1         0.0829
     137    H7      18.709465   20.223410   21.998146 H          1 MOL1         0.0829
     138    O1      20.937632   18.812318   24.195400 O.3        1 MOL1        -0.5515
     139    H8      20.886153   19.577962   24.802043 H          1 MOL1         0.3773
@<TRIPOS>BOND
    1     1     2    1
    2     1     3    1
    3     1     4    1
    4     4     5    1
    5     4     6    1
    6     6     7    1
    7     4     8    1
    8     8     9    1
    9     8    10    1
   10    10    11    1
   11     8    12    1
   12    12    13    1
   13    12    14    1
   14    14    15    1
   15     1    16    1
   16    14    16    1
   17    14    17    1
   18    17    18    1
   19    17    19    1
   20    17    20    1
   21    20    21    1
   22    22    23    1
   23    22    24    1
   24    22    25    1
   25    25    26    1
   26    25    27    1
   27    27    28    1
   28    25    29    1
   29    29    30    1
   30    29    31    1
   31    31    32    1
   32     3    33    1
   33    29    33    1
   34    33    34    1
   35    33    35    1
   36    35    36    1
   37    22    37    1
   38    35    37    1
   39    35    38    1
   40    38    39    1
   41    38    40    1
   42    38    41    1
   43    41    42    1
   44    43    44    1
   45    43    45    1
   46    43    46    1
   47    46    47    1
   48    46    48    1
   49    48    49    1
   50    46    50    1
   51    50    51    1
   52    50    52    1
   53    52    53    1
   54    24    54    1
   55    50    54    1
   56    54    55    1
   57    54    56    1
   58    56    57    1
   59    43    58    1
   60    56    58    1
   61    56    59    1
   62    59    60    1
   63    59    61    1
   64    59    62    1
   65    62    63    1
   66    64    65    1
   67    64    66    1
   68    64    67    1
   69    67    68    1
   70    67    69    1
   71    69    70    1
   72    67    71    1
   73    71    72    1
   74    71    73    1
   75    73    74    1
   76    45    75    1
   77    71    75    1
   78    75    76    1
   79    75    77    1
   80    77    78    1
   81    64    79    1
   82    77    79    1
   83    77    80    1
   84    80    81    1
   85    80    82    1
   86    80    83    1
   87    83    84    1
   88    85    86    1
   89    85    87    1
   90    85    88    1
   91    88    89    1
   92    88    90    1
   93    90    91    1
   94    88    92    1
   95    92    93    1
   96    92    94    1
   97    94    95    1
   98    66    96    1
   99    92    96    1
  100    96    97    1
  101    96    98    1
  102    98    99    1
  103    85   100    1
  104    98   100    1
  105    98   101    1
  106   101   102    1
  107   101   103    1
  108   101   104    1
  109   104   105    1
  110   106   107    1
  111    12   108    1
  112   106   108    1
  113   106   109    1
  114   109   110    1
  115   109   111    1
  116   111   112    1
  117   109   113    1
  118   113   114    1
  119   113   115    1
  120   115   116    1
  121    87   117    1
  122   113   117    1
  123   117   118    1
  124   117   119    1
  125   119   120    1
  126   106   121    1
  127   119   121    1
  128   119   122    1
  129   122   123    1
  130   122   124    1
  131   122   125    1
  132   125   126    1
  133   127   128    1
  134   127   129    1
  135   127   130    1
  136   130   131    1
  137   130   132    1
  138   130   133    1
  139   133   134    1
  140   127   135    1
  141   133   135    1
  142   135   136    1
  143   135   137    1
  144   133   138    1
  145   138   139    1
@<TRIPOS>SUBSTRUCTURE
       1 MOL1            1 RESIDUE      1      MOL     
       2 MOL1          139 RESIDUE      1      MOL     
@<SCITEGIC>MOL_PROPERTY
feprocess Rank
SciTegic.value.IntegerValue
120

@<SCITEGIC>MOL_PROPERTY
Conf_Id
SciTegic.value.IntegerValue
233

@<SCITEGIC>MOL_PROPERTY
Probability
SciTegic.value.DoubleValue
0.02

@<SCITEGIC>MOL_PROPERTY
G
SciTegic.value.DoubleValue
549.258

@<SCITEGIC>MOL_PROPERTY
E
SciTegic.value.DoubleValue
370.766

@<SCITEGIC>MOL_PROPERTY
-TS
SciTegic.value.DoubleValue
178.492

@<SCITEGIC>MOL_PROPERTY
U+W
SciTegic.value.DoubleValue
248.255

@<SCITEGIC>MOL_PROPERTY
U
SciTegic.value.DoubleValue
287.673

@<SCITEGIC>MOL_PROPERTY
W
SciTegic.value.DoubleValue
-39.418

@<SCITEGIC>MOL_PROPERTY
W(PB)
SciTegic.value.DoubleValue
-45.385

@<SCITEGIC>MOL_PROPERTY
W(SA)
SciTegic.value.DoubleValue
5.968

@<SCITEGIC>MOL_PROPERTY
Valence
SciTegic.value.DoubleValue
153.755

@<SCITEGIC>MOL_PROPERTY
Coulomb
SciTegic.value.DoubleValue
155.889

@<SCITEGIC>MOL_PROPERTY
VdW
SciTegic.value.DoubleValue
-21.972

@<SCITEGIC>MOL_PROPERTY
VdW6
SciTegic.value.DoubleValue
-169.082

@<SCITEGIC>MOL_PROPERTY
VdW12
SciTegic.value.DoubleValue
147.110

@<SCITEGIC>MOL_PROPERTY
Bond
SciTegic.value.DoubleValue
4.708

@<SCITEGIC>MOL_PROPERTY
Angle
SciTegic.value.DoubleValue
12.187

@<SCITEGIC>MOL_PROPERTY
Pdih
SciTegic.value.DoubleValue
136.860

@<SCITEGIC>MOL_PROPERTY
Idih
SciTegic.value.DoubleValue
0.000

@<SCITEGIC>MOL_PROPERTY
Tether
SciTegic.value.DoubleValue
0.000

@<TRIPOS>MOLECULE
CD_guest-s16_fast_vm2_rndm.mol2 : feprocess host+ligand conformer 121
         139         145           2
SMALL
USER_CHARGES
 
@<TRIPOS>ATOM
       1    C1      16.132212   15.209278   21.583572 C.3        1 MOL1         0.2972
       2    H1      15.038238   15.161059   21.504126 H          1 MOL1         0.0751
       3    O1      16.614656   16.554960   21.413934 O.3        1 MOL1        -0.3740
       4    C2      16.572860   14.686145   22.967579 C.3        1 MOL1         0.1003
       5    H2      16.243661   13.641784   23.046036 H          1 MOL1         0.0783
       6    O2      15.958870   15.458950   24.011659 O.3        1 MOL1        -0.5519
       7    H3      15.628157   16.290287   23.592361 H          1 MOL1         0.3769
       8    C3      18.110765   14.714876   23.103965 C.3        1 MOL1         0.1053
       9    H4      18.420508   15.767011   23.146282 H          1 MOL1         0.0783
      10    O3      18.482210   14.059582   24.321503 O.3        1 MOL1        -0.5519
      11    H5      17.895894   14.448653   25.007594 H          1 MOL1         0.3769
      12    C4      18.831665   14.046072   21.902060 C.3        1 MOL1         0.1018
      13    H6      18.801212   12.958411   22.046691 H          1 MOL1         0.0783
      14    C5      18.201836   14.420530   20.518212 C.3        1 MOL1         0.1043
      15    H7      18.529759   15.436680   20.270106 H          1 MOL1         0.0783
      16    O4      16.751828   14.388218   20.578665 O.3        1 MOL1        -0.3740
      17    C6      18.596732   13.494650   19.338270 C.3        1 MOL1         0.0138
      18    H8      19.603147   13.750839   18.989784 H          1 MOL1         0.0794
      19    H9      17.917991   13.695523   18.498249 H          1 MOL1         0.0794
      20    O5      18.538944   12.108014   19.693960 O.3        1 MOL1        -0.5486
      21    H10     18.705072   11.584202   18.879903 H          1 MOL1         0.3769
      22    C7      15.237952   20.241241   19.996974 C.3        1 MOL1         0.2972
      23    H11     14.703287   21.038427   19.464765 H          1 MOL1         0.0751
      24    O6      16.410259   20.748105   20.664008 O.3        1 MOL1        -0.3740
      25    C8      14.313233   19.523180   21.021495 C.3        1 MOL1         0.1003
      26    H12     13.496654   19.066152   20.447469 H          1 MOL1         0.0783
      27    O7      13.746532   20.432992   21.975501 O.3        1 MOL1        -0.5519
      28    H13     14.498316   20.803513   22.503069 H          1 MOL1         0.3769
      29    C9      15.079220   18.384574   21.740005 C.3        1 MOL1         0.1053
      30    H14     15.881190   18.832776   22.342568 H          1 MOL1         0.0783
      31    O8      14.183783   17.655898   22.586940 O.3        1 MOL1        -0.5519
      32    H15     13.649758   18.340909   23.047665 H          1 MOL1         0.3769
      33    C10     15.720510   17.430333   20.703000 C.3        1 MOL1         0.1018
      34    H16     14.917704   16.874270   20.200727 H          1 MOL1         0.0783
      35    C11     16.537698   18.198156   19.628796 C.3        1 MOL1         0.1043
      36    H17     17.409055   18.654648   20.115869 H          1 MOL1         0.0783
      37    O9      15.697412   19.237301   19.062181 O.3        1 MOL1        -0.3740
      38    C12     17.082099   17.313143   18.476999 C.3        1 MOL1         0.0138
      39    H18     18.075618   16.945866   18.761918 H          1 MOL1         0.0794
      40    H19     17.222880   17.943388   17.588772 H          1 MOL1         0.0794
      41    O10     16.231612   16.203230   18.161820 O.3        1 MOL1        -0.5486
      42    H20     16.280325   15.571805   18.916930 H          1 MOL1         0.3769
      43    C13     18.465325   23.947853   22.146685 C.3        1 MOL1         0.2972
      44    H21     18.841688   24.898872   22.545293 H          1 MOL1         0.0751
      45    O11     19.543892   23.035555   21.865619 O.3        1 MOL1        -0.3740
      46    C14     17.502273   23.295988   23.168904 C.3        1 MOL1         0.1003
      47    H22     16.664739   23.989331   23.319199 H          1 MOL1         0.0783
      48    O12     18.163589   23.069017   24.421050 O.3        1 MOL1        -0.5519
      49    H23     18.892629   22.428062   24.228089 H          1 MOL1         0.3769
      50    C15     16.937519   21.962462   22.634821 C.3        1 MOL1         0.1053
      51    H24     17.761082   21.239907   22.607642 H          1 MOL1         0.0783
      52    O13     15.926056   21.490191   23.530290 O.3        1 MOL1        -0.5519
      53    H25     16.334559   21.546890   24.422956 H          1 MOL1         0.3769
      54    C16     16.371705   22.085601   21.198110 C.3        1 MOL1         0.1018
      55    H26     15.352556   22.491248   21.243823 H          1 MOL1         0.0783
      56    C17     17.259183   22.951646   20.258199 C.3        1 MOL1         0.1043
      57    H27     18.124408   22.339042   19.982940 H          1 MOL1         0.0783
      58    O14     17.731946   24.154677   20.920184 O.3        1 MOL1        -0.3740
      59    C18     16.554387   23.355710   18.941422 C.3        1 MOL1         0.0138
      60    H28     16.434483   22.457618   18.320595 H          1 MOL1         0.0794
      61    H29     17.206428   24.047056   18.390743 H          1 MOL1         0.0794
      62    O15     15.275965   23.957754   19.177081 O.3        1 MOL1        -0.5486
      63    H30     14.923771   24.259503   18.311236 H          1 MOL1         0.3769
      64    C19     23.658163   22.893660   21.416504 C.3        1 MOL1         0.2972
      65    H31     24.716365   23.089206   21.201738 H          1 MOL1         0.0751
      66    O16     23.444592   21.534948   21.846424 O.3        1 MOL1        -0.3740
      67    C20     23.177036   23.815342   22.561225 C.3        1 MOL1         0.1003
      68    H32     23.324108   24.852990   22.234444 H          1 MOL1         0.0783
      69    O17     23.953050   23.572485   23.746064 O.3        1 MOL1        -0.5519
      70    H33     24.123063   22.599404   23.777926 H          1 MOL1         0.3769
      71    C21     21.669541   23.613706   22.853698 C.3        1 MOL1         0.1053
      72    H34     21.541720   22.630209   23.324299 H          1 MOL1         0.0783
      73    O18     21.236321   24.641504   23.749858 O.3        1 MOL1        -0.5519
      74    H35     21.871176   24.617319   24.498625 H          1 MOL1         0.3769
      75    C22     20.815032   23.640979   21.558327 C.3        1 MOL1         0.1018
      76    H36     20.704048   24.683876   21.234195 H          1 MOL1         0.0783
      77    C23     21.441893   22.810047   20.403140 C.3        1 MOL1         0.1043
      78    H37     21.361734   21.748939   20.666873 H          1 MOL1         0.0783
      79    O19     22.841288   23.153714   20.255948 O.3        1 MOL1        -0.3740
      80    C24     20.742258   22.981937   19.028666 C.3        1 MOL1         0.0138
      81    H38     19.977218   22.202357   18.929183 H          1 MOL1         0.0794
      82    H39     21.478234   22.799673   18.234316 H          1 MOL1         0.0794
      83    O20     20.143428   24.272170   18.851053 O.3        1 MOL1        -0.5486
      84    H40     19.418170   24.355658   19.512284 H          1 MOL1         0.3769
      85    C25     24.965788   17.685396   21.375257 C.3        1 MOL1         0.2972
      86    H41     25.615854   16.823486   21.176551 H          1 MOL1         0.0751
      87    O21     23.622532   17.272188   21.698477 O.3        1 MOL1        -0.3740
      88    C26     25.531131   18.494184   22.568189 C.3        1 MOL1         0.1003
      89    H42     26.545202   18.816816   22.298554 H          1 MOL1         0.0783
      90    O22     25.590775   17.674342   23.746512 O.3        1 MOL1        -0.5519
      91    H43     24.970000   16.917845   23.601487 H          1 MOL1         0.3769
      92    C27     24.680932   19.757819   22.830545 C.3        1 MOL1         0.1053
      93    H44     23.697118   19.429402   23.189406 H          1 MOL1         0.0783
      94    O23     25.313920   20.565700   23.828818 O.3        1 MOL1        -0.5519
      95    H45     25.563321   19.937696   24.542915 H          1 MOL1         0.3769
      96    C28     24.478961   20.582725   21.535417 C.3        1 MOL1         0.1018
      97    H46     25.429566   21.071589   21.284873 H          1 MOL1         0.0783
      98    C29     24.009885   19.690415   20.350036 C.3        1 MOL1         0.1043
      99    H47     22.999855   19.336071   20.583479 H          1 MOL1         0.0783
     100    O24     24.896401   18.549761   20.221488 O.3        1 MOL1        -0.3740
     101    C30     23.932567   20.394709   18.972125 C.3        1 MOL1         0.0138
     102    H48     22.959591   20.893493   18.886965 H          1 MOL1         0.0794
     103    H49     23.963341   19.628193   18.186159 H          1 MOL1         0.0794
     104    O25     24.981774   21.346277   18.767640 O.3        1 MOL1        -0.5486
     105    H50     24.633745   22.217220   19.060982 H          1 MOL1         0.3769
     106    C31     21.206312   13.851777   21.240369 C.3        1 MOL1         0.2972
     107    H51     20.860780   12.861012   20.918354 H          1 MOL1         0.0751
     108    O26     20.187486   14.543167   21.986889 O.3        1 MOL1        -0.3740
     109    C32     22.445564   13.707822   22.164182 C.3        1 MOL1         0.1003
     110    H52     23.205526   13.139392   21.612397 H          1 MOL1         0.0783
     111    O27     22.091470   12.997623   23.360455 O.3        1 MOL1        -0.5519
     112    H53     21.244472   13.394372   23.671506 H          1 MOL1         0.3769
     113    C33     23.047043   15.088090   22.529120 C.3        1 MOL1         0.1053
     114    H54     22.332325   15.611001   23.178519 H          1 MOL1         0.0783
     115    O28     24.287296   14.906577   23.220917 O.3        1 MOL1        -0.5519
     116    H55     24.109592   14.210041   23.891623 H          1 MOL1         0.3769
     117    C34     23.268977   15.946184   21.261869 C.3        1 MOL1         0.1018
     118    H56     24.064550   15.485265   20.661267 H          1 MOL1         0.0783
     119    C35     21.978834   16.021945   20.405014 C.3        1 MOL1         0.1043
     120    H57     21.196443   16.522584   20.988266 H          1 MOL1         0.0783
     121    O29     21.566739   14.668537   20.102558 O.3        1 MOL1        -0.3740
     122    C36     22.124400   16.799624   19.072035 C.3        1 MOL1         0.0138
     123    H58     21.946039   17.863863   19.267185 H          1 MOL1         0.0794
     124    H59     21.333961   16.466647   18.386336 H          1 MOL1         0.0794
     125    O30     23.407885   16.632764   18.458719 O.3        1 MOL1        -0.5486
     126    H60     24.047695   17.182054   18.968805 H          1 MOL1         0.3769
     127    C1      19.255167   18.377134   22.383026 C.3        1 MOL1        -0.1693
     128    H1      19.122932   17.506592   21.732490 H          1 MOL1         0.0829
     129    H2      18.287522   18.630251   22.834733 H          1 MOL1         0.0829
     130    C2      20.014831   19.588390   21.755221 C.3        1 MOL1        -0.1768
     131    H3      20.764463   19.309327   21.008560 H          1 MOL1         0.0829
     132    H4      19.388967   20.382672   21.338357 H          1 MOL1         0.0829
     133    C3      20.594887   19.843522   23.183133 C.3        1 MOL1         0.1211
     134    H5      21.627532   20.208417   23.196668 H          1 MOL1         0.0786
     135    C4      20.444966   18.305914   23.395800 C.3        1 MOL1        -0.1768
     136    H6      20.189974   17.982335   24.410664 H          1 MOL1         0.0829
     137    H7      21.305426   17.724195   23.051166 H          1 MOL1         0.0829
     138    O1      19.801228   20.637293   24.041628 O.3        1 MOL1        -0.5515
     139    H8      20.077383   20.424301   24.955545 H          1 MOL1         0.3773
@<TRIPOS>BOND
    1     1     2    1
    2     1     3    1
    3     1     4    1
    4     4     5    1
    5     4     6    1
    6     6     7    1
    7     4     8    1
    8     8     9    1
    9     8    10    1
   10    10    11    1
   11     8    12    1
   12    12    13    1
   13    12    14    1
   14    14    15    1
   15     1    16    1
   16    14    16    1
   17    14    17    1
   18    17    18    1
   19    17    19    1
   20    17    20    1
   21    20    21    1
   22    22    23    1
   23    22    24    1
   24    22    25    1
   25    25    26    1
   26    25    27    1
   27    27    28    1
   28    25    29    1
   29    29    30    1
   30    29    31    1
   31    31    32    1
   32     3    33    1
   33    29    33    1
   34    33    34    1
   35    33    35    1
   36    35    36    1
   37    22    37    1
   38    35    37    1
   39    35    38    1
   40    38    39    1
   41    38    40    1
   42    38    41    1
   43    41    42    1
   44    43    44    1
   45    43    45    1
   46    43    46    1
   47    46    47    1
   48    46    48    1
   49    48    49    1
   50    46    50    1
   51    50    51    1
   52    50    52    1
   53    52    53    1
   54    24    54    1
   55    50    54    1
   56    54    55    1
   57    54    56    1
   58    56    57    1
   59    43    58    1
   60    56    58    1
   61    56    59    1
   62    59    60    1
   63    59    61    1
   64    59    62    1
   65    62    63    1
   66    64    65    1
   67    64    66    1
   68    64    67    1
   69    67    68    1
   70    67    69    1
   71    69    70    1
   72    67    71    1
   73    71    72    1
   74    71    73    1
   75    73    74    1
   76    45    75    1
   77    71    75    1
   78    75    76    1
   79    75    77    1
   80    77    78    1
   81    64    79    1
   82    77    79    1
   83    77    80    1
   84    80    81    1
   85    80    82    1
   86    80    83    1
   87    83    84    1
   88    85    86    1
   89    85    87    1
   90    85    88    1
   91    88    89    1
   92    88    90    1
   93    90    91    1
   94    88    92    1
   95    92    93    1
   96    92    94    1
   97    94    95    1
   98    66    96    1
   99    92    96    1
  100    96    97    1
  101    96    98    1
  102    98    99    1
  103    85   100    1
  104    98   100    1
  105    98   101    1
  106   101   102    1
  107   101   103    1
  108   101   104    1
  109   104   105    1
  110   106   107    1
  111    12   108    1
  112   106   108    1
  113   106   109    1
  114   109   110    1
  115   109   111    1
  116   111   112    1
  117   109   113    1
  118   113   114    1
  119   113   115    1
  120   115   116    1
  121    87   117    1
  122   113   117    1
  123   117   118    1
  124   117   119    1
  125   119   120    1
  126   106   121    1
  127   119   121    1
  128   119   122    1
  129   122   123    1
  130   122   124    1
  131   122   125    1
  132   125   126    1
  133   127   128    1
  134   127   129    1
  135   127   130    1
  136   130   131    1
  137   130   132    1
  138   130   133    1
  139   133   134    1
  140   127   135    1
  141   133   135    1
  142   135   136    1
  143   135   137    1
  144   133   138    1
  145   138   139    1
@<TRIPOS>SUBSTRUCTURE
       1 MOL1            1 RESIDUE      1      MOL     
       2 MOL1          139 RESIDUE      1      MOL     
@<SCITEGIC>MOL_PROPERTY
feprocess Rank
SciTegic.value.IntegerValue
121

@<SCITEGIC>MOL_PROPERTY
Conf_Id
SciTegic.value.IntegerValue
643

@<SCITEGIC>MOL_PROPERTY
Probability
SciTegic.value.DoubleValue
0.01

@<SCITEGIC>MOL_PROPERTY
G
SciTegic.value.DoubleValue
549.311

@<SCITEGIC>MOL_PROPERTY
E
SciTegic.value.DoubleValue
371.133

@<SCITEGIC>MOL_PROPERTY
-TS
SciTegic.value.DoubleValue
178.178

@<SCITEGIC>MOL_PROPERTY
U+W
SciTegic.value.DoubleValue
248.622

@<SCITEGIC>MOL_PROPERTY
U
SciTegic.value.DoubleValue
287.252

@<SCITEGIC>MOL_PROPERTY
W
SciTegic.value.DoubleValue
-38.630

@<SCITEGIC>MOL_PROPERTY
W(PB)
SciTegic.value.DoubleValue
-44.535

@<SCITEGIC>MOL_PROPERTY
W(SA)
SciTegic.value.DoubleValue
5.905

@<SCITEGIC>MOL_PROPERTY
Valence
SciTegic.value.DoubleValue
153.149

@<SCITEGIC>MOL_PROPERTY
Coulomb
SciTegic.value.DoubleValue
156.937

@<SCITEGIC>MOL_PROPERTY
VdW
SciTegic.value.DoubleValue
-22.835

@<SCITEGIC>MOL_PROPERTY
VdW6
SciTegic.value.DoubleValue
-170.952

@<SCITEGIC>MOL_PROPERTY
VdW12
SciTegic.value.DoubleValue
148.117

@<SCITEGIC>MOL_PROPERTY
Bond
SciTegic.value.DoubleValue
4.599

@<SCITEGIC>MOL_PROPERTY
Angle
SciTegic.value.DoubleValue
12.712

@<SCITEGIC>MOL_PROPERTY
Pdih
SciTegic.value.DoubleValue
135.838

@<SCITEGIC>MOL_PROPERTY
Idih
SciTegic.value.DoubleValue
0.000

@<SCITEGIC>MOL_PROPERTY
Tether
SciTegic.value.DoubleValue
0.000

@<TRIPOS>MOLECULE
CD_guest-s16_fast_vm2_rndm.mol2 : feprocess host+ligand conformer 122
         139         145           2
SMALL
USER_CHARGES
 
@<TRIPOS>ATOM
       1    C1      16.067930   15.017969   21.845217 C.3        1 MOL1         0.2972
       2    H1      15.001341   14.868142   22.056111 H          1 MOL1         0.0751
       3    O1      16.412128   16.412917   21.760540 O.3        1 MOL1        -0.3740
       4    C2      16.928287   14.401086   22.970776 C.3        1 MOL1         0.1003
       5    H2      16.762186   13.315937   22.968436 H          1 MOL1         0.0783
       6    O2      16.549231   14.943780   24.246093 O.3        1 MOL1        -0.5519
       7    H3      16.194446   15.852168   24.078400 H          1 MOL1         0.3769
       8    C3      18.425905   14.665472   22.695880 C.3        1 MOL1         0.1053
       9    H4      18.588584   15.744382   22.782582 H          1 MOL1         0.0783
      10    O3      19.220050   13.985019   23.671755 O.3        1 MOL1        -0.5519
      11    H5      18.781233   14.175987   24.530990 H          1 MOL1         0.3769
      12    C4      18.844782   14.232378   21.267503 C.3        1 MOL1         0.1018
      13    H6      18.996012   13.144642   21.270034 H          1 MOL1         0.0783
      14    C5      17.810243   14.625536   20.168104 C.3        1 MOL1         0.1043
      15    H7      17.926145   15.697023   19.969979 H          1 MOL1         0.0783
      16    O4      16.447464   14.382028   20.607567 O.3        1 MOL1        -0.3740
      17    C6      18.028002   13.897512   18.820564 C.3        1 MOL1         0.0138
      18    H8      18.940433   14.292904   18.353993 H          1 MOL1         0.0794
      19    H9      17.190226   14.139252   18.152708 H          1 MOL1         0.0794
      20    O5      18.140708   12.478603   18.985105 O.3        1 MOL1        -0.5486
      21    H10     18.191494   12.077658   18.089943 H          1 MOL1         0.3769
      22    C7      14.817465   20.224496   21.320626 C.3        1 MOL1         0.2972
      23    H11     14.147579   21.080139   21.165415 H          1 MOL1         0.0751
      24    O6      16.189514   20.646034   21.451568 O.3        1 MOL1        -0.3740
      25    C8      14.427514   19.484705   22.624707 C.3        1 MOL1         0.1003
      26    H12     13.388650   19.146416   22.517930 H          1 MOL1         0.0783
      27    O7      14.526302   20.373398   23.748988 O.3        1 MOL1        -0.5519
      28    H13     15.163736   21.083342   23.492158 H          1 MOL1         0.3769
      29    C9      15.319177   18.238736   22.839266 C.3        1 MOL1         0.1053
      30    H14     16.345107   18.582476   23.028103 H          1 MOL1         0.0783
      31    O8      14.846785   17.492738   23.965861 O.3        1 MOL1        -0.5519
      32    H15     14.676405   18.166012   24.662057 H          1 MOL1         0.3769
      33    C10     15.334980   17.343806   21.576937 C.3        1 MOL1         0.1018
      34    H16     14.362067   16.844861   21.477988 H          1 MOL1         0.0783
      35    C11     15.637569   18.163320   20.292629 C.3        1 MOL1         0.1043
      36    H17     16.665966   18.532265   20.370658 H          1 MOL1         0.0783
      37    O9      14.732212   19.294603   20.216858 O.3        1 MOL1        -0.3740
      38    C12     15.554271   17.360844   18.968042 C.3        1 MOL1         0.0138
      39    H18     16.549218   16.954257   18.747272 H          1 MOL1         0.0794
      40    H19     15.308966   18.053755   18.152165 H          1 MOL1         0.0794
      41    O10     14.600568   16.293119   19.009912 O.3        1 MOL1        -0.5486
      42    H20     15.018580   15.557988   19.515343 H          1 MOL1         0.3769
      43    C13     18.729387   23.818982   20.464972 C.3        1 MOL1         0.2972
      44    H21     19.157959   24.733074   20.034120 H          1 MOL1         0.0751
      45    O11     19.722745   23.044621   21.163194 O.3        1 MOL1        -0.3740
      46    C14     17.582349   24.151580   21.457405 C.3        1 MOL1         0.1003
      47    H22     16.814626   24.699208   20.895487 H          1 MOL1         0.0783
      48    O12     18.045754   24.974379   22.539849 O.3        1 MOL1        -0.5519
      49    H23     18.819953   24.513583   22.952357 H          1 MOL1         0.3769
      50    C15     16.937296   22.853407   22.004284 C.3        1 MOL1         0.1053
      51    H24     17.682895   22.333925   22.622360 H          1 MOL1         0.0783
      52    O13     15.792236   23.179863   22.799168 O.3        1 MOL1        -0.5519
      53    H25     16.079437   23.927929   23.368831 H          1 MOL1         0.3769
      54    C16     16.525040   21.908934   20.848342 C.3        1 MOL1         0.1018
      55    H26     15.671091   22.353188   20.320034 H          1 MOL1         0.0783
      56    C17     17.690188   21.689938   19.842458 C.3        1 MOL1         0.1043
      57    H27     18.493572   21.144606   20.352419 H          1 MOL1         0.0783
      58    O14     18.183862   22.984846   19.418499 O.3        1 MOL1        -0.3740
      59    C18     17.325275   20.867788   18.579674 C.3        1 MOL1         0.0138
      60    H28     17.497499   19.805652   18.793381 H          1 MOL1         0.0794
      61    H29     18.019566   21.141126   17.774021 H          1 MOL1         0.0794
      62    O15     15.973190   21.062357   18.148028 O.3        1 MOL1        -0.5486
      63    H30     15.398118   20.552757   18.765343 H          1 MOL1         0.3769
      64    C19     23.666357   22.872435   22.238963 C.3        1 MOL1         0.2972
      65    H31     24.719148   23.019366   22.511966 H          1 MOL1         0.0751
      66    O16     23.336586   21.478470   22.093813 O.3        1 MOL1        -0.3740
      67    C20     22.748156   23.459229   23.335790 C.3        1 MOL1         0.1003
      68    H32     22.931980   24.540428   23.384473 H          1 MOL1         0.0783
      69    O17     23.045753   22.864628   24.609505 O.3        1 MOL1        -0.5519
      70    H33     23.386885   21.953334   24.430055 H          1 MOL1         0.3769
      71    C21     21.262812   23.237451   22.970534 C.3        1 MOL1         0.1053
      72    H34     21.064858   22.160195   23.021081 H          1 MOL1         0.0783
      73    O18     20.430899   23.918222   23.915264 O.3        1 MOL1        -0.5519
      74    H35     20.806642   23.687651   24.794291 H          1 MOL1         0.3769
      75    C22     20.938835   23.721301   21.534023 C.3        1 MOL1         0.1018
      76    H36     20.815345   24.812327   21.553608 H          1 MOL1         0.0783
      77    C23     22.018117   23.317564   20.484927 C.3        1 MOL1         0.1043
      78    H37     21.891722   22.248055   20.274247 H          1 MOL1         0.0783
      79    O19     23.358129   23.538250   20.997903 O.3        1 MOL1        -0.3740
      80    C24     21.883317   24.062163   19.135189 C.3        1 MOL1         0.0138
      81    H38     20.991336   23.686023   18.616170 H          1 MOL1         0.0794
      82    H39     22.751949   23.814680   18.510271 H          1 MOL1         0.0794
      83    O20     21.783042   25.480891   19.308720 O.3        1 MOL1        -0.5486
      84    H40     21.786136   25.891609   18.416543 H          1 MOL1         0.3769
      85    C25     24.983093   17.707398   21.585863 C.3        1 MOL1         0.2972
      86    H41     25.654950   16.851326   21.441994 H          1 MOL1         0.0751
      87    O21     23.599763   17.303305   21.579351 O.3        1 MOL1        -0.3740
      88    C26     25.269213   18.373930   22.953874 C.3        1 MOL1         0.1003
      89    H42     26.311597   18.718124   22.946550 H          1 MOL1         0.0783
      90    O22     25.086850   17.426983   24.018700 O.3        1 MOL1        -0.5519
      91    H43     24.476107   16.728716   23.677032 H          1 MOL1         0.3769
      92    C27     24.356510   19.604836   23.161207 C.3        1 MOL1         0.1053
      93    H44     23.321632   19.248894   23.247058 H          1 MOL1         0.0783
      94    O23     24.729999   20.289500   24.361283 O.3        1 MOL1        -0.5519
      95    H45     24.844394   19.579883   25.032339 H          1 MOL1         0.3769
      96    C28     24.439369   20.568362   21.952911 C.3        1 MOL1         0.1018
      97    H46     25.410731   21.079401   21.976580 H          1 MOL1         0.0783
      98    C29     24.270712   19.829254   20.595819 C.3        1 MOL1         0.1043
      99    H47     23.238019   19.469513   20.538033 H          1 MOL1         0.0783
     100    O24     25.170700   18.692263   20.543884 O.3        1 MOL1        -0.3740
     101    C30     24.498627   20.710639   19.340104 C.3        1 MOL1         0.0138
     102    H48     23.542872   21.172129   19.061413 H          1 MOL1         0.0794
     103    H49     24.792567   20.061409   18.504460 H          1 MOL1         0.0794
     104    O25     25.480109   21.734540   19.536192 O.3        1 MOL1        -0.5486
     105    H50     25.030917   22.473142   20.007583 H          1 MOL1         0.3769
     106    C31     21.111802   14.187944   20.335726 C.3        1 MOL1         0.2972
     107    H51     20.712928   13.289054   19.848062 H          1 MOL1         0.0751
     108    O26     20.065455   14.948458   20.976878 O.3        1 MOL1        -0.3740
     109    C32     22.184802   13.814492   21.395239 C.3        1 MOL1         0.1003
     110    H52     22.987116   13.281828   20.868281 H          1 MOL1         0.0783
     111    O27     21.649704   12.955329   22.413937 O.3        1 MOL1        -0.5519
     112    H53     20.857208   13.407609   22.799910 H          1 MOL1         0.3769
     113    C33     22.798264   15.088866   22.026095 C.3        1 MOL1         0.1053
     114    H54     22.012914   15.601664   22.598169 H          1 MOL1         0.0783
     115    O28     23.875028   14.728617   22.897768 O.3        1 MOL1        -0.5519
     116    H55     23.540815   13.962578   23.415769 H          1 MOL1         0.3769
     117    C34     23.309746   16.053780   20.928667 C.3        1 MOL1         0.1018
     118    H56     24.200138   15.613671   20.460491 H          1 MOL1         0.0783
     119    C35     22.233172   16.311576   19.839575 C.3        1 MOL1         0.1043
     120    H57     21.409249   16.865037   20.300547 H          1 MOL1         0.0783
     121    O29     21.741755   15.039128   19.352411 O.3        1 MOL1        -0.3740
     122    C36     22.712750   17.152947   18.628407 C.3        1 MOL1         0.0138
     123    H58     22.532042   18.212421   18.847207 H          1 MOL1         0.0794
     124    H59     22.088836   16.901057   17.760485 H          1 MOL1         0.0794
     125    O30     24.096166   16.956454   18.312106 O.3        1 MOL1        -0.5486
     126    H60     24.619268   17.448488   18.986941 H          1 MOL1         0.3769
     127    C1      20.256986   19.536127   23.497482 C.3        1 MOL1        -0.1693
     128    H1      19.588490   20.349129   23.810715 H          1 MOL1         0.0829
     129    H2      21.124771   19.518701   24.166840 H          1 MOL1         0.0829
     130    C2      20.565669   19.493183   21.965035 C.3        1 MOL1        -0.1768
     131    H3      20.627098   20.456284   21.450261 H          1 MOL1         0.0829
     132    H4      21.437294   18.890619   21.694033 H          1 MOL1         0.0829
     133    C3      19.207248   18.746322   21.845359 C.3        1 MOL1         0.1211
     134    H5      18.338294   19.413442   21.846733 H          1 MOL1         0.0786
     135    C4      19.548916   18.163967   23.250257 C.3        1 MOL1        -0.1768
     136    H6      20.226465   17.301272   23.245535 H          1 MOL1         0.0829
     137    H7      18.692496   17.940206   23.895780 H          1 MOL1         0.0829
     138    O1      19.117626   17.824549   20.785930 O.3        1 MOL1        -0.5515
     139    H8      19.536654   16.989240   21.081945 H          1 MOL1         0.3773
@<TRIPOS>BOND
    1     1     2    1
    2     1     3    1
    3     1     4    1
    4     4     5    1
    5     4     6    1
    6     6     7    1
    7     4     8    1
    8     8     9    1
    9     8    10    1
   10    10    11    1
   11     8    12    1
   12    12    13    1
   13    12    14    1
   14    14    15    1
   15     1    16    1
   16    14    16    1
   17    14    17    1
   18    17    18    1
   19    17    19    1
   20    17    20    1
   21    20    21    1
   22    22    23    1
   23    22    24    1
   24    22    25    1
   25    25    26    1
   26    25    27    1
   27    27    28    1
   28    25    29    1
   29    29    30    1
   30    29    31    1
   31    31    32    1
   32     3    33    1
   33    29    33    1
   34    33    34    1
   35    33    35    1
   36    35    36    1
   37    22    37    1
   38    35    37    1
   39    35    38    1
   40    38    39    1
   41    38    40    1
   42    38    41    1
   43    41    42    1
   44    43    44    1
   45    43    45    1
   46    43    46    1
   47    46    47    1
   48    46    48    1
   49    48    49    1
   50    46    50    1
   51    50    51    1
   52    50    52    1
   53    52    53    1
   54    24    54    1
   55    50    54    1
   56    54    55    1
   57    54    56    1
   58    56    57    1
   59    43    58    1
   60    56    58    1
   61    56    59    1
   62    59    60    1
   63    59    61    1
   64    59    62    1
   65    62    63    1
   66    64    65    1
   67    64    66    1
   68    64    67    1
   69    67    68    1
   70    67    69    1
   71    69    70    1
   72    67    71    1
   73    71    72    1
   74    71    73    1
   75    73    74    1
   76    45    75    1
   77    71    75    1
   78    75    76    1
   79    75    77    1
   80    77    78    1
   81    64    79    1
   82    77    79    1
   83    77    80    1
   84    80    81    1
   85    80    82    1
   86    80    83    1
   87    83    84    1
   88    85    86    1
   89    85    87    1
   90    85    88    1
   91    88    89    1
   92    88    90    1
   93    90    91    1
   94    88    92    1
   95    92    93    1
   96    92    94    1
   97    94    95    1
   98    66    96    1
   99    92    96    1
  100    96    97    1
  101    96    98    1
  102    98    99    1
  103    85   100    1
  104    98   100    1
  105    98   101    1
  106   101   102    1
  107   101   103    1
  108   101   104    1
  109   104   105    1
  110   106   107    1
  111    12   108    1
  112   106   108    1
  113   106   109    1
  114   109   110    1
  115   109   111    1
  116   111   112    1
  117   109   113    1
  118   113   114    1
  119   113   115    1
  120   115   116    1
  121    87   117    1
  122   113   117    1
  123   117   118    1
  124   117   119    1
  125   119   120    1
  126   106   121    1
  127   119   121    1
  128   119   122    1
  129   122   123    1
  130   122   124    1
  131   122   125    1
  132   125   126    1
  133   127   128    1
  134   127   129    1
  135   127   130    1
  136   130   131    1
  137   130   132    1
  138   130   133    1
  139   133   134    1
  140   127   135    1
  141   133   135    1
  142   135   136    1
  143   135   137    1
  144   133   138    1
  145   138   139    1
@<TRIPOS>SUBSTRUCTURE
       1 MOL1            1 RESIDUE      1      MOL     
       2 MOL1          139 RESIDUE      1      MOL     
@<SCITEGIC>MOL_PROPERTY
feprocess Rank
SciTegic.value.IntegerValue
122

@<SCITEGIC>MOL_PROPERTY
Conf_Id
SciTegic.value.IntegerValue
524

@<SCITEGIC>MOL_PROPERTY
Probability
SciTegic.value.DoubleValue
0.01

@<SCITEGIC>MOL_PROPERTY
G
SciTegic.value.DoubleValue
549.322

@<SCITEGIC>MOL_PROPERTY
E
SciTegic.value.DoubleValue
370.377

@<SCITEGIC>MOL_PROPERTY
-TS
SciTegic.value.DoubleValue
178.944

@<SCITEGIC>MOL_PROPERTY
U+W
SciTegic.value.DoubleValue
247.866

@<SCITEGIC>MOL_PROPERTY
U
SciTegic.value.DoubleValue
282.643

@<SCITEGIC>MOL_PROPERTY
W
SciTegic.value.DoubleValue
-34.777

@<SCITEGIC>MOL_PROPERTY
W(PB)
SciTegic.value.DoubleValue
-40.702

@<SCITEGIC>MOL_PROPERTY
W(SA)
SciTegic.value.DoubleValue
5.925

@<SCITEGIC>MOL_PROPERTY
Valence
SciTegic.value.DoubleValue
156.310

@<SCITEGIC>MOL_PROPERTY
Coulomb
SciTegic.value.DoubleValue
149.562

@<SCITEGIC>MOL_PROPERTY
VdW
SciTegic.value.DoubleValue
-23.229

@<SCITEGIC>MOL_PROPERTY
VdW6
SciTegic.value.DoubleValue
-172.585

@<SCITEGIC>MOL_PROPERTY
VdW12
SciTegic.value.DoubleValue
149.356

@<SCITEGIC>MOL_PROPERTY
Bond
SciTegic.value.DoubleValue
4.631

@<SCITEGIC>MOL_PROPERTY
Angle
SciTegic.value.DoubleValue
12.217

@<SCITEGIC>MOL_PROPERTY
Pdih
SciTegic.value.DoubleValue
139.462

@<SCITEGIC>MOL_PROPERTY
Idih
SciTegic.value.DoubleValue
0.000

@<SCITEGIC>MOL_PROPERTY
Tether
SciTegic.value.DoubleValue
0.000

@<TRIPOS>MOLECULE
CD_guest-s16_fast_vm2_rndm.mol2 : feprocess host+ligand conformer 123
         139         145           2
SMALL
USER_CHARGES
 
@<TRIPOS>ATOM
       1    C1      16.126835   15.082031   21.307082 C.3        1 MOL1         0.2972
       2    H1      15.039125   14.978754   21.201547 H          1 MOL1         0.0751
       3    O1      16.514962   16.459764   21.481302 O.3        1 MOL1        -0.3740
       4    C2      16.607942   14.274493   22.535070 C.3        1 MOL1         0.1003
       5    H2      16.363826   13.219063   22.357268 H          1 MOL1         0.0783
       6    O2      15.939366   14.726345   23.723694 O.3        1 MOL1        -0.5519
       7    H3      15.626934   15.647399   23.543410 H          1 MOL1         0.3769
       8    C3      18.139254   14.393400   22.696979 C.3        1 MOL1         0.1053
       9    H4      18.359408   15.430464   22.970036 H          1 MOL1         0.0783
      10    O3      18.587593   13.521067   23.740096 O.3        1 MOL1        -0.5519
      11    H5      17.962050   13.672053   24.483354 H          1 MOL1         0.3769
      12    C4      18.893538   14.069461   21.383696 C.3        1 MOL1         0.1018
      13    H6      18.929239   12.978071   21.269940 H          1 MOL1         0.0783
      14    C5      18.247287   14.722611   20.125162 C.3        1 MOL1         0.1043
      15    H7      18.494721   15.790319   20.143778 H          1 MOL1         0.0783
      16    O4      16.803510   14.569898   20.142031 O.3        1 MOL1        -0.3740
      17    C6      18.763999   14.153207   18.781852 C.3        1 MOL1         0.0138
      18    H8      19.786035   14.514337   18.613547 H          1 MOL1         0.0794
      19    H9      18.144011   14.556335   17.969743 H          1 MOL1         0.0794
      20    O5      18.741779   12.720562   18.758475 O.3        1 MOL1        -0.5486
      21    H10     19.027694   12.433015   17.864083 H          1 MOL1         0.3769
      22    C7      14.887871   20.297710   20.892707 C.3        1 MOL1         0.2972
      23    H11     14.225548   21.105521   20.555551 H          1 MOL1         0.0751
      24    O6      16.060412   20.814959   21.548225 O.3        1 MOL1        -0.3740
      25    C8      14.158828   19.391728   21.920718 C.3        1 MOL1         0.1003
      26    H12     13.240461   19.024513   21.444567 H          1 MOL1         0.0783
      27    O7      13.818679   20.145344   23.096524 O.3        1 MOL1        -0.5519
      28    H13     14.600034   20.714158   23.307133 H          1 MOL1         0.3769
      29    C9      15.023560   18.163450   22.306757 C.3        1 MOL1         0.1053
      30    H14     15.889329   18.519558   22.880215 H          1 MOL1         0.0783
      31    O8      14.250646   17.262871   23.107613 O.3        1 MOL1        -0.5519
      32    H15     13.802390   17.831417   23.772804 H          1 MOL1         0.3769
      33    C10     15.548675   17.435343   21.046338 C.3        1 MOL1         0.1018
      34    H16     14.699214   16.969738   20.529103 H          1 MOL1         0.0783
      35    C11     16.243026   18.425754   20.075535 C.3        1 MOL1         0.1043
      36    H17     17.124913   18.845856   20.573360 H          1 MOL1         0.0783
      37    O9      15.307367   19.486939   19.771380 O.3        1 MOL1        -0.3740
      38    C12     16.728692   17.800890   18.742190 C.3        1 MOL1         0.0138
      39    H18     17.747873   17.421956   18.886466 H          1 MOL1         0.0794
      40    H19     16.792494   18.596121   17.987629 H          1 MOL1         0.0794
      41    O10     15.883746   16.744006   18.270815 O.3        1 MOL1        -0.5486
      42    H20     16.055714   15.958374   18.840863 H          1 MOL1         0.3769
      43    C13     18.459219   24.180209   21.697498 C.3        1 MOL1         0.2972
      44    H21     18.876885   25.195300   21.711430 H          1 MOL1         0.0751
      45    O11     19.501343   23.184888   21.755829 O.3        1 MOL1        -0.3740
      46    C14     17.525671   23.988638   22.916507 C.3        1 MOL1         0.1003
      47    H22     16.716746   24.726617   22.837940 H          1 MOL1         0.0783
      48    O12     18.254575   24.204597   24.134712 O.3        1 MOL1        -0.5519
      49    H23     19.191743   23.963466   23.943761 H          1 MOL1         0.3769
      50    C15     16.893504   22.578875   22.907778 C.3        1 MOL1         0.1053
      51    H24     17.700239   21.859161   23.086514 H          1 MOL1         0.0783
      52    O13     15.918706   22.477013   23.951876 O.3        1 MOL1        -0.5519
      53    H25     16.359725   22.845324   24.749260 H          1 MOL1         0.3769
      54    C16     16.234359   22.246754   21.546056 C.3        1 MOL1         0.1018
      55    H26     15.273752   22.775637   21.490727 H          1 MOL1         0.0783
      56    C17     17.133067   22.629599   20.333866 C.3        1 MOL1         0.1043
      57    H27     17.951353   21.900946   20.294643 H          1 MOL1         0.0783
      58    O14     17.686883   23.961283   20.500254 O.3        1 MOL1        -0.3740
      59    C18     16.407971   22.594592   18.966331 C.3        1 MOL1         0.0138
      60    H28     16.251709   21.549142   18.673576 H          1 MOL1         0.0794
      61    H29     17.065813   23.042883   18.209643 H          1 MOL1         0.0794
      62    O15     15.153134   23.285514   19.003103 O.3        1 MOL1        -0.5486
      63    H30     14.782339   23.277922   18.093842 H          1 MOL1         0.3769
      64    C19     23.536571   22.622459   20.838839 C.3        1 MOL1         0.2972
      65    H31     24.558373   22.733999   20.453480 H          1 MOL1         0.0751
      66    O16     23.321844   21.311598   21.402245 O.3        1 MOL1        -0.3740
      67    C20     23.242845   23.682287   21.932504 C.3        1 MOL1         0.1003
      68    H32     23.382423   24.670436   21.475175 H          1 MOL1         0.0783
      69    O17     24.144897   23.546118   23.042913 O.3        1 MOL1        -0.5519
      70    H33     24.143692   22.593542   23.314748 H          1 MOL1         0.3769
      71    C21     21.774805   23.584565   22.415345 C.3        1 MOL1         0.1053
      72    H34     21.663182   22.635406   22.952379 H          1 MOL1         0.0783
      73    O18     21.486358   24.672612   23.299239 O.3        1 MOL1        -0.5519
      74    H35     22.254388   24.717983   23.911096 H          1 MOL1         0.3769
      75    C22     20.779988   23.592287   21.226027 C.3        1 MOL1         0.1018
      76    H36     20.749186   24.607481   20.808972 H          1 MOL1         0.0783
      77    C23     21.195531   22.595045   20.107127 C.3        1 MOL1         0.1043
      78    H37     21.068641   21.578138   20.492374 H          1 MOL1         0.0783
      79    O19     22.586605   22.813156   19.770028 O.3        1 MOL1        -0.3740
      80    C24     20.372459   22.685645   18.795603 C.3        1 MOL1         0.0138
      81    H38     19.526764   21.991849   18.862498 H          1 MOL1         0.0794
      82    H39     20.999547   22.329163   17.967508 H          1 MOL1         0.0794
      83    O20     19.896729   24.006822   18.511692 O.3        1 MOL1        -0.5486
      84    H40     19.146697   24.182607   19.127036 H          1 MOL1         0.3769
      85    C25     25.053921   17.642196   21.937681 C.3        1 MOL1         0.2972
      86    H41     25.683281   16.752645   22.071161 H          1 MOL1         0.0751
      87    O21     23.663803   17.293173   21.796102 O.3        1 MOL1        -0.3740
      88    C26     25.193985   18.577458   23.161791 C.3        1 MOL1         0.1003
      89    H42     26.240512   18.905154   23.212560 H          1 MOL1         0.0783
      90    O22     24.852526   17.876589   24.368587 O.3        1 MOL1        -0.5519
      91    H43     24.380739   17.051808   24.095544 H          1 MOL1         0.3769
      92    C27     24.302761   19.829847   22.995829 C.3        1 MOL1         0.1053
      93    H44     23.259806   19.505368   23.065343 H          1 MOL1         0.0783
      94    O23     24.574016   20.760340   24.048201 O.3        1 MOL1        -0.5519
      95    H45     24.581758   20.218621   24.868870 H          1 MOL1         0.3769
      96    C28     24.507216   20.518787   21.623028 C.3        1 MOL1         0.1018
      97    H46     25.412376   21.137833   21.683645 H          1 MOL1         0.0783
      98    C29     24.618661   19.523484   20.429534 C.3        1 MOL1         0.1043
      99    H47     23.608386   19.166620   20.204058 H          1 MOL1         0.0783
     100    O24     25.450663   18.383157   20.765965 O.3        1 MOL1        -0.3740
     101    C30     25.167445   20.163001   19.131751 C.3        1 MOL1         0.0138
     102    H48     24.402121   20.836331   18.722715 H          1 MOL1         0.0794
     103    H49     25.329694   19.368704   18.390627 H          1 MOL1         0.0794
     104    O25     26.382254   20.887734   19.359517 O.3        1 MOL1        -0.5486
     105    H50     26.714828   21.193667   18.487469 H          1 MOL1         0.3769
     106    C31     21.318956   13.884574   21.044669 C.3        1 MOL1         0.2972
     107    H51     21.009044   12.889143   20.701313 H          1 MOL1         0.0751
     108    O26     20.206211   14.637684   21.562360 O.3        1 MOL1        -0.3740
     109    C32     22.352715   13.763678   22.196312 C.3        1 MOL1         0.1003
     110    H52     23.196340   13.168506   21.823409 H          1 MOL1         0.0783
     111    O27     21.764468   13.100971   23.328060 O.3        1 MOL1        -0.5519
     112    H53     20.840070   13.442883   23.411874 H          1 MOL1         0.3769
     113    C33     22.893865   15.156065   22.612937 C.3        1 MOL1         0.1053
     114    H54     22.069671   15.719769   23.070925 H          1 MOL1         0.0783
     115    O28     23.957014   14.999439   23.558955 O.3        1 MOL1        -0.5519
     116    H55     23.633414   14.325459   24.197784 H          1 MOL1         0.3769
     117    C34     23.388748   15.945132   21.376404 C.3        1 MOL1         0.1018
     118    H56     24.283706   15.454008   20.971682 H          1 MOL1         0.0783
     119    C35     22.297746   15.991541   20.274003 C.3        1 MOL1         0.1043
     120    H57     21.426967   16.535996   20.661540 H          1 MOL1         0.0783
     121    O29     21.917127   14.630907   19.960972 O.3        1 MOL1        -0.3740
     122    C36     22.728931   16.697712   18.962956 C.3        1 MOL1         0.0138
     123    H58     22.473019   17.761404   19.044322 H          1 MOL1         0.0794
     124    H59     22.130850   16.294385   18.135175 H          1 MOL1         0.0794
     125    O30     24.126341   16.554145   18.675772 O.3        1 MOL1        -0.5486
     126    H60     24.619078   17.065264   19.359163 H          1 MOL1         0.3769
     127    C1      18.811765   19.464114   22.782779 C.3        1 MOL1        -0.1693
     128    H1      17.929484   19.543308   23.427318 H          1 MOL1         0.0829
     129    H2      18.632858   20.028270   21.859666 H          1 MOL1         0.0829
     130    C2      19.375702   18.024799   22.564703 C.3        1 MOL1        -0.1768
     131    H3      19.246144   17.357800   23.423546 H          1 MOL1         0.0829
     132    H4      19.051961   17.508687   21.656315 H          1 MOL1         0.0829
     133    C3      20.778123   18.694129   22.496378 C.3        1 MOL1         0.1211
     134    H5      21.581715   18.089159   22.929786 H          1 MOL1         0.0786
     135    C4      20.186106   19.768482   23.458893 C.3        1 MOL1        -0.1768
     136    H6      20.561870   20.786822   23.334252 H          1 MOL1         0.0829
     137    H7      20.240854   19.501520   24.521017 H          1 MOL1         0.0829
     138    O1      21.153582   19.172530   21.219736 O.3        1 MOL1        -0.5515
     139    H8      21.874778   19.822253   21.357863 H          1 MOL1         0.3773
@<TRIPOS>BOND
    1     1     2    1
    2     1     3    1
    3     1     4    1
    4     4     5    1
    5     4     6    1
    6     6     7    1
    7     4     8    1
    8     8     9    1
    9     8    10    1
   10    10    11    1
   11     8    12    1
   12    12    13    1
   13    12    14    1
   14    14    15    1
   15     1    16    1
   16    14    16    1
   17    14    17    1
   18    17    18    1
   19    17    19    1
   20    17    20    1
   21    20    21    1
   22    22    23    1
   23    22    24    1
   24    22    25    1
   25    25    26    1
   26    25    27    1
   27    27    28    1
   28    25    29    1
   29    29    30    1
   30    29    31    1
   31    31    32    1
   32     3    33    1
   33    29    33    1
   34    33    34    1
   35    33    35    1
   36    35    36    1
   37    22    37    1
   38    35    37    1
   39    35    38    1
   40    38    39    1
   41    38    40    1
   42    38    41    1
   43    41    42    1
   44    43    44    1
   45    43    45    1
   46    43    46    1
   47    46    47    1
   48    46    48    1
   49    48    49    1
   50    46    50    1
   51    50    51    1
   52    50    52    1
   53    52    53    1
   54    24    54    1
   55    50    54    1
   56    54    55    1
   57    54    56    1
   58    56    57    1
   59    43    58    1
   60    56    58    1
   61    56    59    1
   62    59    60    1
   63    59    61    1
   64    59    62    1
   65    62    63    1
   66    64    65    1
   67    64    66    1
   68    64    67    1
   69    67    68    1
   70    67    69    1
   71    69    70    1
   72    67    71    1
   73    71    72    1
   74    71    73    1
   75    73    74    1
   76    45    75    1
   77    71    75    1
   78    75    76    1
   79    75    77    1
   80    77    78    1
   81    64    79    1
   82    77    79    1
   83    77    80    1
   84    80    81    1
   85    80    82    1
   86    80    83    1
   87    83    84    1
   88    85    86    1
   89    85    87    1
   90    85    88    1
   91    88    89    1
   92    88    90    1
   93    90    91    1
   94    88    92    1
   95    92    93    1
   96    92    94    1
   97    94    95    1
   98    66    96    1
   99    92    96    1
  100    96    97    1
  101    96    98    1
  102    98    99    1
  103    85   100    1
  104    98   100    1
  105    98   101    1
  106   101   102    1
  107   101   103    1
  108   101   104    1
  109   104   105    1
  110   106   107    1
  111    12   108    1
  112   106   108    1
  113   106   109    1
  114   109   110    1
  115   109   111    1
  116   111   112    1
  117   109   113    1
  118   113   114    1
  119   113   115    1
  120   115   116    1
  121    87   117    1
  122   113   117    1
  123   117   118    1
  124   117   119    1
  125   119   120    1
  126   106   121    1
  127   119   121    1
  128   119   122    1
  129   122   123    1
  130   122   124    1
  131   122   125    1
  132   125   126    1
  133   127   128    1
  134   127   129    1
  135   127   130    1
  136   130   131    1
  137   130   132    1
  138   130   133    1
  139   133   134    1
  140   127   135    1
  141   133   135    1
  142   135   136    1
  143   135   137    1
  144   133   138    1
  145   138   139    1
@<TRIPOS>SUBSTRUCTURE
       1 MOL1            1 RESIDUE      1      MOL     
       2 MOL1          139 RESIDUE      1      MOL     
@<SCITEGIC>MOL_PROPERTY
feprocess Rank
SciTegic.value.IntegerValue
123

@<SCITEGIC>MOL_PROPERTY
Conf_Id
SciTegic.value.IntegerValue
498

@<SCITEGIC>MOL_PROPERTY
Probability
SciTegic.value.DoubleValue
0.01

@<SCITEGIC>MOL_PROPERTY
G
SciTegic.value.DoubleValue
549.323

@<SCITEGIC>MOL_PROPERTY
E
SciTegic.value.DoubleValue
370.910

@<SCITEGIC>MOL_PROPERTY
-TS
SciTegic.value.DoubleValue
178.413

@<SCITEGIC>MOL_PROPERTY
U+W
SciTegic.value.DoubleValue
248.399

@<SCITEGIC>MOL_PROPERTY
U
SciTegic.value.DoubleValue
283.187

@<SCITEGIC>MOL_PROPERTY
W
SciTegic.value.DoubleValue
-34.788

@<SCITEGIC>MOL_PROPERTY
W(PB)
SciTegic.value.DoubleValue
-40.754

@<SCITEGIC>MOL_PROPERTY
W(SA)
SciTegic.value.DoubleValue
5.967

@<SCITEGIC>MOL_PROPERTY
Valence
SciTegic.value.DoubleValue
153.584

@<SCITEGIC>MOL_PROPERTY
Coulomb
SciTegic.value.DoubleValue
152.417

@<SCITEGIC>MOL_PROPERTY
VdW
SciTegic.value.DoubleValue
-22.815

@<SCITEGIC>MOL_PROPERTY
VdW6
SciTegic.value.DoubleValue
-169.858

@<SCITEGIC>MOL_PROPERTY
VdW12
SciTegic.value.DoubleValue
147.043

@<SCITEGIC>MOL_PROPERTY
Bond
SciTegic.value.DoubleValue
4.518

@<SCITEGIC>MOL_PROPERTY
Angle
SciTegic.value.DoubleValue
11.184

@<SCITEGIC>MOL_PROPERTY
Pdih
SciTegic.value.DoubleValue
137.882

@<SCITEGIC>MOL_PROPERTY
Idih
SciTegic.value.DoubleValue
0.000

@<SCITEGIC>MOL_PROPERTY
Tether
SciTegic.value.DoubleValue
0.000

@<TRIPOS>MOLECULE
CD_guest-s16_fast_vm2_rndm.mol2 : feprocess host+ligand conformer 124
         139         145           2
SMALL
USER_CHARGES
 
@<TRIPOS>ATOM
       1    C1      16.267374   15.258174   21.218351 C.3        1 MOL1         0.2972
       2    H1      15.202953   15.102748   20.999609 H          1 MOL1         0.0751
       3    O1      16.595827   16.660397   21.278069 O.3        1 MOL1        -0.3740
       4    C2      16.613714   14.630165   22.591138 C.3        1 MOL1         0.1003
       5    H2      16.386737   13.557675   22.533199 H          1 MOL1         0.0783
       6    O2      15.820715   15.229606   23.628184 O.3        1 MOL1        -0.5519
       7    H3      15.533972   16.113721   23.291840 H          1 MOL1         0.3769
       8    C3      18.120241   14.786231   22.902790 C.3        1 MOL1         0.1053
       9    H4      18.326902   15.853966   23.050534 H          1 MOL1         0.0783
      10    O3      18.446393   14.066487   24.096178 O.3        1 MOL1        -0.5519
      11    H5      17.736807   14.300387   24.735391 H          1 MOL1         0.3769
      12    C4      18.987279   14.279154   21.725057 C.3        1 MOL1         0.1018
      13    H6      18.935138   13.182850   21.696954 H          1 MOL1         0.0783
      14    C5      18.522544   14.858197   20.359617 C.3        1 MOL1         0.1043
      15    H7      18.726949   15.934816   20.366391 H          1 MOL1         0.0783
      16    O4      17.095950   14.646061   20.204518 O.3        1 MOL1        -0.3740
      17    C6      19.251488   14.277106   19.119822 C.3        1 MOL1         0.0138
      18    H8      20.141125   14.887561   18.920982 H          1 MOL1         0.0794
      19    H9      18.594631   14.381722   18.245864 H          1 MOL1         0.0794
      20    O5      19.640784   12.908629   19.280170 O.3        1 MOL1        -0.5486
      21    H10     20.473245   12.909160   19.806622 H          1 MOL1         0.3769
      22    C7      15.189445   20.386239   20.021925 C.3        1 MOL1         0.2972
      23    H11     14.654420   21.205978   19.525469 H          1 MOL1         0.0751
      24    O6      16.342308   20.867554   20.739773 O.3        1 MOL1        -0.3740
      25    C8      14.257051   19.602952   20.988904 C.3        1 MOL1         0.1003
      26    H12     13.452230   19.172907   20.378574 H          1 MOL1         0.0783
      27    O7      13.671853   20.454120   21.985234 O.3        1 MOL1        -0.5519
      28    H13     14.414712   20.814923   22.531841 H          1 MOL1         0.3769
      29    C9      15.023461   18.432051   21.653099 C.3        1 MOL1         0.1053
      30    H14     15.808948   18.853516   22.295856 H          1 MOL1         0.0783
      31    O8      14.122586   17.645277   22.439963 O.3        1 MOL1        -0.5519
      32    H15     13.576506   18.295783   22.935096 H          1 MOL1         0.3769
      33    C10     15.697167   17.541828   20.580374 C.3        1 MOL1         0.1018
      34    H16     14.912630   16.991703   20.044160 H          1 MOL1         0.0783
      35    C11     16.517916   18.378698   19.559751 C.3        1 MOL1         0.1043
      36    H17     17.377742   18.815425   20.084326 H          1 MOL1         0.0783
      37    O9      15.675578   19.441086   19.041381 O.3        1 MOL1        -0.3740
      38    C12     17.087776   17.573380   18.362907 C.3        1 MOL1         0.0138
      39    H18     18.078557   17.192665   18.639067 H          1 MOL1         0.0794
      40    H19     17.238806   18.261480   17.520464 H          1 MOL1         0.0794
      41    O10     16.250378   16.482893   17.960863 O.3        1 MOL1        -0.5486
      42    H20     16.375041   15.763690   18.623031 H          1 MOL1         0.3769
      43    C13     18.390170   23.992422   22.357522 C.3        1 MOL1         0.2972
      44    H21     18.779594   24.921397   22.793855 H          1 MOL1         0.0751
      45    O11     19.454084   23.063183   22.068561 O.3        1 MOL1        -0.3740
      46    C14     17.387580   23.335731   23.337527 C.3        1 MOL1         0.1003
      47    H22     16.552888   24.036114   23.470526 H          1 MOL1         0.0783
      48    O12     17.997177   23.077908   24.611477 O.3        1 MOL1        -0.5519
      49    H23     18.723661   22.424210   24.456183 H          1 MOL1         0.3769
      50    C15     16.827726   22.024086   22.751480 C.3        1 MOL1         0.1053
      51    H24     17.655523   21.311325   22.708257 H          1 MOL1         0.0783
      52    O13     15.804757   21.516210   23.613407 O.3        1 MOL1        -0.5519
      53    H25     16.181145   21.583720   24.519664 H          1 MOL1         0.3769
      54    C16     16.290617   22.190644   21.309246 C.3        1 MOL1         0.1018
      55    H26     15.270345   22.594661   21.345814 H          1 MOL1         0.0783
      56    C17     17.201613   23.081032   20.415140 C.3        1 MOL1         0.1043
      57    H27     18.062701   22.465891   20.131616 H          1 MOL1         0.0783
      58    O14     17.682526   24.253602   21.126242 O.3        1 MOL1        -0.3740
      59    C18     16.521510   23.541221   19.104013 C.3        1 MOL1         0.0138
      60    H28     16.398100   22.667622   18.449816 H          1 MOL1         0.0794
      61    H29     17.190448   24.242824   18.587601 H          1 MOL1         0.0794
      62    O15     15.248339   24.152193   19.344295 O.3        1 MOL1        -0.5486
      63    H30     14.912211   24.490085   18.485430 H          1 MOL1         0.3769
      64    C19     23.526152   22.775178   21.412375 C.3        1 MOL1         0.2972
      65    H31     24.589193   22.938462   21.193395 H          1 MOL1         0.0751
      66    O16     23.230799   21.378188   21.609231 O.3        1 MOL1        -0.3740
      67    C20     23.140396   23.525753   22.706804 C.3        1 MOL1         0.1003
      68    H32     23.331110   24.593950   22.540283 H          1 MOL1         0.0783
      69    O17     23.942371   23.063469   23.805986 O.3        1 MOL1        -0.5519
      70    H33     24.205617   22.133260   23.596865 H          1 MOL1         0.3769
      71    C21     21.636550   23.350864   23.022514 C.3        1 MOL1         0.1053
      72    H34     21.472434   22.305821   23.313779 H          1 MOL1         0.0783
      73    O18     21.288658   24.217530   24.105913 O.3        1 MOL1        -0.5519
      74    H35     21.962189   24.046174   24.799890 H          1 MOL1         0.3769
      75    C22     20.741626   23.651936   21.791568 C.3        1 MOL1         0.1018
      76    H36     20.680247   24.740771   21.666085 H          1 MOL1         0.0783
      77    C23     21.278922   23.011326   20.477183 C.3        1 MOL1         0.1043
      78    H37     21.120423   21.929204   20.543858 H          1 MOL1         0.0783
      79    O19     22.698481   23.272968   20.340568 O.3        1 MOL1        -0.3740
      80    C24     20.575712   23.485144   19.176821 C.3        1 MOL1         0.0138
      81    H38     19.775484   22.777083   18.932066 H          1 MOL1         0.0794
      82    H39     21.297029   23.431948   18.350231 H          1 MOL1         0.0794
      83    O20     20.038536   24.810444   19.267098 O.3        1 MOL1        -0.5486
      84    H40     19.275505   24.777592   19.890581 H          1 MOL1         0.3769
      85    C25     24.747336   17.587818   20.679472 C.3        1 MOL1         0.2972
      86    H41     25.352100   16.766915   20.272892 H          1 MOL1         0.0751
      87    O21     23.544783   17.102457   21.304313 O.3        1 MOL1        -0.3740
      88    C26     25.546213   18.402072   21.733022 C.3        1 MOL1         0.1003
      89    H42     26.439232   18.796426   21.230996 H          1 MOL1         0.0783
      90    O22     25.955023   17.575062   22.834264 O.3        1 MOL1        -0.5519
      91    H43     25.146970   17.114329   23.175857 H          1 MOL1         0.3769
      92    C27     24.715035   19.606527   22.242143 C.3        1 MOL1         0.1053
      93    H44     23.854202   19.218053   22.804048 H          1 MOL1         0.0783
      94    O23     25.522367   20.425162   23.095489 O.3        1 MOL1        -0.5519
      95    H45     25.986460   19.795459   23.691058 H          1 MOL1         0.3769
      96    C28     24.180680   20.448052   21.057840 C.3        1 MOL1         0.1018
      97    H46     25.029553   20.956948   20.582383 H          1 MOL1         0.0783
      98    C29     23.460771   19.561092   20.004769 C.3        1 MOL1         0.1043
      99    H47     22.559211   19.138239   20.465851 H          1 MOL1         0.0783
     100    O24     24.354409   18.487624   19.619134 O.3        1 MOL1        -0.3740
     101    C30     23.005534   20.301081   18.720373 C.3        1 MOL1         0.0138
     102    H48     21.996833   20.698670   18.884990 H          1 MOL1         0.0794
     103    H49     22.926014   19.568192   17.906420 H          1 MOL1         0.0794
     104    O25     23.883965   21.365181   18.336987 O.3        1 MOL1        -0.5486
     105    H50     23.666372   22.135834   18.910843 H          1 MOL1         0.3769
     106    C31     21.342507   13.757946   22.130815 C.3        1 MOL1         0.2972
     107    H51     20.919913   12.767397   22.342378 H          1 MOL1         0.0751
     108    O26     20.318394   14.758416   21.975418 O.3        1 MOL1        -0.3740
     109    C32     22.256914   14.201986   23.295441 C.3        1 MOL1         0.1003
     110    H52     23.089733   13.489696   23.360130 H          1 MOL1         0.0783
     111    O27     21.525890   14.200354   24.532454 O.3        1 MOL1        -0.5519
     112    H53     20.579803   14.381866   24.307760 H          1 MOL1         0.3769
     113    C33     22.840342   15.605327   23.015529 C.3        1 MOL1         0.1053
     114    H54     22.011548   16.321116   23.049293 H          1 MOL1         0.0783
     115    O28     23.798453   15.937855   24.025218 O.3        1 MOL1        -0.5519
     116    H55     23.363703   15.699048   24.874228 H          1 MOL1         0.3769
     117    C34     23.493843   15.696809   21.613792 C.3        1 MOL1         0.1018
     118    H56     24.494553   15.247579   21.666162 H          1 MOL1         0.0783
     119    C35     22.652526   15.018372   20.491762 C.3        1 MOL1         0.1043
     120    H57     21.808375   15.682019   20.265633 H          1 MOL1         0.0783
     121    O29     22.134936   13.733787   20.926648 O.3        1 MOL1        -0.3740
     122    C36     23.430103   14.809266   19.170349 C.3        1 MOL1         0.0138
     123    H58     23.586657   15.788497   18.698064 H          1 MOL1         0.0794
     124    H59     22.807917   14.214701   18.487943 H          1 MOL1         0.0794
     125    O30     24.691843   14.164436   19.382733 O.3        1 MOL1        -0.5486
     126    H60     25.089533   13.989489   18.501879 H          1 MOL1         0.3769
     127    C1      20.002848   18.165137   22.069783 C.3        1 MOL1        -0.1693
     128    H1      19.059219   17.672944   21.810606 H          1 MOL1         0.0829
     129    H2      20.806450   17.724932   21.469416 H          1 MOL1         0.0829
     130    C2      20.275004   18.291118   23.605886 C.3        1 MOL1        -0.1768
     131    H3      19.904472   17.470721   24.230177 H          1 MOL1         0.0829
     132    H4      21.320413   18.492067   23.870971 H          1 MOL1         0.0829
     133    C3      19.364491   19.552066   23.531084 C.3        1 MOL1         0.1211
     134    H5      18.290663   19.323277   23.566130 H          1 MOL1         0.0786
     135    C4      19.928241   19.723886   22.088529 C.3        1 MOL1        -0.1768
     136    H6      20.899493   20.225794   22.040766 H          1 MOL1         0.0829
     137    H7      19.252754   20.185698   21.360695 H          1 MOL1         0.0829
     138    O1      19.679772   20.593249   24.425674 O.3        1 MOL1        -0.5515
     139    H8      20.653880   20.608557   24.502676 H          1 MOL1         0.3773
@<TRIPOS>BOND
    1     1     2    1
    2     1     3    1
    3     1     4    1
    4     4     5    1
    5     4     6    1
    6     6     7    1
    7     4     8    1
    8     8     9    1
    9     8    10    1
   10    10    11    1
   11     8    12    1
   12    12    13    1
   13    12    14    1
   14    14    15    1
   15     1    16    1
   16    14    16    1
   17    14    17    1
   18    17    18    1
   19    17    19    1
   20    17    20    1
   21    20    21    1
   22    22    23    1
   23    22    24    1
   24    22    25    1
   25    25    26    1
   26    25    27    1
   27    27    28    1
   28    25    29    1
   29    29    30    1
   30    29    31    1
   31    31    32    1
   32     3    33    1
   33    29    33    1
   34    33    34    1
   35    33    35    1
   36    35    36    1
   37    22    37    1
   38    35    37    1
   39    35    38    1
   40    38    39    1
   41    38    40    1
   42    38    41    1
   43    41    42    1
   44    43    44    1
   45    43    45    1
   46    43    46    1
   47    46    47    1
   48    46    48    1
   49    48    49    1
   50    46    50    1
   51    50    51    1
   52    50    52    1
   53    52    53    1
   54    24    54    1
   55    50    54    1
   56    54    55    1
   57    54    56    1
   58    56    57    1
   59    43    58    1
   60    56    58    1
   61    56    59    1
   62    59    60    1
   63    59    61    1
   64    59    62    1
   65    62    63    1
   66    64    65    1
   67    64    66    1
   68    64    67    1
   69    67    68    1
   70    67    69    1
   71    69    70    1
   72    67    71    1
   73    71    72    1
   74    71    73    1
   75    73    74    1
   76    45    75    1
   77    71    75    1
   78    75    76    1
   79    75    77    1
   80    77    78    1
   81    64    79    1
   82    77    79    1
   83    77    80    1
   84    80    81    1
   85    80    82    1
   86    80    83    1
   87    83    84    1
   88    85    86    1
   89    85    87    1
   90    85    88    1
   91    88    89    1
   92    88    90    1
   93    90    91    1
   94    88    92    1
   95    92    93    1
   96    92    94    1
   97    94    95    1
   98    66    96    1
   99    92    96    1
  100    96    97    1
  101    96    98    1
  102    98    99    1
  103    85   100    1
  104    98   100    1
  105    98   101    1
  106   101   102    1
  107   101   103    1
  108   101   104    1
  109   104   105    1
  110   106   107    1
  111    12   108    1
  112   106   108    1
  113   106   109    1
  114   109   110    1
  115   109   111    1
  116   111   112    1
  117   109   113    1
  118   113   114    1
  119   113   115    1
  120   115   116    1
  121    87   117    1
  122   113   117    1
  123   117   118    1
  124   117   119    1
  125   119   120    1
  126   106   121    1
  127   119   121    1
  128   119   122    1
  129   122   123    1
  130   122   124    1
  131   122   125    1
  132   125   126    1
  133   127   128    1
  134   127   129    1
  135   127   130    1
  136   130   131    1
  137   130   132    1
  138   130   133    1
  139   133   134    1
  140   127   135    1
  141   133   135    1
  142   135   136    1
  143   135   137    1
  144   133   138    1
  145   138   139    1
@<TRIPOS>SUBSTRUCTURE
       1 MOL1            1 RESIDUE      1      MOL     
       2 MOL1          139 RESIDUE      1      MOL     
@<SCITEGIC>MOL_PROPERTY
feprocess Rank
SciTegic.value.IntegerValue
124

@<SCITEGIC>MOL_PROPERTY
Conf_Id
SciTegic.value.IntegerValue
234

@<SCITEGIC>MOL_PROPERTY
Probability
SciTegic.value.DoubleValue
0.01

@<SCITEGIC>MOL_PROPERTY
G
SciTegic.value.DoubleValue
549.345

@<SCITEGIC>MOL_PROPERTY
E
SciTegic.value.DoubleValue
370.703

@<SCITEGIC>MOL_PROPERTY
-TS
SciTegic.value.DoubleValue
178.642

@<SCITEGIC>MOL_PROPERTY
U+W
SciTegic.value.DoubleValue
248.192

@<SCITEGIC>MOL_PROPERTY
U
SciTegic.value.DoubleValue
286.503

@<SCITEGIC>MOL_PROPERTY
W
SciTegic.value.DoubleValue
-38.311

@<SCITEGIC>MOL_PROPERTY
W(PB)
SciTegic.value.DoubleValue
-44.209

@<SCITEGIC>MOL_PROPERTY
W(SA)
SciTegic.value.DoubleValue
5.898

@<SCITEGIC>MOL_PROPERTY
Valence
SciTegic.value.DoubleValue
155.237

@<SCITEGIC>MOL_PROPERTY
Coulomb
SciTegic.value.DoubleValue
153.399

@<SCITEGIC>MOL_PROPERTY
VdW
SciTegic.value.DoubleValue
-22.133

@<SCITEGIC>MOL_PROPERTY
VdW6
SciTegic.value.DoubleValue
-169.921

@<SCITEGIC>MOL_PROPERTY
VdW12
SciTegic.value.DoubleValue
147.788

@<SCITEGIC>MOL_PROPERTY
Bond
SciTegic.value.DoubleValue
4.632

@<SCITEGIC>MOL_PROPERTY
Angle
SciTegic.value.DoubleValue
12.776

@<SCITEGIC>MOL_PROPERTY
Pdih
SciTegic.value.DoubleValue
137.829

@<SCITEGIC>MOL_PROPERTY
Idih
SciTegic.value.DoubleValue
0.000

@<SCITEGIC>MOL_PROPERTY
Tether
SciTegic.value.DoubleValue
0.000

@<TRIPOS>MOLECULE
CD_guest-s16_fast_vm2_rndm.mol2 : feprocess host+ligand conformer 125
         139         145           2
SMALL
USER_CHARGES
 
@<TRIPOS>ATOM
       1    C1      16.071002   15.076036   21.037332 C.3        1 MOL1         0.2972
       2    H1      15.034142   14.873129   20.740458 H          1 MOL1         0.0751
       3    O1      16.227721   16.431611   21.501507 O.3        1 MOL1        -0.3740
       4    C2      16.472244   14.138172   22.202725 C.3        1 MOL1         0.1003
       5    H2      16.346509   13.103808   21.857210 H          1 MOL1         0.0783
       6    O2      15.622002   14.371308   23.336605 O.3        1 MOL1        -0.5519
       7    H3      15.426379   15.339076   23.342204 H          1 MOL1         0.3769
       8    C3      17.956281   14.338285   22.593412 C.3        1 MOL1         0.1053
       9    H4      18.058305   15.337311   23.037307 H          1 MOL1         0.0783
      10    O3      18.339198   13.344559   23.550582 O.3        1 MOL1        -0.5519
      11    H5      17.617350   13.338977   24.217697 H          1 MOL1         0.3769
      12    C4      18.881535   14.260538   21.354417 C.3        1 MOL1         0.1018
      13    H6      18.918640   13.216184   21.017804 H          1 MOL1         0.0783
      14    C5      18.366867   15.163830   20.196792 C.3        1 MOL1         0.1043
      15    H7      18.445329   16.209688   20.517802 H          1 MOL1         0.0783
      16    O4      16.975318   14.848908   19.934847 O.3        1 MOL1        -0.3740
      17    C6      19.147542   15.045027   18.863131 C.3        1 MOL1         0.0138
      18    H8      19.982284   15.756299   18.887945 H          1 MOL1         0.0794
      19    H9      18.490143   15.358987   18.042017 H          1 MOL1         0.0794
      20    O5      19.641908   13.725750   18.610236 O.3        1 MOL1        -0.5486
      21    H10     20.517551   13.667984   19.056992 H          1 MOL1         0.3769
      22    C7      14.838159   20.312440   20.801260 C.3        1 MOL1         0.2972
      23    H11     14.259144   21.186783   20.477192 H          1 MOL1         0.0751
      24    O6      16.104997   20.691636   21.369646 O.3        1 MOL1        -0.3740
      25    C8      14.060946   19.497984   21.866471 C.3        1 MOL1         0.1003
      26    H12     13.105315   19.197463   21.417647 H          1 MOL1         0.0783
      27    O7      13.807764   20.295339   23.035392 O.3        1 MOL1        -0.5519
      28    H13     14.668992   20.704253   23.304850 H          1 MOL1         0.3769
      29    C9      14.834073   18.213011   22.254579 C.3        1 MOL1         0.1053
      30    H14     15.733862   18.518153   22.804683 H          1 MOL1         0.0783
      31    O8      14.010347   17.397409   23.095233 O.3        1 MOL1        -0.5519
      32    H15     13.637380   18.011895   23.765469 H          1 MOL1         0.3769
      33    C10     15.281313   17.403234   21.009276 C.3        1 MOL1         0.1018
      34    H16     14.393826   16.926752   20.572684 H          1 MOL1         0.0783
      35    C11     15.964961   18.314836   19.947092 C.3        1 MOL1         0.1043
      36    H17     16.915767   18.670290   20.361356 H          1 MOL1         0.0783
      37    O9      15.101221   19.445820   19.679501 O.3        1 MOL1        -0.3740
      38    C12     16.293797   17.652201   18.586632 C.3        1 MOL1         0.0138
      39    H18     17.301751   17.226231   18.644704 H          1 MOL1         0.0794
      40    H19     16.331522   18.436081   17.818548 H          1 MOL1         0.0794
      41    O10     15.356030   16.640021   18.205549 O.3        1 MOL1        -0.5486
      42    H20     15.670113   15.803643   18.619362 H          1 MOL1         0.3769
      43    C13     18.558653   23.953402   21.938756 C.3        1 MOL1         0.2972
      44    H21     18.995583   24.947016   22.104186 H          1 MOL1         0.0751
      45    O11     19.579718   22.962785   21.707771 O.3        1 MOL1        -0.3740
      46    C14     17.738823   23.533899   23.182285 C.3        1 MOL1         0.1003
      47    H22     16.939865   24.274218   23.319377 H          1 MOL1         0.0783
      48    O12     18.577340   23.514386   24.348283 O.3        1 MOL1        -0.5519
      49    H23     19.509010   23.500494   24.023990 H          1 MOL1         0.3769
      50    C15     17.082847   22.152125   22.966291 C.3        1 MOL1         0.1053
      51    H24     17.883562   21.404204   22.924838 H          1 MOL1         0.0783
      52    O13     16.203957   21.857677   24.057533 O.3        1 MOL1        -0.5519
      53    H25     16.721292   22.074883   24.864890 H          1 MOL1         0.3769
      54    C16     16.298628   22.092459   21.634422 C.3        1 MOL1         0.1018
      55    H26     15.346554   22.624159   21.765079 H          1 MOL1         0.0783
      56    C17     17.093108   22.687851   20.436513 C.3        1 MOL1         0.1043
      57    H27     17.892598   21.979359   20.190596 H          1 MOL1         0.0783
      58    O14     17.683335   23.964791   20.792316 O.3        1 MOL1        -0.3740
      59    C18     16.246187   22.886434   19.156444 C.3        1 MOL1         0.0138
      60    H28     16.023342   21.900683   18.726594 H          1 MOL1         0.0794
      61    H29     16.848269   23.432662   18.417867 H          1 MOL1         0.0794
      62    O15     15.026273   23.589439   19.422078 O.3        1 MOL1        -0.5486
      63    H30     14.583029   23.753334   18.561118 H          1 MOL1         0.3769
      64    C19     23.598741   22.694531   20.677018 C.3        1 MOL1         0.2972
      65    H31     24.609979   22.850332   20.281641 H          1 MOL1         0.0751
      66    O16     23.423118   21.362326   21.198598 O.3        1 MOL1        -0.3740
      67    C20     23.278851   23.706398   21.808379 C.3        1 MOL1         0.1003
      68    H32     23.320244   24.711463   21.368657 H          1 MOL1         0.0783
      69    O17     24.237924   23.624597   22.873454 O.3        1 MOL1        -0.5519
      70    H33     24.306350   22.673413   23.142394 H          1 MOL1         0.3769
      71    C21     21.843253   23.480350   22.344131 C.3        1 MOL1         0.1053
      72    H34     21.811030   22.499819   22.836891 H          1 MOL1         0.0783
      73    O18     21.513109   24.501735   23.290576 O.3        1 MOL1        -0.5519
      74    H35     22.308721   24.589720   23.861693 H          1 MOL1         0.3769
      75    C22     20.816028   23.481411   21.183071 C.3        1 MOL1         0.1018
      76    H36     20.707212   24.512670   20.821972 H          1 MOL1         0.0783
      77    C23     21.249865   22.578751   19.993228 C.3        1 MOL1         0.1043
      78    H37     21.192187   21.531305   20.310398 H          1 MOL1         0.0783
      79    O19     22.618905   22.890504   19.633083 O.3        1 MOL1        -0.3740
      80    C24     20.361340   22.706355   18.727575 C.3        1 MOL1         0.0138
      81    H38     19.554572   21.966249   18.792519 H          1 MOL1         0.0794
      82    H39     20.963515   22.437048   17.849551 H          1 MOL1         0.0794
      83    O20     19.800099   24.013746   18.554057 O.3        1 MOL1        -0.5486
      84    H40     19.122444   24.139632   19.258573 H          1 MOL1         0.3769
      85    C25     25.104062   17.680259   21.855668 C.3        1 MOL1         0.2972
      86    H41     25.740228   16.797258   21.998624 H          1 MOL1         0.0751
      87    O21     23.705221   17.335022   21.841083 O.3        1 MOL1        -0.3740
      88    C26     25.344669   18.691352   23.000793 C.3        1 MOL1         0.1003
      89    H42     26.395210   19.006009   22.950437 H          1 MOL1         0.0783
      90    O22     25.092319   18.080969   24.276483 O.3        1 MOL1        -0.5519
      91    H43     24.492810   17.310194   24.114320 H          1 MOL1         0.3769
      92    C27     24.459200   19.944337   22.816886 C.3        1 MOL1         0.1053
      93    H44     23.416251   19.640096   22.966346 H          1 MOL1         0.0783
      94    O23     24.813624   20.920566   23.799970 O.3        1 MOL1        -0.5519
      95    H45     24.876921   20.416436   24.642404 H          1 MOL1         0.3769
      96    C28     24.594225   20.547729   21.394076 C.3        1 MOL1         0.1018
      97    H46     25.521825   21.132268   21.346224 H          1 MOL1         0.0783
      98    C29     24.569978   19.470337   20.270903 C.3        1 MOL1         0.1043
      99    H47     23.532846   19.125324   20.173102 H          1 MOL1         0.0783
     100    O24     25.412299   18.338370   20.610358 O.3        1 MOL1        -0.3740
     101    C30     25.002622   20.002207   18.883056 C.3        1 MOL1         0.0138
     102    H48     24.266011   20.741689   18.540592 H          1 MOL1         0.0794
     103    H49     24.975988   19.167499   18.169892 H          1 MOL1         0.0794
     104    O25     26.312788   20.583748   18.901323 O.3        1 MOL1        -0.5486
     105    H50     26.267003   21.432667   19.386862 H          1 MOL1         0.3769
     106    C31     21.302441   13.903674   21.478590 C.3        1 MOL1         0.2972
     107    H51     20.997884   12.866526   21.289021 H          1 MOL1         0.0751
     108    O26     20.169748   14.733507   21.795461 O.3        1 MOL1        -0.3740
     109    C32     22.262607   13.949724   22.695424 C.3        1 MOL1         0.1003
     110    H52     23.111888   13.291107   22.471749 H          1 MOL1         0.0783
     111    O27     21.591749   13.476293   23.874318 O.3        1 MOL1        -0.5519
     112    H53     20.639500   13.721778   23.773940 H          1 MOL1         0.3769
     113    C33     22.813405   15.378486   22.924907 C.3        1 MOL1         0.1053
     114    H54     21.981638   16.024823   23.238260 H          1 MOL1         0.0783
     115    O28     23.817494   15.346249   23.944655 O.3        1 MOL1        -0.5519
     116    H55     23.433264   14.794599   24.662407 H          1 MOL1         0.3769
     117    C34     23.402385   15.947330   21.613034 C.3        1 MOL1         0.1018
     118    H56     24.297781   15.370404   21.345882 H          1 MOL1         0.0783
     119    C35     22.376148   15.848184   20.453514 C.3        1 MOL1         0.1043
     120    H57     21.503182   16.465159   20.706757 H          1 MOL1         0.0783
     121    O29     21.969807   14.461693   20.323548 O.3        1 MOL1        -0.3740
     122    C36     22.901883   16.343378   19.081093 C.3        1 MOL1         0.0138
     123    H58     22.703614   17.419525   19.002112 H          1 MOL1         0.0794
     124    H59     22.321753   15.855827   18.286567 H          1 MOL1         0.0794
     125    O30     24.299995   16.096681   18.887777 O.3        1 MOL1        -0.5486
     126    H60     24.789472   16.754269   19.435223 H          1 MOL1         0.3769
     127    C1      19.859570   19.073682   23.532523 C.3        1 MOL1        -0.1693
     128    H1      19.302322   19.933661   23.923388 H          1 MOL1         0.0829
     129    H2      20.372875   18.581119   24.366620 H          1 MOL1         0.0829
     130    C2      20.734766   19.373908   22.274835 C.3        1 MOL1        -0.1768
     131    H3      21.526470   18.642947   22.086736 H          1 MOL1         0.0829
     132    H4      21.159038   20.378709   22.227645 H          1 MOL1         0.0829
     133    C3      19.439680   19.132795   21.447251 C.3        1 MOL1         0.1211
     134    H5      18.784656   20.010403   21.379614 H          1 MOL1         0.0786
     135    C4      19.048349   18.138528   22.581025 C.3        1 MOL1        -0.1768
     136    H6      19.474606   17.137256   22.469896 H          1 MOL1         0.0829
     137    H7      17.979718   18.047962   22.792969 H          1 MOL1         0.0829
     138    O1      19.637139   18.555174   20.175109 O.3        1 MOL1        -0.5515
     139    H8      20.087177   19.220897   19.621222 H          1 MOL1         0.3773
@<TRIPOS>BOND
    1     1     2    1
    2     1     3    1
    3     1     4    1
    4     4     5    1
    5     4     6    1
    6     6     7    1
    7     4     8    1
    8     8     9    1
    9     8    10    1
   10    10    11    1
   11     8    12    1
   12    12    13    1
   13    12    14    1
   14    14    15    1
   15     1    16    1
   16    14    16    1
   17    14    17    1
   18    17    18    1
   19    17    19    1
   20    17    20    1
   21    20    21    1
   22    22    23    1
   23    22    24    1
   24    22    25    1
   25    25    26    1
   26    25    27    1
   27    27    28    1
   28    25    29    1
   29    29    30    1
   30    29    31    1
   31    31    32    1
   32     3    33    1
   33    29    33    1
   34    33    34    1
   35    33    35    1
   36    35    36    1
   37    22    37    1
   38    35    37    1
   39    35    38    1
   40    38    39    1
   41    38    40    1
   42    38    41    1
   43    41    42    1
   44    43    44    1
   45    43    45    1
   46    43    46    1
   47    46    47    1
   48    46    48    1
   49    48    49    1
   50    46    50    1
   51    50    51    1
   52    50    52    1
   53    52    53    1
   54    24    54    1
   55    50    54    1
   56    54    55    1
   57    54    56    1
   58    56    57    1
   59    43    58    1
   60    56    58    1
   61    56    59    1
   62    59    60    1
   63    59    61    1
   64    59    62    1
   65    62    63    1
   66    64    65    1
   67    64    66    1
   68    64    67    1
   69    67    68    1
   70    67    69    1
   71    69    70    1
   72    67    71    1
   73    71    72    1
   74    71    73    1
   75    73    74    1
   76    45    75    1
   77    71    75    1
   78    75    76    1
   79    75    77    1
   80    77    78    1
   81    64    79    1
   82    77    79    1
   83    77    80    1
   84    80    81    1
   85    80    82    1
   86    80    83    1
   87    83    84    1
   88    85    86    1
   89    85    87    1
   90    85    88    1
   91    88    89    1
   92    88    90    1
   93    90    91    1
   94    88    92    1
   95    92    93    1
   96    92    94    1
   97    94    95    1
   98    66    96    1
   99    92    96    1
  100    96    97    1
  101    96    98    1
  102    98    99    1
  103    85   100    1
  104    98   100    1
  105    98   101    1
  106   101   102    1
  107   101   103    1
  108   101   104    1
  109   104   105    1
  110   106   107    1
  111    12   108    1
  112   106   108    1
  113   106   109    1
  114   109   110    1
  115   109   111    1
  116   111   112    1
  117   109   113    1
  118   113   114    1
  119   113   115    1
  120   115   116    1
  121    87   117    1
  122   113   117    1
  123   117   118    1
  124   117   119    1
  125   119   120    1
  126   106   121    1
  127   119   121    1
  128   119   122    1
  129   122   123    1
  130   122   124    1
  131   122   125    1
  132   125   126    1
  133   127   128    1
  134   127   129    1
  135   127   130    1
  136   130   131    1
  137   130   132    1
  138   130   133    1
  139   133   134    1
  140   127   135    1
  141   133   135    1
  142   135   136    1
  143   135   137    1
  144   133   138    1
  145   138   139    1
@<TRIPOS>SUBSTRUCTURE
       1 MOL1            1 RESIDUE      1      MOL     
       2 MOL1          139 RESIDUE      1      MOL     
@<SCITEGIC>MOL_PROPERTY
feprocess Rank
SciTegic.value.IntegerValue
125

@<SCITEGIC>MOL_PROPERTY
Conf_Id
SciTegic.value.IntegerValue
707

@<SCITEGIC>MOL_PROPERTY
Probability
SciTegic.value.DoubleValue
0.01

@<SCITEGIC>MOL_PROPERTY
G
SciTegic.value.DoubleValue
549.357

@<SCITEGIC>MOL_PROPERTY
E
SciTegic.value.DoubleValue
372.427

@<SCITEGIC>MOL_PROPERTY
-TS
SciTegic.value.DoubleValue
176.930

@<SCITEGIC>MOL_PROPERTY
U+W
SciTegic.value.DoubleValue
249.915

@<SCITEGIC>MOL_PROPERTY
U
SciTegic.value.DoubleValue
288.208

@<SCITEGIC>MOL_PROPERTY
W
SciTegic.value.DoubleValue
-38.293

@<SCITEGIC>MOL_PROPERTY
W(PB)
SciTegic.value.DoubleValue
-44.202

@<SCITEGIC>MOL_PROPERTY
W(SA)
SciTegic.value.DoubleValue
5.909

@<SCITEGIC>MOL_PROPERTY
Valence
SciTegic.value.DoubleValue
155.352

@<SCITEGIC>MOL_PROPERTY
Coulomb
SciTegic.value.DoubleValue
156.514

@<SCITEGIC>MOL_PROPERTY
VdW
SciTegic.value.DoubleValue
-23.658

@<SCITEGIC>MOL_PROPERTY
VdW6
SciTegic.value.DoubleValue
-169.691

@<SCITEGIC>MOL_PROPERTY
VdW12
SciTegic.value.DoubleValue
146.033

@<SCITEGIC>MOL_PROPERTY
Bond
SciTegic.value.DoubleValue
4.459

@<SCITEGIC>MOL_PROPERTY
Angle
SciTegic.value.DoubleValue
11.904

@<SCITEGIC>MOL_PROPERTY
Pdih
SciTegic.value.DoubleValue
138.990

@<SCITEGIC>MOL_PROPERTY
Idih
SciTegic.value.DoubleValue
0.000

@<SCITEGIC>MOL_PROPERTY
Tether
SciTegic.value.DoubleValue
0.000

@<TRIPOS>MOLECULE
CD_guest-s16_fast_vm2_rndm.mol2 : feprocess host+ligand conformer 126
         139         145           2
SMALL
USER_CHARGES
 
@<TRIPOS>ATOM
       1    C1      16.105151   15.147270   21.162156 C.3        1 MOL1         0.2972
       2    H1      15.046715   14.980831   20.923748 H          1 MOL1         0.0751
       3    O1      16.331032   16.466497   21.691743 O.3        1 MOL1        -0.3740
       4    C2      16.583449   14.145183   22.243562 C.3        1 MOL1         0.1003
       5    H2      16.402472   13.132154   21.861455 H          1 MOL1         0.0783
       6    O2      15.844162   14.338149   23.461142 O.3        1 MOL1        -0.5519
       7    H3      15.760671   15.315113   23.591223 H          1 MOL1         0.3769
       8    C3      18.103113   14.295383   22.512472 C.3        1 MOL1         0.1053
       9    H4      18.269609   15.265175   23.001226 H          1 MOL1         0.0783
      10    O3      18.543540   13.238188   23.372598 O.3        1 MOL1        -0.5519
      11    H5      17.885511   13.208881   24.102102 H          1 MOL1         0.3769
      12    C4      18.918583   14.276025   21.195852 C.3        1 MOL1         0.1018
      13    H6      18.886712   13.256955   20.788451 H          1 MOL1         0.0783
      14    C5      18.331179   15.270094   20.154453 C.3        1 MOL1         0.1043
      15    H7      18.444537   16.287169   20.544831 H          1 MOL1         0.0783
      16    O4      16.925098   14.973528   19.986998 O.3        1 MOL1        -0.3740
      17    C6      18.991227   15.255296   18.753857 C.3        1 MOL1         0.0138
      18    H8      19.851772   15.935094   18.769980 H          1 MOL1         0.0794
      19    H9      18.277272   15.668906   18.029359 H          1 MOL1         0.0794
      20    O5      19.410486   13.950845   18.339187 O.3        1 MOL1        -0.5486
      21    H10     20.337698   13.846386   18.651905 H          1 MOL1         0.3769
      22    C7      14.756816   20.303004   21.588818 C.3        1 MOL1         0.2972
      23    H11     14.099593   21.181676   21.555535 H          1 MOL1         0.0751
      24    O6      16.143925   20.688434   21.570790 O.3        1 MOL1        -0.3740
      25    C8      14.487190   19.503681   22.886543 C.3        1 MOL1         0.1003
      26    H12     13.431078   19.204259   22.878136 H          1 MOL1         0.0783
      27    O7      14.740567   20.326747   24.035991 O.3        1 MOL1        -0.5519
      28    H13     15.357611   21.037276   23.739314 H          1 MOL1         0.3769
      29    C9      15.347935   18.220651   22.940709 C.3        1 MOL1         0.1053
      30    H14     16.396678   18.519770   23.051131 H          1 MOL1         0.0783
      31    O8      14.955214   17.423328   24.063895 O.3        1 MOL1        -0.5519
      32    H15     14.905187   18.052622   24.817332 H          1 MOL1         0.3769
      33    C10     15.226449   17.389711   21.642179 C.3        1 MOL1         0.1018
      34    H16     14.257742   16.872978   21.649949 H          1 MOL1         0.0783
      35    C11     15.363572   18.265567   20.363136 C.3        1 MOL1         0.1043
      36    H17     16.413070   18.577131   20.291404 H          1 MOL1         0.0783
      37    O9      14.515692   19.440518   20.459138 O.3        1 MOL1        -0.3740
      38    C12     14.997674   17.537258   19.047116 C.3        1 MOL1         0.0138
      39    H18     15.807224   16.844424   18.788341 H          1 MOL1         0.0794
      40    H19     14.944493   18.279542   18.239434 H          1 MOL1         0.0794
      41    O10     13.756986   16.827091   19.149484 O.3        1 MOL1        -0.5486
      42    H20     13.565688   16.434549   18.270034 H          1 MOL1         0.3769
      43    C13     18.641762   23.827733   20.427137 C.3        1 MOL1         0.2972
      44    H21     19.072179   24.731243   19.976299 H          1 MOL1         0.0751
      45    O11     19.653671   23.014643   21.054673 O.3        1 MOL1        -0.3740
      46    C14     17.559344   24.187626   21.480968 C.3        1 MOL1         0.1003
      47    H22     16.772855   24.747621   20.958544 H          1 MOL1         0.0783
      48    O12     18.095570   25.007427   22.530946 O.3        1 MOL1        -0.5519
      49    H23     18.860998   24.517919   22.926450 H          1 MOL1         0.3769
      50    C15     16.918555   22.905816   22.069369 C.3        1 MOL1         0.1053
      51    H24     17.685118   22.382727   22.655318 H          1 MOL1         0.0783
      52    O13     15.823185   23.259570   22.920098 O.3        1 MOL1        -0.5519
      53    H25     16.153669   24.004215   23.470203 H          1 MOL1         0.3769
      54    C16     16.428376   21.955831   20.946890 C.3        1 MOL1         0.1018
      55    H26     15.535586   22.396975   20.484443 H          1 MOL1         0.0783
      56    C17     17.508937   21.734567   19.851295 C.3        1 MOL1         0.1043
      57    H27     18.331913   21.161551   20.292349 H          1 MOL1         0.0783
      58    O14     18.005630   23.022612   19.410710 O.3        1 MOL1        -0.3740
      59    C18     17.031902   20.944885   18.604799 C.3        1 MOL1         0.0138
      60    H28     17.210231   19.877019   18.779186 H          1 MOL1         0.0794
      61    H29     17.660395   21.230083   17.750706 H          1 MOL1         0.0794
      62    O15     15.651053   21.160834   18.289332 O.3        1 MOL1        -0.5486
      63    H30     15.121556   20.670992   18.961557 H          1 MOL1         0.3769
      64    C19     23.632722   22.805401   22.045866 C.3        1 MOL1         0.2972
      65    H31     24.690763   22.957830   22.295258 H          1 MOL1         0.0751
      66    O16     23.312233   21.409404   21.891247 O.3        1 MOL1        -0.3740
      67    C20     22.736614   23.382206   23.166616 C.3        1 MOL1         0.1003
      68    H32     22.913157   24.464742   23.212890 H          1 MOL1         0.0783
      69    O17     23.064468   22.790556   24.434302 O.3        1 MOL1        -0.5519
      70    H33     23.527388   21.936869   24.245047 H          1 MOL1         0.3769
      71    C21     21.246755   23.149941   22.832125 C.3        1 MOL1         0.1053
      72    H34     21.068221   22.068456   22.863080 H          1 MOL1         0.0783
      73    O18     20.431521   23.799549   23.812263 O.3        1 MOL1        -0.5519
      74    H35     20.835303   23.555014   24.675109 H          1 MOL1         0.3769
      75    C22     20.889033   23.663783   21.413682 C.3        1 MOL1         0.1018
      76    H36     20.785075   24.756315   21.453453 H          1 MOL1         0.0783
      77    C23     21.938711   23.260488   20.335606 C.3        1 MOL1         0.1043
      78    H37     21.802108   22.192174   20.125826 H          1 MOL1         0.0783
      79    O19     23.292673   23.475240   20.814646 O.3        1 MOL1        -0.3740
      80    C24     21.770338   24.011116   18.993086 C.3        1 MOL1         0.0138
      81    H38     20.860488   23.643790   18.499334 H          1 MOL1         0.0794
      82    H39     22.618322   23.759499   18.341941 H          1 MOL1         0.0794
      83    O20     21.685587   25.429825   19.175251 O.3        1 MOL1        -0.5486
      84    H40     21.665341   25.844152   18.284972 H          1 MOL1         0.3769
      85    C25     25.089572   17.670776   21.548088 C.3        1 MOL1         0.2972
      86    H41     25.792067   16.840272   21.401692 H          1 MOL1         0.0751
      87    O21     23.740759   17.200685   21.737729 O.3        1 MOL1        -0.3740
      88    C26     25.484174   18.474104   22.812219 C.3        1 MOL1         0.1003
      89    H42     26.499514   18.861552   22.657019 H          1 MOL1         0.0783
      90    O22     25.470850   17.623384   23.969769 O.3        1 MOL1        -0.5519
      91    H43     24.825381   16.897371   23.783808 H          1 MOL1         0.3769
      92    C27     24.535646   19.679107   23.015230 C.3        1 MOL1         0.1053
      93    H44     23.538214   19.290898   23.260164 H          1 MOL1         0.0783
      94    O23     25.012017   20.491368   24.092601 O.3        1 MOL1        -0.5519
      95    H45     25.248002   19.855016   24.804521 H          1 MOL1         0.3769
      96    C28     24.428705   20.521226   21.720498 C.3        1 MOL1         0.1018
      97    H46     25.372423   21.062483   21.572116 H          1 MOL1         0.0783
      98    C29     24.139551   19.646894   20.469600 C.3        1 MOL1         0.1043
      99    H47     23.131865   19.227829   20.574010 H          1 MOL1         0.0783
     100    O24     25.100541   18.562273   20.409863 O.3        1 MOL1        -0.3740
     101    C30     24.160224   20.418561   19.123754 C.3        1 MOL1         0.0138
     102    H48     23.147840   20.790978   18.922287 H          1 MOL1         0.0794
     103    H49     24.404618   19.713201   18.318196 H          1 MOL1         0.0794
     104    O25     25.080245   21.516580   19.112404 O.3        1 MOL1        -0.5486
     105    H50     24.673161   22.240620   19.642050 H          1 MOL1         0.3769
     106    C31     21.324771   13.875642   20.996793 C.3        1 MOL1         0.2972
     107    H51     20.964321   12.890808   20.673596 H          1 MOL1         0.0751
     108    O26     20.258721   14.672733   21.550905 O.3        1 MOL1        -0.3740
     109    C32     22.398174   13.697842   22.099675 C.3        1 MOL1         0.1003
     110    H52     23.204265   13.079869   21.683226 H          1 MOL1         0.0783
     111    O27     21.828629   13.036210   23.240689 O.3        1 MOL1        -0.5519
     112    H53     20.894073   13.350621   23.312199 H          1 MOL1         0.3769
     113    C33     23.002521   15.060463   22.513762 C.3        1 MOL1         0.1053
     114    H54     22.221357   15.632025   23.030736 H          1 MOL1         0.0783
     115    O28     24.108924   14.850727   23.397616 O.3        1 MOL1        -0.5519
     116    H55     23.791985   14.190033   24.053060 H          1 MOL1         0.3769
     117    C34     23.461273   15.867602   21.274891 C.3        1 MOL1         0.1018
     118    H56     24.349825   15.381156   20.851278 H          1 MOL1         0.0783
     119    C35     22.350757   15.941311   20.190326 C.3        1 MOL1         0.1043
     120    H57     21.508455   16.518761   20.594012 H          1 MOL1         0.0783
     121    O29     21.909522   14.593905   19.888409 O.3        1 MOL1        -0.3740
     122    C36     22.773112   16.628579   18.865768 C.3        1 MOL1         0.0138
     123    H58     22.581926   17.704954   18.955812 H          1 MOL1         0.0794
     124    H59     22.127108   16.259516   18.058298 H          1 MOL1         0.0794
     125    O30     24.147631   16.412529   18.527684 O.3        1 MOL1        -0.5486
     126    H60     24.676762   17.042768   19.069416 H          1 MOL1         0.3769
     127    C1      20.110104   19.248467   23.910156 C.3        1 MOL1        -0.1693
     128    H1      19.704669   18.528115   24.632406 H          1 MOL1         0.0829
     129    H2      20.722425   19.981290   24.449161 H          1 MOL1         0.0829
     130    C2      19.060153   19.832714   22.911999 C.3        1 MOL1        -0.1768
     131    H3      18.049309   19.957125   23.309574 H          1 MOL1         0.0829
     132    H4      19.358254   20.764631   22.425284 H          1 MOL1         0.0829
     133    C3      19.321152   18.552310   22.063605 C.3        1 MOL1         0.1211
     134    H5      18.740442   17.678524   22.386840 H          1 MOL1         0.0786
     135    C4      20.763891   18.606899   22.645979 C.3        1 MOL1        -0.1768
     136    H6      21.448887   19.269370   22.107060 H          1 MOL1         0.0829
     137    H7      21.250714   17.640927   22.800316 H          1 MOL1         0.0829
     138    O1      19.244378   18.720686   20.667073 O.3        1 MOL1        -0.5515
     139    H8      19.798590   19.494484   20.454053 H          1 MOL1         0.3773
@<TRIPOS>BOND
    1     1     2    1
    2     1     3    1
    3     1     4    1
    4     4     5    1
    5     4     6    1
    6     6     7    1
    7     4     8    1
    8     8     9    1
    9     8    10    1
   10    10    11    1
   11     8    12    1
   12    12    13    1
   13    12    14    1
   14    14    15    1
   15     1    16    1
   16    14    16    1
   17    14    17    1
   18    17    18    1
   19    17    19    1
   20    17    20    1
   21    20    21    1
   22    22    23    1
   23    22    24    1
   24    22    25    1
   25    25    26    1
   26    25    27    1
   27    27    28    1
   28    25    29    1
   29    29    30    1
   30    29    31    1
   31    31    32    1
   32     3    33    1
   33    29    33    1
   34    33    34    1
   35    33    35    1
   36    35    36    1
   37    22    37    1
   38    35    37    1
   39    35    38    1
   40    38    39    1
   41    38    40    1
   42    38    41    1
   43    41    42    1
   44    43    44    1
   45    43    45    1
   46    43    46    1
   47    46    47    1
   48    46    48    1
   49    48    49    1
   50    46    50    1
   51    50    51    1
   52    50    52    1
   53    52    53    1
   54    24    54    1
   55    50    54    1
   56    54    55    1
   57    54    56    1
   58    56    57    1
   59    43    58    1
   60    56    58    1
   61    56    59    1
   62    59    60    1
   63    59    61    1
   64    59    62    1
   65    62    63    1
   66    64    65    1
   67    64    66    1
   68    64    67    1
   69    67    68    1
   70    67    69    1
   71    69    70    1
   72    67    71    1
   73    71    72    1
   74    71    73    1
   75    73    74    1
   76    45    75    1
   77    71    75    1
   78    75    76    1
   79    75    77    1
   80    77    78    1
   81    64    79    1
   82    77    79    1
   83    77    80    1
   84    80    81    1
   85    80    82    1
   86    80    83    1
   87    83    84    1
   88    85    86    1
   89    85    87    1
   90    85    88    1
   91    88    89    1
   92    88    90    1
   93    90    91    1
   94    88    92    1
   95    92    93    1
   96    92    94    1
   97    94    95    1
   98    66    96    1
   99    92    96    1
  100    96    97    1
  101    96    98    1
  102    98    99    1
  103    85   100    1
  104    98   100    1
  105    98   101    1
  106   101   102    1
  107   101   103    1
  108   101   104    1
  109   104   105    1
  110   106   107    1
  111    12   108    1
  112   106   108    1
  113   106   109    1
  114   109   110    1
  115   109   111    1
  116   111   112    1
  117   109   113    1
  118   113   114    1
  119   113   115    1
  120   115   116    1
  121    87   117    1
  122   113   117    1
  123   117   118    1
  124   117   119    1
  125   119   120    1
  126   106   121    1
  127   119   121    1
  128   119   122    1
  129   122   123    1
  130   122   124    1
  131   122   125    1
  132   125   126    1
  133   127   128    1
  134   127   129    1
  135   127   130    1
  136   130   131    1
  137   130   132    1
  138   130   133    1
  139   133   134    1
  140   127   135    1
  141   133   135    1
  142   135   136    1
  143   135   137    1
  144   133   138    1
  145   138   139    1
@<TRIPOS>SUBSTRUCTURE
       1 MOL1            1 RESIDUE      1      MOL     
       2 MOL1          139 RESIDUE      1      MOL     
@<SCITEGIC>MOL_PROPERTY
feprocess Rank
SciTegic.value.IntegerValue
126

@<SCITEGIC>MOL_PROPERTY
Conf_Id
SciTegic.value.IntegerValue
439

@<SCITEGIC>MOL_PROPERTY
Probability
SciTegic.value.DoubleValue
0.01

@<SCITEGIC>MOL_PROPERTY
G
SciTegic.value.DoubleValue
549.365

@<SCITEGIC>MOL_PROPERTY
E
SciTegic.value.DoubleValue
372.327

@<SCITEGIC>MOL_PROPERTY
-TS
SciTegic.value.DoubleValue
177.038

@<SCITEGIC>MOL_PROPERTY
U+W
SciTegic.value.DoubleValue
249.815

@<SCITEGIC>MOL_PROPERTY
U
SciTegic.value.DoubleValue
286.110

@<SCITEGIC>MOL_PROPERTY
W
SciTegic.value.DoubleValue
-36.295

@<SCITEGIC>MOL_PROPERTY
W(PB)
SciTegic.value.DoubleValue
-42.235

@<SCITEGIC>MOL_PROPERTY
W(SA)
SciTegic.value.DoubleValue
5.940

@<SCITEGIC>MOL_PROPERTY
Valence
SciTegic.value.DoubleValue
155.099

@<SCITEGIC>MOL_PROPERTY
Coulomb
SciTegic.value.DoubleValue
154.055

@<SCITEGIC>MOL_PROPERTY
VdW
SciTegic.value.DoubleValue
-23.044

@<SCITEGIC>MOL_PROPERTY
VdW6
SciTegic.value.DoubleValue
-168.628

@<SCITEGIC>MOL_PROPERTY
VdW12
SciTegic.value.DoubleValue
145.584

@<SCITEGIC>MOL_PROPERTY
Bond
SciTegic.value.DoubleValue
4.447

@<SCITEGIC>MOL_PROPERTY
Angle
SciTegic.value.DoubleValue
11.444

@<SCITEGIC>MOL_PROPERTY
Pdih
SciTegic.value.DoubleValue
139.208

@<SCITEGIC>MOL_PROPERTY
Idih
SciTegic.value.DoubleValue
0.000

@<SCITEGIC>MOL_PROPERTY
Tether
SciTegic.value.DoubleValue
0.000

@<TRIPOS>MOLECULE
CD_guest-s16_fast_vm2_rndm.mol2 : feprocess host+ligand conformer 127
         139         145           2
SMALL
USER_CHARGES
 
@<TRIPOS>ATOM
       1    C1      16.272451   15.242389   22.014009 C.3        1 MOL1         0.2972
       2    H1      15.233872   15.088752   22.334836 H          1 MOL1         0.0751
       3    O1      16.540514   16.627969   21.727937 O.3        1 MOL1        -0.3740
       4    C2      17.240914   14.779662   23.127508 C.3        1 MOL1         0.1003
       5    H2      17.069210   13.707567   23.289819 H          1 MOL1         0.0783
       6    O2      16.987811   15.492167   24.349661 O.3        1 MOL1        -0.5519
       7    H3      16.375969   16.237500   24.129362 H          1 MOL1         0.3769
       8    C3      18.711048   14.970082   22.690531 C.3        1 MOL1         0.1053
       9    H4      18.902751   16.046419   22.618074 H          1 MOL1         0.0783
      10    O3      19.569629   14.401186   23.682905 O.3        1 MOL1        -0.5519
      11    H5      19.207589   14.723112   24.539184 H          1 MOL1         0.3769
      12    C4      18.992663   14.339694   21.301742 C.3        1 MOL1         0.1018
      13    H6      19.100429   13.253195   21.418755 H          1 MOL1         0.0783
      14    C5      17.883180   14.662970   20.257951 C.3        1 MOL1         0.1043
      15    H7      17.999839   15.713775   19.965843 H          1 MOL1         0.0783
      16    O4      16.558775   14.479195   20.823558 O.3        1 MOL1        -0.3740
      17    C6      17.986100   13.819264   18.965166 C.3        1 MOL1         0.0138
      18    H8      18.869004   14.150772   18.402021 H          1 MOL1         0.0794
      19    H9      17.105692   14.024160   18.341194 H          1 MOL1         0.0794
      20    O5      18.085422   12.417087   19.242707 O.3        1 MOL1        -0.5486
      21    H10     18.064026   11.940757   18.384027 H          1 MOL1         0.3769
      22    C7      14.559838   20.273790   21.290188 C.3        1 MOL1         0.2972
      23    H11     13.814009   21.058152   21.108594 H          1 MOL1         0.0751
      24    O6      15.861316   20.837305   21.541686 O.3        1 MOL1        -0.3740
      25    C8      14.173898   19.455829   22.550456 C.3        1 MOL1         0.1003
      26    H12     13.188894   19.006092   22.370173 H          1 MOL1         0.0783
      27    O7      14.104597   20.318603   23.695306 O.3        1 MOL1        -0.5519
      28    H13     14.851942   20.955110   23.598617 H          1 MOL1         0.3769
      29    C9      15.189835   18.314101   22.802910 C.3        1 MOL1         0.1053
      30    H14     16.154409   18.769522   23.064035 H          1 MOL1         0.0783
      31    O8      14.736134   17.490520   23.882172 O.3        1 MOL1        -0.5519
      32    H15     14.441480   18.121608   24.576605 H          1 MOL1         0.3769
      33    C10     15.383618   17.460313   21.527195 C.3        1 MOL1         0.1018
      34    H16     14.474722   16.869916   21.351078 H          1 MOL1         0.0783
      35    C11     15.666042   18.340164   20.283123 C.3        1 MOL1         0.1043
      36    H17     16.636780   18.822354   20.436424 H          1 MOL1         0.0783
      37    O9      14.647029   19.366131   20.166696 O.3        1 MOL1        -0.3740
      38    C12     15.754114   17.550298   18.950013 C.3        1 MOL1         0.0138
      39    H18     16.796642   17.242353   18.799562 H          1 MOL1         0.0794
      40    H19     15.499424   18.225513   18.122264 H          1 MOL1         0.0794
      41    O10     14.907701   16.394495   18.917726 O.3        1 MOL1        -0.5486
      42    H20     15.300718   15.727367   19.526887 H          1 MOL1         0.3769
      43    C13     18.556952   23.836543   20.566501 C.3        1 MOL1         0.2972
      44    H21     19.052884   24.728874   20.164129 H          1 MOL1         0.0751
      45    O11     19.505177   22.942965   21.194841 O.3        1 MOL1        -0.3740
      46    C14     17.468958   24.239623   21.594546 C.3        1 MOL1         0.1003
      47    H22     16.762184   24.898583   21.073708 H          1 MOL1         0.0783
      48    O12     18.040352   24.950037   22.705047 O.3        1 MOL1        -0.5519
      49    H23     18.774360   24.391366   23.067369 H          1 MOL1         0.3769
      50    C15     16.681329   23.003877   22.093722 C.3        1 MOL1         0.1053
      51    H24     17.357675   22.413200   22.723621 H          1 MOL1         0.0783
      52    O13     15.564450   23.441477   22.875139 O.3        1 MOL1        -0.5519
      53    H25     15.930742   24.107735   23.497543 H          1 MOL1         0.3769
      54    C16     16.188158   22.101217   20.929521 C.3        1 MOL1         0.1018
      55    H26     15.312408   22.575923   20.468538 H          1 MOL1         0.0783
      56    C17     17.295039   21.864429   19.857570 C.3        1 MOL1         0.1043
      57    H27     18.061892   21.218460   20.299114 H          1 MOL1         0.0783
      58    O14     17.899058   23.127912   19.498602 O.3        1 MOL1        -0.3740
      59    C18     16.830466   21.186611   18.542015 C.3        1 MOL1         0.0138
      60    H28     16.988031   20.106302   18.628271 H          1 MOL1         0.0794
      61    H29     17.481237   21.528712   17.726114 H          1 MOL1         0.0794
      62    O15     15.462551   21.451964   18.214039 O.3        1 MOL1        -0.5486
      63    H30     14.917490   20.846515   18.768254 H          1 MOL1         0.3769
      64    C19     23.589156   22.746588   22.027436 C.3        1 MOL1         0.2972
      65    H31     24.645589   22.971393   22.221019 H          1 MOL1         0.0751
      66    O16     23.356992   21.329093   21.894485 O.3        1 MOL1        -0.3740
      67    C20     22.701158   23.282984   23.180434 C.3        1 MOL1         0.1003
      68    H32     22.831686   24.372563   23.212420 H          1 MOL1         0.0783
      69    O17     23.094566   22.731159   24.446255 O.3        1 MOL1        -0.5519
      70    H33     23.390007   21.799143   24.287395 H          1 MOL1         0.3769
      71    C21     21.205792   22.996273   22.901927 C.3        1 MOL1         0.1053
      72    H34     21.054465   21.910065   22.929515 H          1 MOL1         0.0783
      73    O18     20.405245   23.620711   23.910518 O.3        1 MOL1        -0.5519
      74    H35     20.839332   23.383385   24.760383 H          1 MOL1         0.3769
      75    C22     20.790334   23.525516   21.506883 C.3        1 MOL1         0.1018
      76    H36     20.732169   24.620665   21.568676 H          1 MOL1         0.0783
      77    C23     21.796795   23.120428   20.388660 C.3        1 MOL1         0.1043
      78    H37     21.692658   22.045579   20.198988 H          1 MOL1         0.0783
      79    O19     23.156267   23.393871   20.812309 O.3        1 MOL1        -0.3740
      80    C24     21.559527   23.845651   19.042038 C.3        1 MOL1         0.0138
      81    H38     20.640556   23.450171   18.588665 H          1 MOL1         0.0794
      82    H39     22.387723   23.601489   18.363369 H          1 MOL1         0.0794
      83    O20     21.451212   25.265731   19.203491 O.3        1 MOL1        -0.5486
      84    H40     21.392065   25.663661   18.307582 H          1 MOL1         0.3769
      85    C25     25.065693   17.586209   21.657930 C.3        1 MOL1         0.2972
      86    H41     25.709364   16.698161   21.613431 H          1 MOL1         0.0751
      87    O21     23.686995   17.260934   21.396446 O.3        1 MOL1        -0.3740
      88    C26     25.155406   18.237133   23.058551 C.3        1 MOL1         0.1003
      89    H42     26.191181   18.570891   23.203461 H          1 MOL1         0.0783
      90    O22     24.812866   17.295576   24.088317 O.3        1 MOL1        -0.5519
      91    H43     24.361049   16.533771   23.647241 H          1 MOL1         0.3769
      92    C27     24.236523   19.476364   23.134363 C.3        1 MOL1         0.1053
      93    H44     23.200711   19.129553   23.048304 H          1 MOL1         0.0783
      94    O23     24.421817   20.124089   24.395458 O.3        1 MOL1        -0.5519
      95    H45     24.437187   19.390896   25.051416 H          1 MOL1         0.3769
      96    C28     24.512820   20.466925   21.975528 C.3        1 MOL1         0.1018
      97    H46     25.431438   21.022563   22.204498 H          1 MOL1         0.0783
      98    C29     24.659060   19.763961   20.593333 C.3        1 MOL1         0.1043
      99    H47     23.658262   19.475402   20.254310 H          1 MOL1         0.0783
     100    O24     25.482495   18.570016   20.687605 O.3        1 MOL1        -0.3740
     101    C30     25.256600   20.688082   19.506213 C.3        1 MOL1         0.0138
     102    H48     24.531651   21.484527   19.289969 H          1 MOL1         0.0794
     103    H49     25.389388   20.106319   18.584233 H          1 MOL1         0.0794
     104    O25     26.503059   21.264924   19.915747 O.3        1 MOL1        -0.5486
     105    H50     26.838095   21.809716   19.170566 H          1 MOL1         0.3769
     106    C31     21.223957   14.103914   20.261767 C.3        1 MOL1         0.2972
     107    H51     20.792392   13.195584   19.821930 H          1 MOL1         0.0751
     108    O26     20.202415   14.958536   20.819041 O.3        1 MOL1        -0.3740
     109    C32     22.265960   13.760017   21.362257 C.3        1 MOL1         0.1003
     110    H52     23.074229   13.199917   20.874200 H          1 MOL1         0.0783
     111    O27     21.704565   12.944432   22.401045 O.3        1 MOL1        -0.5519
     112    H53     20.976579   13.468597   22.820982 H          1 MOL1         0.3769
     113    C33     22.878022   15.054314   21.954725 C.3        1 MOL1         0.1053
     114    H54     22.083701   15.601288   22.480941 H          1 MOL1         0.0783
     115    O28     23.922834   14.714421   22.871427 O.3        1 MOL1        -0.5519
     116    H55     23.570195   13.959056   23.393650 H          1 MOL1         0.3769
     117    C34     23.433844   15.963361   20.829517 C.3        1 MOL1         0.1018
     118    H56     24.346374   15.506260   20.424949 H          1 MOL1         0.0783
     119    C35     22.412380   16.159826   19.676633 C.3        1 MOL1         0.1043
     120    H57     21.571426   16.748444   20.059501 H          1 MOL1         0.0783
     121    O29     21.919891   14.865727   19.246933 O.3        1 MOL1        -0.3740
     122    C36     22.970971   16.933924   18.453929 C.3        1 MOL1         0.0138
     123    H58     22.812119   18.006724   18.623573 H          1 MOL1         0.0794
     124    H59     22.383043   16.661018   17.567500 H          1 MOL1         0.0794
     125    O30     24.363666   16.693444   18.217110 O.3        1 MOL1        -0.5486
     126    H60     24.863352   17.172934   18.916734 H          1 MOL1         0.3769
     127    C1      20.786212   19.237855   21.413072 C.3        1 MOL1        -0.1693
     128    H1      21.643857   18.820968   20.882918 H          1 MOL1         0.0829
     129    H2      20.820139   20.326627   21.316759 H          1 MOL1         0.0829
     130    C2      20.549123   18.709161   22.866112 C.3        1 MOL1        -0.1768
     131    H3      20.854463   17.668362   23.027352 H          1 MOL1         0.0829
     132    H4      20.953227   19.322737   23.678817 H          1 MOL1         0.0829
     133    C3      19.031062   18.894714   22.573704 C.3        1 MOL1         0.1211
     134    H5      18.377269   18.153975   23.048583 H          1 MOL1         0.0786
     135    C4      19.399576   18.601694   21.085059 C.3        1 MOL1        -0.1768
     136    H6      19.434090   17.536831   20.833340 H          1 MOL1         0.0829
     137    H7      18.812360   19.117115   20.322145 H          1 MOL1         0.0829
     138    O1      18.547004   20.192321   22.830201 O.3        1 MOL1        -0.5515
     139    H8      19.148850   20.818837   22.383416 H          1 MOL1         0.3773
@<TRIPOS>BOND
    1     1     2    1
    2     1     3    1
    3     1     4    1
    4     4     5    1
    5     4     6    1
    6     6     7    1
    7     4     8    1
    8     8     9    1
    9     8    10    1
   10    10    11    1
   11     8    12    1
   12    12    13    1
   13    12    14    1
   14    14    15    1
   15     1    16    1
   16    14    16    1
   17    14    17    1
   18    17    18    1
   19    17    19    1
   20    17    20    1
   21    20    21    1
   22    22    23    1
   23    22    24    1
   24    22    25    1
   25    25    26    1
   26    25    27    1
   27    27    28    1
   28    25    29    1
   29    29    30    1
   30    29    31    1
   31    31    32    1
   32     3    33    1
   33    29    33    1
   34    33    34    1
   35    33    35    1
   36    35    36    1
   37    22    37    1
   38    35    37    1
   39    35    38    1
   40    38    39    1
   41    38    40    1
   42    38    41    1
   43    41    42    1
   44    43    44    1
   45    43    45    1
   46    43    46    1
   47    46    47    1
   48    46    48    1
   49    48    49    1
   50    46    50    1
   51    50    51    1
   52    50    52    1
   53    52    53    1
   54    24    54    1
   55    50    54    1
   56    54    55    1
   57    54    56    1
   58    56    57    1
   59    43    58    1
   60    56    58    1
   61    56    59    1
   62    59    60    1
   63    59    61    1
   64    59    62    1
   65    62    63    1
   66    64    65    1
   67    64    66    1
   68    64    67    1
   69    67    68    1
   70    67    69    1
   71    69    70    1
   72    67    71    1
   73    71    72    1
   74    71    73    1
   75    73    74    1
   76    45    75    1
   77    71    75    1
   78    75    76    1
   79    75    77    1
   80    77    78    1
   81    64    79    1
   82    77    79    1
   83    77    80    1
   84    80    81    1
   85    80    82    1
   86    80    83    1
   87    83    84    1
   88    85    86    1
   89    85    87    1
   90    85    88    1
   91    88    89    1
   92    88    90    1
   93    90    91    1
   94    88    92    1
   95    92    93    1
   96    92    94    1
   97    94    95    1
   98    66    96    1
   99    92    96    1
  100    96    97    1
  101    96    98    1
  102    98    99    1
  103    85   100    1
  104    98   100    1
  105    98   101    1
  106   101   102    1
  107   101   103    1
  108   101   104    1
  109   104   105    1
  110   106   107    1
  111    12   108    1
  112   106   108    1
  113   106   109    1
  114   109   110    1
  115   109   111    1
  116   111   112    1
  117   109   113    1
  118   113   114    1
  119   113   115    1
  120   115   116    1
  121    87   117    1
  122   113   117    1
  123   117   118    1
  124   117   119    1
  125   119   120    1
  126   106   121    1
  127   119   121    1
  128   119   122    1
  129   122   123    1
  130   122   124    1
  131   122   125    1
  132   125   126    1
  133   127   128    1
  134   127   129    1
  135   127   130    1
  136   130   131    1
  137   130   132    1
  138   130   133    1
  139   133   134    1
  140   127   135    1
  141   133   135    1
  142   135   136    1
  143   135   137    1
  144   133   138    1
  145   138   139    1
@<TRIPOS>SUBSTRUCTURE
       1 MOL1            1 RESIDUE      1      MOL     
       2 MOL1          139 RESIDUE      1      MOL     
@<SCITEGIC>MOL_PROPERTY
feprocess Rank
SciTegic.value.IntegerValue
127

@<SCITEGIC>MOL_PROPERTY
Conf_Id
SciTegic.value.IntegerValue
460

@<SCITEGIC>MOL_PROPERTY
Probability
SciTegic.value.DoubleValue
0.01

@<SCITEGIC>MOL_PROPERTY
G
SciTegic.value.DoubleValue
549.409

@<SCITEGIC>MOL_PROPERTY
E
SciTegic.value.DoubleValue
370.443

@<SCITEGIC>MOL_PROPERTY
-TS
SciTegic.value.DoubleValue
178.965

@<SCITEGIC>MOL_PROPERTY
U+W
SciTegic.value.DoubleValue
247.932

@<SCITEGIC>MOL_PROPERTY
U
SciTegic.value.DoubleValue
285.219

@<SCITEGIC>MOL_PROPERTY
W
SciTegic.value.DoubleValue
-37.286

@<SCITEGIC>MOL_PROPERTY
W(PB)
SciTegic.value.DoubleValue
-43.229

@<SCITEGIC>MOL_PROPERTY
W(SA)
SciTegic.value.DoubleValue
5.943

@<SCITEGIC>MOL_PROPERTY
Valence
SciTegic.value.DoubleValue
155.120

@<SCITEGIC>MOL_PROPERTY
Coulomb
SciTegic.value.DoubleValue
152.234

@<SCITEGIC>MOL_PROPERTY
VdW
SciTegic.value.DoubleValue
-22.136

@<SCITEGIC>MOL_PROPERTY
VdW6
SciTegic.value.DoubleValue
-171.942

@<SCITEGIC>MOL_PROPERTY
VdW12
SciTegic.value.DoubleValue
149.806

@<SCITEGIC>MOL_PROPERTY
Bond
SciTegic.value.DoubleValue
4.784

@<SCITEGIC>MOL_PROPERTY
Angle
SciTegic.value.DoubleValue
12.123

@<SCITEGIC>MOL_PROPERTY
Pdih
SciTegic.value.DoubleValue
138.213

@<SCITEGIC>MOL_PROPERTY
Idih
SciTegic.value.DoubleValue
0.000

@<SCITEGIC>MOL_PROPERTY
Tether
SciTegic.value.DoubleValue
0.000

@<TRIPOS>MOLECULE
CD_guest-s16_fast_vm2_rndm.mol2 : feprocess host+ligand conformer 128
         139         145           2
SMALL
USER_CHARGES
 
@<TRIPOS>ATOM
       1    C1      16.215472   15.212516   20.958287 C.3        1 MOL1         0.2972
       2    H1      15.178735   14.982235   20.681832 H          1 MOL1         0.0751
       3    O1      16.361458   16.587812   21.367844 O.3        1 MOL1        -0.3740
       4    C2      16.644331   14.322546   22.152414 C.3        1 MOL1         0.1003
       5    H2      16.527734   13.275885   21.842376 H          1 MOL1         0.0783
       6    O2      15.804080   14.577022   23.289690 O.3        1 MOL1        -0.5519
       7    H3      15.547391   15.531232   23.248311 H          1 MOL1         0.3769
       8    C3      18.131671   14.549156   22.518763 C.3        1 MOL1         0.1053
       9    H4      18.230899   15.562984   22.927765 H          1 MOL1         0.0783
      10    O3      18.524714   13.590696   23.505103 O.3        1 MOL1        -0.5519
      11    H5      17.782936   13.572402   24.151398 H          1 MOL1         0.3769
      12    C4      19.032932   14.432694   21.262716 C.3        1 MOL1         0.1018
      13    H6      19.069682   13.382635   20.943710 H          1 MOL1         0.0783
      14    C5      18.496318   15.294766   20.091557 C.3        1 MOL1         0.1043
      15    H7      18.564860   16.345541   20.389901 H          1 MOL1         0.0783
      16    O4      17.106785   14.963485   19.847331 O.3        1 MOL1        -0.3740
      17    C6      19.302992   15.146623   18.775497 C.3        1 MOL1         0.0138
      18    H8      20.149143   15.845344   18.809940 H          1 MOL1         0.0794
      19    H9      18.667088   15.454447   17.934910 H          1 MOL1         0.0794
      20    O5      19.793413   13.817195   18.562857 O.3        1 MOL1        -0.5486
      21    H10     20.503975   13.659125   19.224793 H          1 MOL1         0.3769
      22    C7      14.631616   20.352548   20.861744 C.3        1 MOL1         0.2972
      23    H11     13.979385   21.195697   20.600089 H          1 MOL1         0.0751
      24    O6      15.894328   20.794620   21.395709 O.3        1 MOL1        -0.3740
      25    C8      13.971544   19.453316   21.938899 C.3        1 MOL1         0.1003
      26    H12     13.028194   19.076943   21.522414 H          1 MOL1         0.0783
      27    O7      13.696620   20.205206   23.132380 O.3        1 MOL1        -0.5519
      28    H13     14.492648   20.764836   23.318535 H          1 MOL1         0.3769
      29    C9      14.872556   18.234139   22.265394 C.3        1 MOL1         0.1053
      30    H14     15.778164   18.602462   22.765969 H          1 MOL1         0.0783
      31    O8      14.174102   17.337607   23.136081 O.3        1 MOL1        -0.5519
      32    H15     13.779460   17.910475   23.830770 H          1 MOL1         0.3769
      33    C10     15.301577   17.485171   20.978702 C.3        1 MOL1         0.1018
      34    H16     14.426854   16.948314   20.588899 H          1 MOL1         0.0783
      35    C11     15.840639   18.457712   19.892060 C.3        1 MOL1         0.1043
      36    H17     16.782581   18.881848   20.252335 H          1 MOL1         0.0783
      37    O9      14.889905   19.532779   19.699931 O.3        1 MOL1        -0.3740
      38    C12     16.139670   17.811233   18.515695 C.3        1 MOL1         0.0138
      39    H18     17.156775   17.400525   18.537204 H          1 MOL1         0.0794
      40    H19     16.131376   18.599745   17.751428 H          1 MOL1         0.0794
      41    O10     15.215023   16.776664   18.163868 O.3        1 MOL1        -0.5486
      42    H20     15.577483   15.939085   18.530942 H          1 MOL1         0.3769
      43    C13     18.378207   24.064439   21.837903 C.3        1 MOL1         0.2972
      44    H21     18.815427   25.067022   21.929110 H          1 MOL1         0.0751
      45    O11     19.394996   23.041813   21.834731 O.3        1 MOL1        -0.3740
      46    C14     17.425316   23.806461   23.030148 C.3        1 MOL1         0.1003
      47    H22     16.637991   24.570733   22.996235 H          1 MOL1         0.0783
      48    O12     18.138774   23.913082   24.272656 O.3        1 MOL1        -0.5519
      49    H23     19.091277   23.733992   24.073568 H          1 MOL1         0.3769
      50    C15     16.751321   22.420616   22.910478 C.3        1 MOL1         0.1053
      51    H24     17.527955   21.659506   23.048886 H          1 MOL1         0.0783
      52    O13     15.757651   22.277860   23.930876 O.3        1 MOL1        -0.5519
      53    H25     16.194923   22.588279   24.755131 H          1 MOL1         0.3769
      54    C16     16.105950   22.213235   21.517906 C.3        1 MOL1         0.1018
      55    H26     15.164849   22.777621   21.480892 H          1 MOL1         0.0783
      56    C17     17.040909   22.645194   20.352825 C.3        1 MOL1         0.1043
      57    H27     17.845180   21.902376   20.280578 H          1 MOL1         0.0783
      58    O14     17.620692   23.949571   20.615783 O.3        1 MOL1        -0.3740
      59    C18     16.334121   22.696714   18.977330 C.3        1 MOL1         0.0138
      60    H28     16.119662   21.669093   18.655349 H          1 MOL1         0.0794
      61    H29     17.026348   23.129832   18.242822 H          1 MOL1         0.0794
      62    O15     15.119061   23.454992   19.024143 O.3        1 MOL1        -0.5486
      63    H30     14.755143   23.490980   18.112804 H          1 MOL1         0.3769
      64    C19     23.535548   22.686011   21.166456 C.3        1 MOL1         0.2972
      65    H31     24.569109   22.934596   20.893756 H          1 MOL1         0.0751
      66    O16     23.388043   21.284865   21.474834 O.3        1 MOL1        -0.3740
      67    C20     23.105195   23.485859   22.425165 C.3        1 MOL1         0.1003
      68    H32     23.228489   24.551963   22.194364 H          1 MOL1         0.0783
      69    O17     23.933046   23.149085   23.550577 O.3        1 MOL1        -0.5519
      70    H33     24.142496   22.183332   23.483626 H          1 MOL1         0.3769
      71    C21     21.611389   23.242208   22.759741 C.3        1 MOL1         0.1053
      72    H34     21.492160   22.193760   23.065405 H          1 MOL1         0.0783
      73    O18     21.208447   24.108721   23.825587 O.3        1 MOL1        -0.5519
      74    H35     21.929461   24.045394   24.491276 H          1 MOL1         0.3769
      75    C22     20.727094   23.489126   21.514378 C.3        1 MOL1         0.1018
      76    H36     20.754419   24.560083   21.273387 H          1 MOL1         0.0783
      77    C23     21.246398   22.685676   20.293121 C.3        1 MOL1         0.1043
      78    H37     21.164121   21.617164   20.521552 H          1 MOL1         0.0783
      79    O19     22.638864   23.018438   20.082480 O.3        1 MOL1        -0.3740
      80    C24     20.475410   22.940043   18.971819 C.3        1 MOL1         0.0138
      81    H38     19.612921   22.264046   18.933474 H          1 MOL1         0.0794
      82    H39     21.127454   22.670615   18.130336 H          1 MOL1         0.0794
      83    O20     20.025793   24.292633   18.831341 O.3        1 MOL1        -0.5486
      84    H40     19.218432   24.386263   19.389023 H          1 MOL1         0.3769
      85    C25     25.199697   17.585514   21.005755 C.3        1 MOL1         0.2972
      86    H41     25.866650   16.738850   20.802379 H          1 MOL1         0.0751
      87    O21     23.840901   17.150891   21.234749 O.3        1 MOL1        -0.3740
      88    C26     25.700598   18.412418   22.218470 C.3        1 MOL1         0.1003
      89    H42     26.667669   18.847392   21.933733 H          1 MOL1         0.0783
      90    O22     25.894731   17.599180   23.383353 O.3        1 MOL1        -0.5519
      91    H43     25.029133   17.162704   23.585488 H          1 MOL1         0.3769
      92    C27     24.725675   19.580591   22.501021 C.3        1 MOL1         0.1053
      93    H44     23.751104   19.160018   22.785002 H          1 MOL1         0.0783
      94    O23     25.234336   20.388160   23.567959 O.3        1 MOL1        -0.5519
      95    H45     25.546729   19.748850   24.246588 H          1 MOL1         0.3769
      96    C28     24.540367   20.450760   21.232578 C.3        1 MOL1         0.1018
      97    H46     25.453988   21.044600   21.098648 H          1 MOL1         0.0783
      98    C29     24.275309   19.605788   19.950223 C.3        1 MOL1         0.1043
      99    H47     23.250338   19.220446   19.994351 H          1 MOL1         0.0783
     100    O24     25.192636   18.483073   19.875730 O.3        1 MOL1        -0.3740
     101    C30     24.403056   20.418935   18.639813 C.3        1 MOL1         0.0138
     102    H48     23.551586   21.108211   18.571162 H          1 MOL1         0.0794
     103    H49     24.329480   19.727202   17.790048 H          1 MOL1         0.0794
     104    O25     25.631615   21.154819   18.577295 O.3        1 MOL1        -0.5486
     105    H50     25.657726   21.616643   17.711074 H          1 MOL1         0.3769
     106    C31     21.323519   13.950008   21.957107 C.3        1 MOL1         0.2972
     107    H51     20.860038   12.976838   22.165209 H          1 MOL1         0.0751
     108    O26     20.341898   14.938308   21.585707 O.3        1 MOL1        -0.3740
     109    C32     22.086164   14.451029   23.205862 C.3        1 MOL1         0.1003
     110    H52     22.883778   13.726445   23.415481 H          1 MOL1         0.0783
     111    O27     21.216905   14.533714   24.346617 O.3        1 MOL1        -0.5519
     112    H53     20.295208   14.390106   24.019675 H          1 MOL1         0.3769
     113    C33     22.746414   15.819613   22.925551 C.3        1 MOL1         0.1053
     114    H54     21.947750   16.552246   22.769704 H          1 MOL1         0.0783
     115    O28     23.521763   16.192867   24.065850 O.3        1 MOL1        -0.5519
     116    H55     22.911530   16.061883   24.826960 H          1 MOL1         0.3769
     117    C34     23.625461   15.782342   21.646437 C.3        1 MOL1         0.1018
     118    H56     24.566143   15.268726   21.882447 H          1 MOL1         0.0783
     119    C35     22.909353   15.074952   20.456483 C.3        1 MOL1         0.1043
     120    H57     22.134894   15.755431   20.081908 H          1 MOL1         0.0783
     121    O29     22.275447   13.839003   20.878461 O.3        1 MOL1        -0.3740
     122    C36     23.847732   14.760798   19.266130 C.3        1 MOL1         0.0138
     123    H58     24.198749   15.707187   18.832410 H          1 MOL1         0.0794
     124    H59     23.262537   14.248385   18.490945 H          1 MOL1         0.0794
     125    O30     24.966452   13.949089   19.647048 O.3        1 MOL1        -0.5486
     126    H60     25.574364   14.495540   20.185995 H          1 MOL1         0.3769
     127    C1      19.530079   19.210963   20.568102 C.3        1 MOL1        -0.1693
     128    H1      18.948895   18.453027   20.035070 H          1 MOL1         0.0829
     129    H2      19.670398   20.064459   19.898643 H          1 MOL1         0.0829
     130    C2      20.810476   18.662335   21.272638 C.3        1 MOL1        -0.1768
     131    H3      21.297885   17.816308   20.780997 H          1 MOL1         0.0829
     132    H4      21.564035   19.417908   21.513584 H          1 MOL1         0.0829
     133    C3      19.868394   18.305948   22.459012 C.3        1 MOL1         0.1211
     134    H5      19.344318   17.351184   22.341807 H          1 MOL1         0.0786
     135    C4      19.035892   19.539387   22.014738 C.3        1 MOL1        -0.1768
     136    H6      19.396050   20.492541   22.416198 H          1 MOL1         0.0829
     137    H7      17.961392   19.460390   22.197174 H          1 MOL1         0.0829
     138    O1      20.440672   18.403803   23.740176 O.3        1 MOL1        -0.5515
     139    H8      20.906270   19.261261   23.781300 H          1 MOL1         0.3773
@<TRIPOS>BOND
    1     1     2    1
    2     1     3    1
    3     1     4    1
    4     4     5    1
    5     4     6    1
    6     6     7    1
    7     4     8    1
    8     8     9    1
    9     8    10    1
   10    10    11    1
   11     8    12    1
   12    12    13    1
   13    12    14    1
   14    14    15    1
   15     1    16    1
   16    14    16    1
   17    14    17    1
   18    17    18    1
   19    17    19    1
   20    17    20    1
   21    20    21    1
   22    22    23    1
   23    22    24    1
   24    22    25    1
   25    25    26    1
   26    25    27    1
   27    27    28    1
   28    25    29    1
   29    29    30    1
   30    29    31    1
   31    31    32    1
   32     3    33    1
   33    29    33    1
   34    33    34    1
   35    33    35    1
   36    35    36    1
   37    22    37    1
   38    35    37    1
   39    35    38    1
   40    38    39    1
   41    38    40    1
   42    38    41    1
   43    41    42    1
   44    43    44    1
   45    43    45    1
   46    43    46    1
   47    46    47    1
   48    46    48    1
   49    48    49    1
   50    46    50    1
   51    50    51    1
   52    50    52    1
   53    52    53    1
   54    24    54    1
   55    50    54    1
   56    54    55    1
   57    54    56    1
   58    56    57    1
   59    43    58    1
   60    56    58    1
   61    56    59    1
   62    59    60    1
   63    59    61    1
   64    59    62    1
   65    62    63    1
   66    64    65    1
   67    64    66    1
   68    64    67    1
   69    67    68    1
   70    67    69    1
   71    69    70    1
   72    67    71    1
   73    71    72    1
   74    71    73    1
   75    73    74    1
   76    45    75    1
   77    71    75    1
   78    75    76    1
   79    75    77    1
   80    77    78    1
   81    64    79    1
   82    77    79    1
   83    77    80    1
   84    80    81    1
   85    80    82    1
   86    80    83    1
   87    83    84    1
   88    85    86    1
   89    85    87    1
   90    85    88    1
   91    88    89    1
   92    88    90    1
   93    90    91    1
   94    88    92    1
   95    92    93    1
   96    92    94    1
   97    94    95    1
   98    66    96    1
   99    92    96    1
  100    96    97    1
  101    96    98    1
  102    98    99    1
  103    85   100    1
  104    98   100    1
  105    98   101    1
  106   101   102    1
  107   101   103    1
  108   101   104    1
  109   104   105    1
  110   106   107    1
  111    12   108    1
  112   106   108    1
  113   106   109    1
  114   109   110    1
  115   109   111    1
  116   111   112    1
  117   109   113    1
  118   113   114    1
  119   113   115    1
  120   115   116    1
  121    87   117    1
  122   113   117    1
  123   117   118    1
  124   117   119    1
  125   119   120    1
  126   106   121    1
  127   119   121    1
  128   119   122    1
  129   122   123    1
  130   122   124    1
  131   122   125    1
  132   125   126    1
  133   127   128    1
  134   127   129    1
  135   127   130    1
  136   130   131    1
  137   130   132    1
  138   130   133    1
  139   133   134    1
  140   127   135    1
  141   133   135    1
  142   135   136    1
  143   135   137    1
  144   133   138    1
  145   138   139    1
@<TRIPOS>SUBSTRUCTURE
       1 MOL1            1 RESIDUE      1      MOL     
       2 MOL1          139 RESIDUE      1      MOL     
@<SCITEGIC>MOL_PROPERTY
feprocess Rank
SciTegic.value.IntegerValue
128

@<SCITEGIC>MOL_PROPERTY
Conf_Id
SciTegic.value.IntegerValue
659

@<SCITEGIC>MOL_PROPERTY
Probability
SciTegic.value.DoubleValue
0.01

@<SCITEGIC>MOL_PROPERTY
G
SciTegic.value.DoubleValue
549.414

@<SCITEGIC>MOL_PROPERTY
E
SciTegic.value.DoubleValue
372.303

@<SCITEGIC>MOL_PROPERTY
-TS
SciTegic.value.DoubleValue
177.111

@<SCITEGIC>MOL_PROPERTY
U+W
SciTegic.value.DoubleValue
249.792

@<SCITEGIC>MOL_PROPERTY
U
SciTegic.value.DoubleValue
290.049

@<SCITEGIC>MOL_PROPERTY
W
SciTegic.value.DoubleValue
-40.257

@<SCITEGIC>MOL_PROPERTY
W(PB)
SciTegic.value.DoubleValue
-46.237

@<SCITEGIC>MOL_PROPERTY
W(SA)
SciTegic.value.DoubleValue
5.980

@<SCITEGIC>MOL_PROPERTY
Valence
SciTegic.value.DoubleValue
155.726

@<SCITEGIC>MOL_PROPERTY
Coulomb
SciTegic.value.DoubleValue
156.642

@<SCITEGIC>MOL_PROPERTY
VdW
SciTegic.value.DoubleValue
-22.319

@<SCITEGIC>MOL_PROPERTY
VdW6
SciTegic.value.DoubleValue
-167.479

@<SCITEGIC>MOL_PROPERTY
VdW12
SciTegic.value.DoubleValue
145.161

@<SCITEGIC>MOL_PROPERTY
Bond
SciTegic.value.DoubleValue
4.645

@<SCITEGIC>MOL_PROPERTY
Angle
SciTegic.value.DoubleValue
11.659

@<SCITEGIC>MOL_PROPERTY
Pdih
SciTegic.value.DoubleValue
139.422

@<SCITEGIC>MOL_PROPERTY
Idih
SciTegic.value.DoubleValue
0.000

@<SCITEGIC>MOL_PROPERTY
Tether
SciTegic.value.DoubleValue
0.000

@<TRIPOS>MOLECULE
CD_guest-s16_fast_vm2_rndm.mol2 : feprocess host+ligand conformer 129
         139         145           2
SMALL
USER_CHARGES
 
@<TRIPOS>ATOM
       1    C1      16.448365   15.522125   20.190191 C.3        1 MOL1         0.2972
       2    H1      15.517651   15.402192   19.620632 H          1 MOL1         0.0751
       3    O1      16.458779   16.743856   20.948899 O.3        1 MOL1        -0.3740
       4    C2      16.642828   14.356729   21.196327 C.3        1 MOL1         0.1003
       5    H2      16.670602   13.423942   20.618265 H          1 MOL1         0.0783
       6    O2      15.555676   14.300793   22.134794 O.3        1 MOL1        -0.5519
       7    H3      15.423912   15.216090   22.490001 H          1 MOL1         0.3769
       8    C3      17.991615   14.497373   21.947603 C.3        1 MOL1         0.1053
       9    H4      17.929737   15.379443   22.597269 H          1 MOL1         0.0783
      10    O3      18.220381   13.331856   22.746319 O.3        1 MOL1        -0.5519
      11    H5      17.360994   13.150882   23.188717 H          1 MOL1         0.3769
      12    C4      19.161013   14.707270   20.951401 C.3        1 MOL1         0.1018
      13    H6      19.322797   13.770540   20.401331 H          1 MOL1         0.0783
      14    C5      18.858517   15.832162   19.926507 C.3        1 MOL1         0.1043
      15    H7      18.795284   16.786866   20.460810 H          1 MOL1         0.0783
      16    O4      17.585369   15.547646   19.297739 O.3        1 MOL1        -0.3740
      17    C6      19.936230   16.007963   18.826268 C.3        1 MOL1         0.0138
      18    H8      20.694857   16.708929   19.197096 H          1 MOL1         0.0794
      19    H9      19.470712   16.483470   17.952845 H          1 MOL1         0.0794
      20    O5      20.559427   14.774269   18.443984 O.3        1 MOL1        -0.5486
      21    H10     21.057313   14.440841   19.225433 H          1 MOL1         0.3769
      22    C7      14.562305   20.299702   21.543052 C.3        1 MOL1         0.2972
      23    H11     13.894058   21.163355   21.652113 H          1 MOL1         0.0751
      24    O6      15.945613   20.661286   21.726750 O.3        1 MOL1        -0.3740
      25    C8      14.209507   19.226766   22.598880 C.3        1 MOL1         0.1003
      26    H12     13.182430   18.890468   22.406104 H          1 MOL1         0.0783
      27    O7      14.293292   19.782260   23.921359 O.3        1 MOL1        -0.5519
      28    H13     15.012108   20.462401   23.904359 H          1 MOL1         0.3769
      29    C9      15.150485   18.008658   22.464617 C.3        1 MOL1         0.1053
      30    H14     16.153223   18.330371   22.770026 H          1 MOL1         0.0783
      31    O8      14.708716   16.954827   23.327030 O.3        1 MOL1        -0.5519
      32    H15     14.530449   17.390136   24.190365 H          1 MOL1         0.3769
      33    C10     15.232349   17.490557   21.006913 C.3        1 MOL1         0.1018
      34    H16     14.354028   16.861237   20.811177 H          1 MOL1         0.0783
      35    C11     15.340248   18.622486   19.942626 C.3        1 MOL1         0.1043
      36    H17     16.367048   19.009696   19.973462 H          1 MOL1         0.0783
      37    O9      14.420181   19.704703   20.238243 O.3        1 MOL1        -0.3740
      38    C12     15.080442   18.143815   18.494084 C.3        1 MOL1         0.0138
      39    H18     15.932227   17.530857   18.170018 H          1 MOL1         0.0794
      40    H19     15.043770   19.022410   17.836136 H          1 MOL1         0.0794
      41    O10     13.867511   17.388966   18.383717 O.3        1 MOL1        -0.5486
      42    H20     13.727288   17.187217   17.432812 H          1 MOL1         0.3769
      43    C13     18.460012   23.992745   21.636216 C.3        1 MOL1         0.2972
      44    H21     18.840658   25.020378   21.572758 H          1 MOL1         0.0751
      45    O11     19.532260   23.036201   21.731026 O.3        1 MOL1        -0.3740
      46    C14     17.573945   23.843098   22.898606 C.3        1 MOL1         0.1003
      47    H22     16.753406   24.567515   22.814677 H          1 MOL1         0.0783
      48    O12     18.336481   24.125130   24.083130 O.3        1 MOL1        -0.5519
      49    H23     19.289424   24.017472   23.842303 H          1 MOL1         0.3769
      50    C15     16.956369   22.427387   22.976654 C.3        1 MOL1         0.1053
      51    H24     17.768952   21.707598   23.145517 H          1 MOL1         0.0783
      52    O13     16.022753   22.366621   24.060320 O.3        1 MOL1        -0.5519
      53    H25     16.486915   22.787949   24.817875 H          1 MOL1         0.3769
      54    C16     16.249839   22.064199   21.649309 C.3        1 MOL1         0.1018
      55    H26     15.347156   22.681945   21.553634 H          1 MOL1         0.0783
      56    C17     17.173970   22.301870   20.423435 C.3        1 MOL1         0.1043
      57    H27     18.014236   21.601129   20.496356 H          1 MOL1         0.0783
      58    O14     17.677752   23.661468   20.467074 O.3        1 MOL1        -0.3740
      59    C18     16.510096   22.064694   19.042491 C.3        1 MOL1         0.0138
      60    H28     16.611287   21.003132   18.784162 H          1 MOL1         0.0794
      61    H29     17.068002   22.630080   18.284023 H          1 MOL1         0.0794
      62    O15     15.127108   22.432766   19.010322 O.3        1 MOL1        -0.5486
      63    H30     14.621375   21.660276   19.352568 H          1 MOL1         0.3769
      64    C19     23.620020   22.683964   21.001405 C.3        1 MOL1         0.2972
      65    H31     24.655649   22.861062   20.684107 H          1 MOL1         0.0751
      66    O16     23.458531   21.371482   21.574381 O.3        1 MOL1        -0.3740
      67    C20     23.222398   23.717009   22.085204 C.3        1 MOL1         0.1003
      68    H32     23.331511   24.718113   21.648183 H          1 MOL1         0.0783
      69    O17     24.087921   23.595893   23.225204 O.3        1 MOL1        -0.5519
      70    H33     24.367346   22.648767   23.267570 H          1 MOL1         0.3769
      71    C21     21.745057   23.533992   22.506891 C.3        1 MOL1         0.1053
      72    H34     21.660467   22.574908   23.033771 H          1 MOL1         0.0783
      73    O18     21.354047   24.597778   23.380881 O.3        1 MOL1        -0.5519
      74    H35     22.089121   24.679370   24.028858 H          1 MOL1         0.3769
      75    C22     20.815323   23.496580   21.269777 C.3        1 MOL1         0.1018
      76    H36     20.765120   24.505160   20.838515 H          1 MOL1         0.0783
      77    C23     21.325381   22.507032   20.187704 C.3        1 MOL1         0.1043
      78    H37     21.259123   21.493402   20.599581 H          1 MOL1         0.0783
      79    O19     22.710822   22.808887   19.885837 O.3        1 MOL1        -0.3740
      80    C24     20.515945   22.510639   18.864738 C.3        1 MOL1         0.0138
      81    H38     19.692677   21.791810   18.957819 H          1 MOL1         0.0794
      82    H39     21.163821   22.144882   18.056980 H          1 MOL1         0.0794
      83    O20     19.990724   23.799167   18.525812 O.3        1 MOL1        -0.5486
      84    H40     19.208064   23.953152   19.104457 H          1 MOL1         0.3769
      85    C25     25.134642   17.531161   21.395095 C.3        1 MOL1         0.2972
      86    H41     25.791184   16.683371   21.160746 H          1 MOL1         0.0751
      87    O21     23.982579   17.110429   22.150507 O.3        1 MOL1        -0.3740
      88    C26     25.896750   18.576019   22.250630 C.3        1 MOL1         0.1003
      89    H42     26.789536   18.878892   21.688217 H          1 MOL1         0.0783
      90    O22     26.291632   17.996229   23.503282 O.3        1 MOL1        -0.5519
      91    H43     25.499845   17.517576   23.843121 H          1 MOL1         0.3769
      92    C27     25.032749   19.836656   22.501751 C.3        1 MOL1         0.1053
      93    H44     24.203376   19.552390   23.163206 H          1 MOL1         0.0783
      94    O23     25.827480   20.847556   23.132039 O.3        1 MOL1        -0.5519
      95    H45     26.306708   20.386518   23.855783 H          1 MOL1         0.3769
      96    C28     24.430920   20.383883   21.184960 C.3        1 MOL1         0.1018
      97    H46     25.241939   20.816418   20.584331 H          1 MOL1         0.0783
      98    C29     23.730401   19.258643   20.373449 C.3        1 MOL1         0.1043
      99    H47     22.870271   18.896477   20.949107 H          1 MOL1         0.0783
     100    O24     24.677546   18.180813   20.188978 O.3        1 MOL1        -0.3740
     101    C30     23.197846   19.668772   18.977487 C.3        1 MOL1         0.0138
     102    H48     22.177574   20.053249   19.092205 H          1 MOL1         0.0794
     103    H49     23.123714   18.767092   18.355252 H          1 MOL1         0.0794
     104    O25     24.014593   20.647960   18.326262 O.3        1 MOL1        -0.5486
     105    H50     23.751902   21.522981   18.694880 H          1 MOL1         0.3769
     106    C31     21.242641   14.005950   21.960783 C.3        1 MOL1         0.2972
     107    H51     20.726101   13.037139   21.952361 H          1 MOL1         0.0751
     108    O26     20.327594   15.088242   21.705521 O.3        1 MOL1        -0.3740
     109    C32     21.909910   14.220664   23.336366 C.3        1 MOL1         0.1003
     110    H52     22.624650   13.401252   23.487960 H          1 MOL1         0.0783
     111    O27     20.922548   14.192005   24.379783 O.3        1 MOL1        -0.5519
     112    H53     20.042585   14.194496   23.933885 H          1 MOL1         0.3769
     113    C33     22.690808   15.551641   23.367843 C.3        1 MOL1         0.1053
     114    H54     21.958901   16.368069   23.319894 H          1 MOL1         0.0783
     115    O28     23.421410   15.633055   24.596322 O.3        1 MOL1        -0.5519
     116    H55     22.773598   15.385819   25.292926 H          1 MOL1         0.3769
     117    C34     23.657549   15.701783   22.163607 C.3        1 MOL1         0.1018
     118    H56     24.549270   15.092631   22.360295 H          1 MOL1         0.0783
     119    C35     23.005531   15.278937   20.805184 C.3        1 MOL1         0.1043
     120    H57     22.317677   16.077587   20.504237 H          1 MOL1         0.0783
     121    O29     22.265450   14.038983   20.949632 O.3        1 MOL1        -0.3740
     122    C36     23.999488   15.040585   19.638482 C.3        1 MOL1         0.0138
     123    H58     24.310373   16.002052   19.216327 H          1 MOL1         0.0794
     124    H59     23.471033   14.508473   18.835883 H          1 MOL1         0.0794
     125    O30     25.148327   14.289361   20.049314 O.3        1 MOL1        -0.5486
     126    H60     25.681970   14.098457   19.247186 H          1 MOL1         0.3769
     127    C1      19.942858   18.818732   23.979018 C.3        1 MOL1        -0.1693
     128    H1      20.479540   17.941436   24.362559 H          1 MOL1         0.0829
     129    H2      19.502784   19.358504   24.825738 H          1 MOL1         0.0829
     130    C2      18.984796   18.527993   22.779714 C.3        1 MOL1        -0.1768
     131    H3      18.502389   17.546900   22.780655 H          1 MOL1         0.0829
     132    H4      18.222562   19.296953   22.609957 H          1 MOL1         0.0829
     133    C3      20.254414   18.662869   21.888351 C.3        1 MOL1         0.1211
     134    H5      20.862648   17.751077   21.831871 H          1 MOL1         0.0786
     135    C4      20.745161   19.685431   22.955792 C.3        1 MOL1        -0.1768
     136    H6      20.359329   20.702178   22.827570 H          1 MOL1         0.0829
     137    H7      21.827048   19.733627   23.112314 H          1 MOL1         0.0829
     138    O1      20.024777   19.189161   20.603700 O.3        1 MOL1        -0.5515
     139    H8      19.353899   19.886527   20.718696 H          1 MOL1         0.3773
@<TRIPOS>BOND
    1     1     2    1
    2     1     3    1
    3     1     4    1
    4     4     5    1
    5     4     6    1
    6     6     7    1
    7     4     8    1
    8     8     9    1
    9     8    10    1
   10    10    11    1
   11     8    12    1
   12    12    13    1
   13    12    14    1
   14    14    15    1
   15     1    16    1
   16    14    16    1
   17    14    17    1
   18    17    18    1
   19    17    19    1
   20    17    20    1
   21    20    21    1
   22    22    23    1
   23    22    24    1
   24    22    25    1
   25    25    26    1
   26    25    27    1
   27    27    28    1
   28    25    29    1
   29    29    30    1
   30    29    31    1
   31    31    32    1
   32     3    33    1
   33    29    33    1
   34    33    34    1
   35    33    35    1
   36    35    36    1
   37    22    37    1
   38    35    37    1
   39    35    38    1
   40    38    39    1
   41    38    40    1
   42    38    41    1
   43    41    42    1
   44    43    44    1
   45    43    45    1
   46    43    46    1
   47    46    47    1
   48    46    48    1
   49    48    49    1
   50    46    50    1
   51    50    51    1
   52    50    52    1
   53    52    53    1
   54    24    54    1
   55    50    54    1
   56    54    55    1
   57    54    56    1
   58    56    57    1
   59    43    58    1
   60    56    58    1
   61    56    59    1
   62    59    60    1
   63    59    61    1
   64    59    62    1
   65    62    63    1
   66    64    65    1
   67    64    66    1
   68    64    67    1
   69    67    68    1
   70    67    69    1
   71    69    70    1
   72    67    71    1
   73    71    72    1
   74    71    73    1
   75    73    74    1
   76    45    75    1
   77    71    75    1
   78    75    76    1
   79    75    77    1
   80    77    78    1
   81    64    79    1
   82    77    79    1
   83    77    80    1
   84    80    81    1
   85    80    82    1
   86    80    83    1
   87    83    84    1
   88    85    86    1
   89    85    87    1
   90    85    88    1
   91    88    89    1
   92    88    90    1
   93    90    91    1
   94    88    92    1
   95    92    93    1
   96    92    94    1
   97    94    95    1
   98    66    96    1
   99    92    96    1
  100    96    97    1
  101    96    98    1
  102    98    99    1
  103    85   100    1
  104    98   100    1
  105    98   101    1
  106   101   102    1
  107   101   103    1
  108   101   104    1
  109   104   105    1
  110   106   107    1
  111    12   108    1
  112   106   108    1
  113   106   109    1
  114   109   110    1
  115   109   111    1
  116   111   112    1
  117   109   113    1
  118   113   114    1
  119   113   115    1
  120   115   116    1
  121    87   117    1
  122   113   117    1
  123   117   118    1
  124   117   119    1
  125   119   120    1
  126   106   121    1
  127   119   121    1
  128   119   122    1
  129   122   123    1
  130   122   124    1
  131   122   125    1
  132   125   126    1
  133   127   128    1
  134   127   129    1
  135   127   130    1
  136   130   131    1
  137   130   132    1
  138   130   133    1
  139   133   134    1
  140   127   135    1
  141   133   135    1
  142   135   136    1
  143   135   137    1
  144   133   138    1
  145   138   139    1
@<TRIPOS>SUBSTRUCTURE
       1 MOL1            1 RESIDUE      1      MOL     
       2 MOL1          139 RESIDUE      1      MOL     
@<SCITEGIC>MOL_PROPERTY
feprocess Rank
SciTegic.value.IntegerValue
129

@<SCITEGIC>MOL_PROPERTY
Conf_Id
SciTegic.value.IntegerValue
749

@<SCITEGIC>MOL_PROPERTY
Probability
SciTegic.value.DoubleValue
0.01

@<SCITEGIC>MOL_PROPERTY
G
SciTegic.value.DoubleValue
549.435

@<SCITEGIC>MOL_PROPERTY
E
SciTegic.value.DoubleValue
373.049

@<SCITEGIC>MOL_PROPERTY
-TS
SciTegic.value.DoubleValue
176.386

@<SCITEGIC>MOL_PROPERTY
U+W
SciTegic.value.DoubleValue
250.537

@<SCITEGIC>MOL_PROPERTY
U
SciTegic.value.DoubleValue
285.436

@<SCITEGIC>MOL_PROPERTY
W
SciTegic.value.DoubleValue
-34.898

@<SCITEGIC>MOL_PROPERTY
W(PB)
SciTegic.value.DoubleValue
-40.793

@<SCITEGIC>MOL_PROPERTY
W(SA)
SciTegic.value.DoubleValue
5.895

@<SCITEGIC>MOL_PROPERTY
Valence
SciTegic.value.DoubleValue
154.115

@<SCITEGIC>MOL_PROPERTY
Coulomb
SciTegic.value.DoubleValue
155.417

@<SCITEGIC>MOL_PROPERTY
VdW
SciTegic.value.DoubleValue
-24.096

@<SCITEGIC>MOL_PROPERTY
VdW6
SciTegic.value.DoubleValue
-169.391

@<SCITEGIC>MOL_PROPERTY
VdW12
SciTegic.value.DoubleValue
145.295

@<SCITEGIC>MOL_PROPERTY
Bond
SciTegic.value.DoubleValue
4.415

@<SCITEGIC>MOL_PROPERTY
Angle
SciTegic.value.DoubleValue
12.038

@<SCITEGIC>MOL_PROPERTY
Pdih
SciTegic.value.DoubleValue
137.662

@<SCITEGIC>MOL_PROPERTY
Idih
SciTegic.value.DoubleValue
0.000

@<SCITEGIC>MOL_PROPERTY
Tether
SciTegic.value.DoubleValue
0.000

@<TRIPOS>MOLECULE
CD_guest-s16_fast_vm2_rndm.mol2 : feprocess host+ligand conformer 130
         139         145           2
SMALL
USER_CHARGES
 
@<TRIPOS>ATOM
       1    C1      16.154457   15.038766   21.857301 C.3        1 MOL1         0.2972
       2    H1      15.105408   14.880932   22.138575 H          1 MOL1         0.0751
       3    O1      16.475605   16.436301   21.726170 O.3        1 MOL1        -0.3740
       4    C2      17.089755   14.436136   22.929364 C.3        1 MOL1         0.1003
       5    H2      16.922324   13.351352   22.948630 H          1 MOL1         0.0783
       6    O2      16.799914   14.986151   24.224581 O.3        1 MOL1        -0.5519
       7    H3      16.409744   15.884121   24.079039 H          1 MOL1         0.3769
       8    C3      18.566526   14.689932   22.553343 C.3        1 MOL1         0.1053
       9    H4      18.743052   15.769416   22.614760 H          1 MOL1         0.0783
      10    O3      19.410220   14.015381   23.490426 O.3        1 MOL1        -0.5519
      11    H5      19.022614   14.224325   24.370175 H          1 MOL1         0.3769
      12    C4      18.890796   14.236848   21.104873 C.3        1 MOL1         0.1018
      13    H6      19.050794   13.151250   21.102497 H          1 MOL1         0.0783
      14    C5      17.786486   14.627611   20.076033 C.3        1 MOL1         0.1043
      15    H7      17.896847   15.699936   19.868532 H          1 MOL1         0.0783
      16    O4      16.455088   14.391539   20.604818 O.3        1 MOL1        -0.3740
      17    C6      17.909337   13.891349   18.720010 C.3        1 MOL1         0.0138
      18    H8      18.841497   14.203420   18.229977 H          1 MOL1         0.0794
      19    H9      17.082448   14.216460   18.074655 H          1 MOL1         0.0794
      20    O5      17.880868   12.465013   18.863446 O.3        1 MOL1        -0.5486
      21    H10     18.700790   12.181629   19.317695 H          1 MOL1         0.3769
      22    C7      14.791589   20.222582   21.499386 C.3        1 MOL1         0.2972
      23    H11     14.109949   21.079076   21.416636 H          1 MOL1         0.0751
      24    O6      16.168413   20.643821   21.519820 O.3        1 MOL1        -0.3740
      25    C8      14.517723   19.457469   22.818140 C.3        1 MOL1         0.1003
      26    H12     13.478560   19.104798   22.789961 H          1 MOL1         0.0783
      27    O7      14.694910   20.329540   23.944921 O.3        1 MOL1        -0.5519
      28    H13     15.356074   21.009187   23.668798 H          1 MOL1         0.3769
      29    C9      15.442271   18.223341   22.940039 C.3        1 MOL1         0.1053
      30    H14     16.474495   18.580318   23.056273 H          1 MOL1         0.0783
      31    O8      15.068593   17.453590   24.086977 O.3        1 MOL1        -0.5519
      32    H15     14.947690   18.113894   24.805711 H          1 MOL1         0.3769
      33    C10     15.366910   17.347979   21.665404 C.3        1 MOL1         0.1018
      34    H16     14.399015   16.830178   21.647715 H          1 MOL1         0.0783
      35    C11     15.531414   18.183992   20.367150 C.3        1 MOL1         0.1043
      36    H17     16.560023   18.558811   20.344249 H          1 MOL1         0.0783
      37    O9      14.616832   19.310342   20.390469 O.3        1 MOL1        -0.3740
      38    C12     15.324223   17.386689   19.052906 C.3        1 MOL1         0.0138
      39    H18     16.286205   16.948511   18.757879 H          1 MOL1         0.0794
      40    H19     15.037484   18.087962   18.257823 H          1 MOL1         0.0794
      41    O10     14.346197   16.347089   19.169185 O.3        1 MOL1        -0.5486
      42    H20     14.787095   15.587662   19.614129 H          1 MOL1         0.3769
      43    C13     18.639853   23.843447   20.489673 C.3        1 MOL1         0.2972
      44    H21     19.056378   24.761259   20.055035 H          1 MOL1         0.0751
      45    O11     19.647696   23.070686   21.168289 O.3        1 MOL1        -0.3740
      46    C14     17.517479   24.170002   21.510076 C.3        1 MOL1         0.1003
      47    H22     16.737572   24.724005   20.971845 H          1 MOL1         0.0783
      48    O12     18.015082   24.983022   22.584822 O.3        1 MOL1        -0.5519
      49    H23     18.828287   24.538292   22.936894 H          1 MOL1         0.3769
      50    C15     16.882156   22.870352   22.065591 C.3        1 MOL1         0.1053
      51    H24     17.638135   22.354883   22.672460 H          1 MOL1         0.0783
      52    O13     15.749406   23.198429   22.877327 O.3        1 MOL1        -0.5519
      53    H25     16.056544   23.925793   23.462610 H          1 MOL1         0.3769
      54    C16     16.453531   21.920093   20.919477 C.3        1 MOL1         0.1018
      55    H26     15.574932   22.346494   20.417842 H          1 MOL1         0.0783
      56    C17     17.589672   21.718189   19.879762 C.3        1 MOL1         0.1043
      57    H27     18.404607   21.170499   20.367544 H          1 MOL1         0.0783
      58    O14     18.069718   23.015934   19.451593 O.3        1 MOL1        -0.3740
      59    C18     17.190992   20.905346   18.620294 C.3        1 MOL1         0.0138
      60    H28     17.398395   19.845361   18.809066 H          1 MOL1         0.0794
      61    H29     17.842667   21.208027   17.789825 H          1 MOL1         0.0794
      62    O15     15.817024   21.069219   18.248415 O.3        1 MOL1        -0.5486
      63    H30     15.276584   20.575274   18.908249 H          1 MOL1         0.3769
      64    C19     23.688295   22.872988   21.968227 C.3        1 MOL1         0.2972
      65    H31     24.759474   23.050106   22.127723 H          1 MOL1         0.0751
      66    O16     23.363173   21.468956   21.997666 O.3        1 MOL1        -0.3740
      67    C20     22.853387   23.566633   23.072259 C.3        1 MOL1         0.1003
      68    H32     23.046852   24.645067   23.004400 H          1 MOL1         0.0783
      69    O17     23.239983   23.097930   24.374612 O.3        1 MOL1        -0.5519
      70    H33     23.417148   22.126635   24.298182 H          1 MOL1         0.3769
      71    C21     21.339770   23.337954   22.838482 C.3        1 MOL1         0.1053
      72    H34     21.127310   22.272613   22.994973 H          1 MOL1         0.0783
      73    O18     20.592469   24.122567   23.774369 O.3        1 MOL1        -0.5519
      74    H35     20.993670   23.923058   24.648986 H          1 MOL1         0.3769
      75    C22     20.919563   23.706560   21.392982 C.3        1 MOL1         0.1018
      76    H36     20.850977   24.800133   21.321531 H          1 MOL1         0.0783
      77    C23     21.899917   23.158117   20.316467 C.3        1 MOL1         0.1043
      78    H37     21.752978   22.073166   20.241203 H          1 MOL1         0.0783
      79    O19     23.272149   23.419441   20.699601 O.3        1 MOL1        -0.3740
      80    C24     21.665849   23.749729   18.905569 C.3        1 MOL1         0.0138
      81    H38     20.730305   23.336551   18.504994 H          1 MOL1         0.0794
      82    H39     22.477968   23.414719   18.246588 H          1 MOL1         0.0794
      83    O20     21.596722   25.181268   18.922543 O.3        1 MOL1        -0.5486
      84    H40     21.521226   25.486838   17.992252 H          1 MOL1         0.3769
      85    C25     24.883071   17.643835   21.878715 C.3        1 MOL1         0.2972
      86    H41     25.494795   16.732134   21.873897 H          1 MOL1         0.0751
      87    O21     23.501385   17.355255   21.591360 O.3        1 MOL1        -0.3740
      88    C26     24.957796   18.316962   23.269264 C.3        1 MOL1         0.1003
      89    H42     26.004524   18.593418   23.451228 H          1 MOL1         0.0783
      90    O22     24.518013   17.407034   24.290701 O.3        1 MOL1        -0.5519
      91    H43     24.076114   16.653182   23.829341 H          1 MOL1         0.3769
      92    C27     24.105609   19.605079   23.290150 C.3        1 MOL1         0.1053
      93    H44     23.056749   19.307605   23.183489 H          1 MOL1         0.0783
      94    O23     24.284380   20.282785   24.537322 O.3        1 MOL1        -0.5519
      95    H45     24.233845   19.574580   25.217913 H          1 MOL1         0.3769
      96    C28     24.464696   20.547979   22.115137 C.3        1 MOL1         0.1018
      97    H46     25.410193   21.054130   22.349910 H          1 MOL1         0.0783
      98    C29     24.583228   19.804576   20.754504 C.3        1 MOL1         0.1043
      99    H47     23.567961   19.550905   20.428451 H          1 MOL1         0.0783
     100    O24     25.355831   18.582920   20.890821 O.3        1 MOL1        -0.3740
     101    C30     25.224022   20.664304   19.639195 C.3        1 MOL1         0.0138
     102    H48     24.526545   21.469978   19.374523 H          1 MOL1         0.0794
     103    H49     25.355236   20.040212   18.745000 H          1 MOL1         0.0794
     104    O25     26.479530   21.222834   20.045828 O.3        1 MOL1        -0.5486
     105    H50     26.842665   21.725002   19.284092 H          1 MOL1         0.3769
     106    C31     21.155584   14.238733   20.100079 C.3        1 MOL1         0.2972
     107    H51     20.788890   13.360625   19.554502 H          1 MOL1         0.0751
     108    O26     20.075038   14.965012   20.721377 O.3        1 MOL1        -0.3740
     109    C32     22.199519   13.835324   21.178511 C.3        1 MOL1         0.1003
     110    H52     23.043688   13.373303   20.650141 H          1 MOL1         0.0783
     111    O27     21.667607   12.883681   22.111422 O.3        1 MOL1        -0.5519
     112    H53     20.908609   13.319823   22.574815 H          1 MOL1         0.3769
     113    C33     22.732717   15.091045   21.912625 C.3        1 MOL1         0.1053
     114    H54     21.900725   15.548183   22.465677 H          1 MOL1         0.0783
     115    O28     23.773728   14.718568   22.822029 O.3        1 MOL1        -0.5519
     116    H55     23.447874   13.904702   23.267489 H          1 MOL1         0.3769
     117    C34     23.265870   16.123505   20.888515 C.3        1 MOL1         0.1018
     118    H56     24.185655   15.728065   20.437301 H          1 MOL1         0.0783
     119    C35     22.237817   16.409012   19.761267 C.3        1 MOL1         0.1043
     120    H57     21.373876   16.918624   20.204360 H          1 MOL1         0.0783
     121    O29     21.810937   15.147903   19.186439 O.3        1 MOL1        -0.3740
     122    C36     22.764828   17.326434   18.626811 C.3        1 MOL1         0.0138
     123    H58     22.541915   18.367281   18.892260 H          1 MOL1         0.0794
     124    H59     22.201335   17.108029   17.709893 H          1 MOL1         0.0794
     125    O30     24.170785   17.182891   18.386074 O.3        1 MOL1        -0.5486
     126    H60     24.643093   17.556823   19.166041 H          1 MOL1         0.3769
     127    C1      19.295239   18.501497   21.774924 C.3        1 MOL1        -0.1693
     128    H1      19.375498   17.690001   21.044313 H          1 MOL1         0.0829
     129    H2      18.308335   18.964885   21.677790 H          1 MOL1         0.0829
     130    C2      20.476413   19.523723   21.823861 C.3        1 MOL1        -0.1768
     131    H3      21.453610   19.096798   21.579477 H          1 MOL1         0.0829
     132    H4      20.346558   20.444743   21.250329 H          1 MOL1         0.0829
     133    C3      20.179350   19.634662   23.352913 C.3        1 MOL1         0.1211
     134    H5      21.060871   19.791410   23.986070 H          1 MOL1         0.0786
     135    C4      19.702712   18.154535   23.245381 C.3        1 MOL1        -0.1768
     136    H6      18.885205   17.864231   23.914336 H          1 MOL1         0.0829
     137    H7      20.508485   17.415797   23.332966 H          1 MOL1         0.0829
     138    O1      19.169397   20.558230   23.703050 O.3        1 MOL1        -0.5515
     139    H8      18.926573   20.386518   24.633428 H          1 MOL1         0.3773
@<TRIPOS>BOND
    1     1     2    1
    2     1     3    1
    3     1     4    1
    4     4     5    1
    5     4     6    1
    6     6     7    1
    7     4     8    1
    8     8     9    1
    9     8    10    1
   10    10    11    1
   11     8    12    1
   12    12    13    1
   13    12    14    1
   14    14    15    1
   15     1    16    1
   16    14    16    1
   17    14    17    1
   18    17    18    1
   19    17    19    1
   20    17    20    1
   21    20    21    1
   22    22    23    1
   23    22    24    1
   24    22    25    1
   25    25    26    1
   26    25    27    1
   27    27    28    1
   28    25    29    1
   29    29    30    1
   30    29    31    1
   31    31    32    1
   32     3    33    1
   33    29    33    1
   34    33    34    1
   35    33    35    1
   36    35    36    1
   37    22    37    1
   38    35    37    1
   39    35    38    1
   40    38    39    1
   41    38    40    1
   42    38    41    1
   43    41    42    1
   44    43    44    1
   45    43    45    1
   46    43    46    1
   47    46    47    1
   48    46    48    1
   49    48    49    1
   50    46    50    1
   51    50    51    1
   52    50    52    1
   53    52    53    1
   54    24    54    1
   55    50    54    1
   56    54    55    1
   57    54    56    1
   58    56    57    1
   59    43    58    1
   60    56    58    1
   61    56    59    1
   62    59    60    1
   63    59    61    1
   64    59    62    1
   65    62    63    1
   66    64    65    1
   67    64    66    1
   68    64    67    1
   69    67    68    1
   70    67    69    1
   71    69    70    1
   72    67    71    1
   73    71    72    1
   74    71    73    1
   75    73    74    1
   76    45    75    1
   77    71    75    1
   78    75    76    1
   79    75    77    1
   80    77    78    1
   81    64    79    1
   82    77    79    1
   83    77    80    1
   84    80    81    1
   85    80    82    1
   86    80    83    1
   87    83    84    1
   88    85    86    1
   89    85    87    1
   90    85    88    1
   91    88    89    1
   92    88    90    1
   93    90    91    1
   94    88    92    1
   95    92    93    1
   96    92    94    1
   97    94    95    1
   98    66    96    1
   99    92    96    1
  100    96    97    1
  101    96    98    1
  102    98    99    1
  103    85   100    1
  104    98   100    1
  105    98   101    1
  106   101   102    1
  107   101   103    1
  108   101   104    1
  109   104   105    1
  110   106   107    1
  111    12   108    1
  112   106   108    1
  113   106   109    1
  114   109   110    1
  115   109   111    1
  116   111   112    1
  117   109   113    1
  118   113   114    1
  119   113   115    1
  120   115   116    1
  121    87   117    1
  122   113   117    1
  123   117   118    1
  124   117   119    1
  125   119   120    1
  126   106   121    1
  127   119   121    1
  128   119   122    1
  129   122   123    1
  130   122   124    1
  131   122   125    1
  132   125   126    1
  133   127   128    1
  134   127   129    1
  135   127   130    1
  136   130   131    1
  137   130   132    1
  138   130   133    1
  139   133   134    1
  140   127   135    1
  141   133   135    1
  142   135   136    1
  143   135   137    1
  144   133   138    1
  145   138   139    1
@<TRIPOS>SUBSTRUCTURE
       1 MOL1            1 RESIDUE      1      MOL     
       2 MOL1          139 RESIDUE      1      MOL     
@<SCITEGIC>MOL_PROPERTY
feprocess Rank
SciTegic.value.IntegerValue
130

@<SCITEGIC>MOL_PROPERTY
Conf_Id
SciTegic.value.IntegerValue
378

@<SCITEGIC>MOL_PROPERTY
Probability
SciTegic.value.DoubleValue
0.01

@<SCITEGIC>MOL_PROPERTY
G
SciTegic.value.DoubleValue
549.452

@<SCITEGIC>MOL_PROPERTY
E
SciTegic.value.DoubleValue
372.352

@<SCITEGIC>MOL_PROPERTY
-TS
SciTegic.value.DoubleValue
177.100

@<SCITEGIC>MOL_PROPERTY
U+W
SciTegic.value.DoubleValue
249.841

@<SCITEGIC>MOL_PROPERTY
U
SciTegic.value.DoubleValue
288.793

@<SCITEGIC>MOL_PROPERTY
W
SciTegic.value.DoubleValue
-38.953

@<SCITEGIC>MOL_PROPERTY
W(PB)
SciTegic.value.DoubleValue
-44.926

@<SCITEGIC>MOL_PROPERTY
W(SA)
SciTegic.value.DoubleValue
5.973

@<SCITEGIC>MOL_PROPERTY
Valence
SciTegic.value.DoubleValue
154.606

@<SCITEGIC>MOL_PROPERTY
Coulomb
SciTegic.value.DoubleValue
156.598

@<SCITEGIC>MOL_PROPERTY
VdW
SciTegic.value.DoubleValue
-22.411

@<SCITEGIC>MOL_PROPERTY
VdW6
SciTegic.value.DoubleValue
-168.464

@<SCITEGIC>MOL_PROPERTY
VdW12
SciTegic.value.DoubleValue
146.054

@<SCITEGIC>MOL_PROPERTY
Bond
SciTegic.value.DoubleValue
4.495

@<SCITEGIC>MOL_PROPERTY
Angle
SciTegic.value.DoubleValue
11.956

@<SCITEGIC>MOL_PROPERTY
Pdih
SciTegic.value.DoubleValue
138.155

@<SCITEGIC>MOL_PROPERTY
Idih
SciTegic.value.DoubleValue
0.000

@<SCITEGIC>MOL_PROPERTY
Tether
SciTegic.value.DoubleValue
0.000

@<TRIPOS>MOLECULE
CD_guest-s16_fast_vm2_rndm.mol2 : feprocess host+ligand conformer 131
         139         145           2
SMALL
USER_CHARGES
 
@<TRIPOS>ATOM
       1    C1      16.134381   15.192946   21.605621 C.3        1 MOL1         0.2972
       2    H1      15.042166   15.141640   21.698985 H          1 MOL1         0.0751
       3    O1      16.567655   16.435925   21.015255 O.3        1 MOL1        -0.3740
       4    C2      16.815321   15.040827   22.988311 C.3        1 MOL1         0.1003
       5    H2      16.585337   14.033442   23.359269 H          1 MOL1         0.0783
       6    O2      16.336821   16.013138   23.931856 O.3        1 MOL1        -0.5519
       7    H3      15.572232   16.475305   23.509892 H          1 MOL1         0.3769
       8    C3      18.347548   15.165179   22.836778 C.3        1 MOL1         0.1053
       9    H4      18.556651   16.188202   22.514745 H          1 MOL1         0.0783
      10    O3      18.961426   14.932371   24.105722 O.3        1 MOL1        -0.5519
      11    H5      18.404651   15.437361   24.741318 H          1 MOL1         0.3769
      12    C4      18.916288   14.200743   21.762212 C.3        1 MOL1         0.1018
      13    H6      18.996517   13.201207   22.209722 H          1 MOL1         0.0783
      14    C5      18.041328   14.136338   20.471687 C.3        1 MOL1         0.1043
      15    H7      18.241890   15.034800   19.875777 H          1 MOL1         0.0783
      16    O4      16.624692   14.107388   20.789345 O.3        1 MOL1        -0.3740
      17    C6      18.371098   12.921681   19.571939 C.3        1 MOL1         0.0138
      18    H8      19.364652   13.076445   19.129508 H          1 MOL1         0.0794
      19    H9      17.647417   12.890463   18.746428 H          1 MOL1         0.0794
      20    O5      18.350694   11.687387   20.300073 O.3        1 MOL1        -0.5486
      21    H10     18.497932   10.959784   19.656826 H          1 MOL1         0.3769
      22    C7      15.081044   20.255499   20.203215 C.3        1 MOL1         0.2972
      23    H11     14.508878   21.107344   19.813637 H          1 MOL1         0.0751
      24    O6      16.302336   20.686765   20.840202 O.3        1 MOL1        -0.3740
      25    C8      14.240541   19.437085   21.218886 C.3        1 MOL1         0.1003
      26    H12     13.360132   19.065575   20.678382 H          1 MOL1         0.0783
      27    O7      13.796273   20.246428   22.318095 O.3        1 MOL1        -0.5519
      28    H13     14.600226   20.661014   22.722892 H          1 MOL1         0.3769
      29    C9      15.031201   18.205975   21.731039 C.3        1 MOL1         0.1053
      30    H14     15.893272   18.566281   22.309887 H          1 MOL1         0.0783
      31    O8      14.168640   17.427627   22.567802 O.3        1 MOL1        -0.5519
      32    H15     13.657600   18.089838   23.087456 H          1 MOL1         0.3769
      33    C10     15.562096   17.354949   20.543805 C.3        1 MOL1         0.1018
      34    H16     14.724553   16.822362   20.075957 H          1 MOL1         0.0783
      35    C11     16.268379   18.239313   19.479043 C.3        1 MOL1         0.1043
      36    H17     17.200627   18.615171   19.916620 H          1 MOL1         0.0783
      37    O9      15.426255   19.363048   19.122226 O.3        1 MOL1        -0.3740
      38    C12     16.653742   17.475757   18.187827 C.3        1 MOL1         0.0138
      39    H18     17.519724   16.837178   18.406849 H          1 MOL1         0.0794
      40    H19     16.976226   18.206478   17.434600 H          1 MOL1         0.0794
      41    O10     15.580841   16.676154   17.674218 O.3        1 MOL1        -0.5486
      42    H20     15.482914   15.903882   18.271660 H          1 MOL1         0.3769
      43    C13     18.412268   24.062352   22.017032 C.3        1 MOL1         0.2972
      44    H21     18.740362   25.068448   22.308339 H          1 MOL1         0.0751
      45    O11     19.523573   23.158789   21.882575 O.3        1 MOL1        -0.3740
      46    C14     17.454118   23.487475   23.088168 C.3        1 MOL1         0.1003
      47    H22     16.584279   24.154973   23.143081 H          1 MOL1         0.0783
      48    O12     18.096601   23.442258   24.372832 O.3        1 MOL1        -0.5519
      49    H23     19.071159   23.494927   24.211975 H          1 MOL1         0.3769
      50    C15     16.950337   22.080664   22.686425 C.3        1 MOL1         0.1053
      51    H24     17.800075   21.389349   22.712589 H          1 MOL1         0.0783
      52    O13     15.960226   21.656084   23.627521 O.3        1 MOL1        -0.5519
      53    H25     16.349820   21.858382   24.507827 H          1 MOL1         0.3769
      54    C16     16.368904   22.069785   21.250536 C.3        1 MOL1         0.1018
      55    H26     15.376757   22.540066   21.273206 H          1 MOL1         0.0783
      56    C17     17.286933   22.809070   20.232857 C.3        1 MOL1         0.1043
      57    H27     18.172686   22.183920   20.065313 H          1 MOL1         0.0783
      58    O14     17.711620   24.096211   20.755743 O.3        1 MOL1        -0.3740
      59    C18     16.621599   23.037032   18.854714 C.3        1 MOL1         0.0138
      60    H28     16.529434   22.066899   18.347599 H          1 MOL1         0.0794
      61    H29     17.285842   23.662862   18.243665 H          1 MOL1         0.0794
      62    O15     15.330565   23.647725   18.973460 O.3        1 MOL1        -0.5486
      63    H30     15.003628   23.832209   18.065945 H          1 MOL1         0.3769
      64    C19     23.660049   22.938724   21.728179 C.3        1 MOL1         0.2972
      65    H31     24.735593   23.138772   21.640329 H          1 MOL1         0.0751
      66    O16     23.392947   21.527145   21.867097 O.3        1 MOL1        -0.3740
      67    C20     23.095777   23.638872   22.989992 C.3        1 MOL1         0.1003
      68    H32     23.267009   24.717564   22.879450 H          1 MOL1         0.0783
      69    O17     23.774855   23.163545   24.163103 O.3        1 MOL1        -0.5519
      70    H33     24.016859   22.221953   23.986399 H          1 MOL1         0.3769
      71    C21     21.570848   23.402172   23.117051 C.3        1 MOL1         0.1053
      72    H34     21.415250   22.336677   23.327000 H          1 MOL1         0.0783
      73    O18     21.045925   24.182154   24.195366 O.3        1 MOL1        -0.5519
      74    H35     21.682587   24.056956   24.934476 H          1 MOL1         0.3769
      75    C22     20.832411   23.752049   21.800943 C.3        1 MOL1         0.1018
      76    H36     20.791366   24.843847   21.693479 H          1 MOL1         0.0783
      77    C23     21.526833   23.135689   20.557752 C.3        1 MOL1         0.1043
      78    H37     21.404821   22.051896   20.623232 H          1 MOL1         0.0783
      79    O19     22.944386   23.439794   20.575908 O.3        1 MOL1        -0.3740
      80    C24     20.920205   23.570235   19.197851 C.3        1 MOL1         0.0138
      81    H38     20.111744   22.873251   18.941974 H          1 MOL1         0.0794
      82    H39     21.688814   23.466732   18.420342 H          1 MOL1         0.0794
      83    O20     20.406630   24.907130   19.207517 O.3        1 MOL1        -0.5486
      84    H40     19.546697   24.881471   19.686613 H          1 MOL1         0.3769
      85    C25     24.902896   17.748222   20.876043 C.3        1 MOL1         0.2972
      86    H41     25.537765   16.935313   20.500610 H          1 MOL1         0.0751
      87    O21     23.613372   17.260459   21.303713 O.3        1 MOL1        -0.3740
      88    C26     25.576537   18.458488   22.079790 C.3        1 MOL1         0.1003
      89    H42     26.545400   18.840598   21.732870 H          1 MOL1         0.0783
      90    O22     25.795190   17.543125   23.165266 O.3        1 MOL1        -0.5519
      91    H43     24.955410   17.033967   23.299056 H          1 MOL1         0.3769
      92    C27     24.731359   19.667897   22.552778 C.3        1 MOL1         0.1053
      93    H44     23.788716   19.283653   22.966086 H          1 MOL1         0.0783
      94    O23     25.444850   20.387600   23.564147 O.3        1 MOL1        -0.5519
      95    H45     25.790535   19.697843   24.173470 H          1 MOL1         0.3769
      96    C28     24.393823   20.614664   21.373490 C.3        1 MOL1         0.1018
      97    H46     25.312110   21.134616   21.070549 H          1 MOL1         0.0783
      98    C29     23.811750   19.828551   20.163511 C.3        1 MOL1         0.1043
      99    H47     22.837380   19.422652   20.455682 H          1 MOL1         0.0783
     100    O24     24.699906   18.732369   19.838250 O.3        1 MOL1        -0.3740
     101    C30     23.589729   20.662128   18.875097 C.3        1 MOL1         0.0138
     102    H48     22.582206   21.092546   18.904091 H          1 MOL1         0.0794
     103    H49     23.616022   19.982844   18.012555 H          1 MOL1         0.0794
     104    O25     24.552211   21.707958   18.703351 O.3        1 MOL1        -0.5486
     105    H50     24.244035   22.468183   19.248452 H          1 MOL1         0.3769
     106    C31     21.307933   13.783409   21.358155 C.3        1 MOL1         0.2972
     107    H51     20.948654   12.746929   21.318006 H          1 MOL1         0.0751
     108    O26     20.208070   14.722377   21.365728 O.3        1 MOL1        -0.3740
     109    C32     22.196644   14.015140   22.609013 C.3        1 MOL1         0.1003
     110    H52     23.071703   13.360108   22.505841 H          1 MOL1         0.0783
     111    O27     21.516430   13.675257   23.825686 O.3        1 MOL1        -0.5519
     112    H53     20.667190   14.184356   23.846604 H          1 MOL1         0.3769
     113    C33     22.708143   15.476082   22.645144 C.3        1 MOL1         0.1053
     114    H54     21.844691   16.146116   22.752660 H          1 MOL1         0.0783
     115    O28     23.594971   15.642324   23.756148 O.3        1 MOL1        -0.5519
     116    H55     23.152068   15.185270   24.505986 H          1 MOL1         0.3769
     117    C34     23.446827   15.825893   21.329341 C.3        1 MOL1         0.1018
     118    H56     24.414209   15.306239   21.339058 H          1 MOL1         0.0783
     119    C35     22.637854   15.407273   20.065518 C.3        1 MOL1         0.1043
     120    H57     21.787386   16.087854   19.955324 H          1 MOL1         0.0783
     121    O29     22.133660   14.054067   20.204474 O.3        1 MOL1        -0.3740
     122    C36     23.457224   15.488005   18.755243 C.3        1 MOL1         0.0138
     123    H58     23.619110   16.546245   18.509757 H          1 MOL1         0.0794
     124    H59     22.860633   15.053273   17.942100 H          1 MOL1         0.0794
     125    O30     24.718413   14.815234   18.863335 O.3        1 MOL1        -0.5486
     126    H60     25.150165   14.849610   17.981906 H          1 MOL1         0.3769
     127    C1      20.339105   19.898020   22.265133 C.3        1 MOL1        -0.1693
     128    H1      21.415616   19.920392   22.471174 H          1 MOL1         0.0829
     129    H2      19.866253   20.723706   22.802508 H          1 MOL1         0.0829
     130    C2      19.674083   18.499068   22.457444 C.3        1 MOL1        -0.1768
     131    H3      18.579931   18.519225   22.544209 H          1 MOL1         0.0829
     132    H4      20.084893   17.878491   23.261076 H          1 MOL1         0.0829
     133    C3      20.211580   18.209616   21.024736 C.3        1 MOL1         0.1211
     134    H5      21.271784   17.942288   21.003530 H          1 MOL1         0.0786
     135    C4      19.948676   19.717039   20.759145 C.3        1 MOL1        -0.1768
     136    H6      18.909343   19.966375   20.521287 H          1 MOL1         0.0829
     137    H7      20.597398   20.171949   20.007975 H          1 MOL1         0.0829
     138    O1      19.469056   17.315850   20.236523 O.3        1 MOL1        -0.5515
     139    H8      19.616183   16.421247   20.612086 H          1 MOL1         0.3773
@<TRIPOS>BOND
    1     1     2    1
    2     1     3    1
    3     1     4    1
    4     4     5    1
    5     4     6    1
    6     6     7    1
    7     4     8    1
    8     8     9    1
    9     8    10    1
   10    10    11    1
   11     8    12    1
   12    12    13    1
   13    12    14    1
   14    14    15    1
   15     1    16    1
   16    14    16    1
   17    14    17    1
   18    17    18    1
   19    17    19    1
   20    17    20    1
   21    20    21    1
   22    22    23    1
   23    22    24    1
   24    22    25    1
   25    25    26    1
   26    25    27    1
   27    27    28    1
   28    25    29    1
   29    29    30    1
   30    29    31    1
   31    31    32    1
   32     3    33    1
   33    29    33    1
   34    33    34    1
   35    33    35    1
   36    35    36    1
   37    22    37    1
   38    35    37    1
   39    35    38    1
   40    38    39    1
   41    38    40    1
   42    38    41    1
   43    41    42    1
   44    43    44    1
   45    43    45    1
   46    43    46    1
   47    46    47    1
   48    46    48    1
   49    48    49    1
   50    46    50    1
   51    50    51    1
   52    50    52    1
   53    52    53    1
   54    24    54    1
   55    50    54    1
   56    54    55    1
   57    54    56    1
   58    56    57    1
   59    43    58    1
   60    56    58    1
   61    56    59    1
   62    59    60    1
   63    59    61    1
   64    59    62    1
   65    62    63    1
   66    64    65    1
   67    64    66    1
   68    64    67    1
   69    67    68    1
   70    67    69    1
   71    69    70    1
   72    67    71    1
   73    71    72    1
   74    71    73    1
   75    73    74    1
   76    45    75    1
   77    71    75    1
   78    75    76    1
   79    75    77    1
   80    77    78    1
   81    64    79    1
   82    77    79    1
   83    77    80    1
   84    80    81    1
   85    80    82    1
   86    80    83    1
   87    83    84    1
   88    85    86    1
   89    85    87    1
   90    85    88    1
   91    88    89    1
   92    88    90    1
   93    90    91    1
   94    88    92    1
   95    92    93    1
   96    92    94    1
   97    94    95    1
   98    66    96    1
   99    92    96    1
  100    96    97    1
  101    96    98    1
  102    98    99    1
  103    85   100    1
  104    98   100    1
  105    98   101    1
  106   101   102    1
  107   101   103    1
  108   101   104    1
  109   104   105    1
  110   106   107    1
  111    12   108    1
  112   106   108    1
  113   106   109    1
  114   109   110    1
  115   109   111    1
  116   111   112    1
  117   109   113    1
  118   113   114    1
  119   113   115    1
  120   115   116    1
  121    87   117    1
  122   113   117    1
  123   117   118    1
  124   117   119    1
  125   119   120    1
  126   106   121    1
  127   119   121    1
  128   119   122    1
  129   122   123    1
  130   122   124    1
  131   122   125    1
  132   125   126    1
  133   127   128    1
  134   127   129    1
  135   127   130    1
  136   130   131    1
  137   130   132    1
  138   130   133    1
  139   133   134    1
  140   127   135    1
  141   133   135    1
  142   135   136    1
  143   135   137    1
  144   133   138    1
  145   138   139    1
@<TRIPOS>SUBSTRUCTURE
       1 MOL1            1 RESIDUE      1      MOL     
       2 MOL1          139 RESIDUE      1      MOL     
@<SCITEGIC>MOL_PROPERTY
feprocess Rank
SciTegic.value.IntegerValue
131

@<SCITEGIC>MOL_PROPERTY
Conf_Id
SciTegic.value.IntegerValue
947

@<SCITEGIC>MOL_PROPERTY
Probability
SciTegic.value.DoubleValue
0.01

@<SCITEGIC>MOL_PROPERTY
G
SciTegic.value.DoubleValue
549.460

@<SCITEGIC>MOL_PROPERTY
E
SciTegic.value.DoubleValue
368.974

@<SCITEGIC>MOL_PROPERTY
-TS
SciTegic.value.DoubleValue
180.486

@<SCITEGIC>MOL_PROPERTY
U+W
SciTegic.value.DoubleValue
246.462

@<SCITEGIC>MOL_PROPERTY
U
SciTegic.value.DoubleValue
282.578

@<SCITEGIC>MOL_PROPERTY
W
SciTegic.value.DoubleValue
-36.116

@<SCITEGIC>MOL_PROPERTY
W(PB)
SciTegic.value.DoubleValue
-42.163

@<SCITEGIC>MOL_PROPERTY
W(SA)
SciTegic.value.DoubleValue
6.047

@<SCITEGIC>MOL_PROPERTY
Valence
SciTegic.value.DoubleValue
153.914

@<SCITEGIC>MOL_PROPERTY
Coulomb
SciTegic.value.DoubleValue
149.404

@<SCITEGIC>MOL_PROPERTY
VdW
SciTegic.value.DoubleValue
-20.740

@<SCITEGIC>MOL_PROPERTY
VdW6
SciTegic.value.DoubleValue
-172.024

@<SCITEGIC>MOL_PROPERTY
VdW12
SciTegic.value.DoubleValue
151.284

@<SCITEGIC>MOL_PROPERTY
Bond
SciTegic.value.DoubleValue
4.984

@<SCITEGIC>MOL_PROPERTY
Angle
SciTegic.value.DoubleValue
13.130

@<SCITEGIC>MOL_PROPERTY
Pdih
SciTegic.value.DoubleValue
135.801

@<SCITEGIC>MOL_PROPERTY
Idih
SciTegic.value.DoubleValue
0.000

@<SCITEGIC>MOL_PROPERTY
Tether
SciTegic.value.DoubleValue
0.000

@<TRIPOS>MOLECULE
CD_guest-s16_fast_vm2_rndm.mol2 : feprocess host+ligand conformer 132
         139         145           2
SMALL
USER_CHARGES
 
@<TRIPOS>ATOM
       1    C1      16.249460   15.212033   21.185679 C.3        1 MOL1         0.2972
       2    H1      15.197403   15.012444   20.944151 H          1 MOL1         0.0751
       3    O1      16.483542   16.619214   21.390354 O.3        1 MOL1        -0.3740
       4    C2      16.632019   14.473442   22.493001 C.3        1 MOL1         0.1003
       5    H2      16.457940   13.401405   22.333101 H          1 MOL1         0.0783
       6    O2      15.813171   14.932673   23.579714 O.3        1 MOL1        -0.5519
       7    H3      15.530657   15.849795   23.348300 H          1 MOL1         0.3769
       8    C3      18.129740   14.673065   22.823498 C.3        1 MOL1         0.1053
       9    H4      18.286581   15.731243   23.068021 H          1 MOL1         0.0783
      10    O3      18.492374   13.859895   23.944064 O.3        1 MOL1        -0.5519
      11    H5      17.769813   13.991454   24.598121 H          1 MOL1         0.3769
      12    C4      19.015042   14.324778   21.604223 C.3        1 MOL1         0.1018
      13    H6      18.996061   13.237943   21.448588 H          1 MOL1         0.0783
      14    C5      18.527677   15.038073   20.315059 C.3        1 MOL1         0.1043
      15    H7      18.670206   16.116642   20.457212 H          1 MOL1         0.0783
      16    O4      17.117353   14.760132   20.121986 O.3        1 MOL1        -0.3740
      17    C6      19.293159   14.645113   19.023815 C.3        1 MOL1         0.0138
      18    H8      20.141865   15.328848   18.899772 H          1 MOL1         0.0794
      19    H9      18.632037   14.804964   18.161525 H          1 MOL1         0.0794
      20    O5      19.766223   13.293085   19.033976 O.3        1 MOL1        -0.5486
      21    H10     20.552905   13.265703   19.627041 H          1 MOL1         0.3769
      22    C7      14.998301   20.367108   20.333068 C.3        1 MOL1         0.2972
      23    H11     14.447340   21.204286   19.885373 H          1 MOL1         0.0751
      24    O6      16.110749   20.818753   21.123069 O.3        1 MOL1        -0.3740
      25    C8      14.082169   19.528609   21.261212 C.3        1 MOL1         0.1003
      26    H12     13.245852   19.158859   20.653928 H          1 MOL1         0.0783
      27    O7      13.572761   20.335078   22.336667 O.3        1 MOL1        -0.5519
      28    H13     14.345197   20.804771   22.741258 H          1 MOL1         0.3769
      29    C9      14.844039   18.305066   21.830358 C.3        1 MOL1         0.1053
      30    H14     15.600198   18.677366   22.532554 H          1 MOL1         0.0783
      31    O8      13.930744   17.448656   22.524246 O.3        1 MOL1        -0.5519
      32    H15     13.392135   18.047536   23.087612 H          1 MOL1         0.3769
      33    C10     15.571779   17.508843   20.717271 C.3        1 MOL1         0.1018
      34    H16     14.818283   16.964900   20.132581 H          1 MOL1         0.0783
      35    C11     16.384973   18.433783   19.767333 C.3        1 MOL1         0.1043
      36    H17     17.223864   18.861363   20.331959 H          1 MOL1         0.0783
      37    O9      15.516642   19.496974   19.305072 O.3        1 MOL1        -0.3740
      38    C12     16.993366   17.739133   18.521966 C.3        1 MOL1         0.0138
      39    H18     17.994872   17.375197   18.779174 H          1 MOL1         0.0794
      40    H19     17.128912   18.493708   17.735709 H          1 MOL1         0.0794
      41    O10     16.195994   16.656653   18.027848 O.3        1 MOL1        -0.5486
      42    H20     16.343415   15.892514   18.632575 H          1 MOL1         0.3769
      43    C13     18.402373   24.091192   22.002908 C.3        1 MOL1         0.2972
      44    H21     18.820972   25.082939   22.217312 H          1 MOL1         0.0751
      45    O11     19.428399   23.077061   21.963691 O.3        1 MOL1        -0.3740
      46    C14     17.380854   23.716245   23.101849 C.3        1 MOL1         0.1003
      47    H22     16.582358   24.469411   23.085351 H          1 MOL1         0.0783
      48    O12     18.012183   23.716360   24.392745 O.3        1 MOL1        -0.5519
      49    H23     18.983743   23.610470   24.240893 H          1 MOL1         0.3769
      50    C15     16.747235   22.338465   22.811694 C.3        1 MOL1         0.1053
      51    H24     17.528982   21.582012   22.938520 H          1 MOL1         0.0783
      52    O13     15.683214   22.085899   23.735953 O.3        1 MOL1        -0.5519
      53    H25     16.053573   22.314584   24.617390 H          1 MOL1         0.3769
      54    C16     16.215839   22.230958   21.363057 C.3        1 MOL1         0.1018
      55    H26     15.241988   22.735293   21.306992 H          1 MOL1         0.0783
      56    C17     17.195936   22.810106   20.301441 C.3        1 MOL1         0.1043
      57    H27     18.024764   22.099258   20.193514 H          1 MOL1         0.0783
      58    O14     17.722678   24.091394   20.731880 O.3        1 MOL1        -0.3740
      59    C18     16.567890   22.991197   18.898792 C.3        1 MOL1         0.0138
      60    H28     16.421457   21.999671   18.449878 H          1 MOL1         0.0794
      61    H29     17.281450   23.532347   18.262918 H          1 MOL1         0.0794
      62    O15     15.318849   23.691349   18.952645 O.3        1 MOL1        -0.5486
      63    H30     15.021548   23.842196   18.028854 H          1 MOL1         0.3769
      64    C19     23.572452   22.752671   21.532847 C.3        1 MOL1         0.2972
      65    H31     24.637204   22.965498   21.372396 H          1 MOL1         0.0751
      66    O16     23.337080   21.342517   21.708721 O.3        1 MOL1        -0.3740
      67    C20     23.082009   23.464716   22.818980 C.3        1 MOL1         0.1003
      68    H32     23.242898   24.542597   22.687185 H          1 MOL1         0.0783
      69    O17     23.830863   23.004478   23.954764 O.3        1 MOL1        -0.5519
      70    H33     24.100210   22.075908   23.754150 H          1 MOL1         0.3769
      71    C21     21.568758   23.225553   23.037653 C.3        1 MOL1         0.1053
      72    H34     21.422367   22.160644   23.256186 H          1 MOL1         0.0783
      73    O18     21.104214   24.011966   24.139750 O.3        1 MOL1        -0.5519
      74    H35     21.774799   23.881114   24.846778 H          1 MOL1         0.3769
      75    C22     20.765749   23.575243   21.762881 C.3        1 MOL1         0.1018
      76    H36     20.787458   24.664796   21.628122 H          1 MOL1         0.0783
      77    C23     21.363222   22.901126   20.498221 C.3        1 MOL1         0.1043
      78    H37     21.241778   21.817652   20.603274 H          1 MOL1         0.0783
      79    O19     22.777617   23.212439   20.416580 O.3        1 MOL1        -0.3740
      80    C24     20.686440   23.303413   19.162170 C.3        1 MOL1         0.0138
      81    H38     19.841479   22.626859   18.983197 H          1 MOL1         0.0794
      82    H39     21.400840   23.139686   18.344391 H          1 MOL1         0.0794
      83    O20     20.226536   24.659574   19.146196 O.3        1 MOL1        -0.5486
      84    H40     19.379168   24.681133   19.649233 H          1 MOL1         0.3769
      85    C25     24.823481   17.585816   20.666768 C.3        1 MOL1         0.2972
      86    H41     25.406247   16.756814   20.244875 H          1 MOL1         0.0751
      87    O21     23.609185   17.122685   21.284967 O.3        1 MOL1        -0.3740
      88    C26     25.645055   18.364216   21.728098 C.3        1 MOL1         0.1003
      89    H42     26.544022   18.748030   21.228531 H          1 MOL1         0.0783
      90    O22     26.037993   17.508927   22.813722 O.3        1 MOL1        -0.5519
      91    H43     25.216490   17.079667   23.164078 H          1 MOL1         0.3769
      92    C27     24.841164   19.575056   22.263163 C.3        1 MOL1         0.1053
      93    H44     23.987219   19.187625   22.835446 H          1 MOL1         0.0783
      94    O23     25.674220   20.366486   23.117217 O.3        1 MOL1        -0.5519
      95    H45     26.129576   19.721676   23.702913 H          1 MOL1         0.3769
      96    C28     24.291167   20.448194   21.106701 C.3        1 MOL1         0.1018
      97    H46     25.130417   20.986911   20.647506 H          1 MOL1         0.0783
      98    C29     23.569566   19.590368   20.026837 C.3        1 MOL1         0.1043
      99    H47     22.655463   19.172749   20.470237 H          1 MOL1         0.0783
     100    O24     24.451932   18.513154   19.625276 O.3        1 MOL1        -0.3740
     101    C30     23.139370   20.349917   18.745622 C.3        1 MOL1         0.0138
     102    H48     22.121497   20.730384   18.889654 H          1 MOL1         0.0794
     103    H49     23.087896   19.631195   17.916932 H          1 MOL1         0.0794
     104    O25     24.017196   21.427901   18.401921 O.3        1 MOL1        -0.5486
     105    H50     23.783101   22.182830   18.990633 H          1 MOL1         0.3769
     106    C31     21.350383   13.807625   22.082929 C.3        1 MOL1         0.2972
     107    H51     20.918198   12.820477   22.291910 H          1 MOL1         0.0751
     108    O26     20.333389   14.812027   21.902329 O.3        1 MOL1        -0.3740
     109    C32     22.250987   14.248762   23.259640 C.3        1 MOL1         0.1003
     110    H52     23.078979   13.532028   23.336555 H          1 MOL1         0.0783
     111    O27     21.505883   14.254070   24.488179 O.3        1 MOL1        -0.5519
     112    H53     20.551450   14.348797   24.246227 H          1 MOL1         0.3769
     113    C33     22.845511   15.647189   22.981970 C.3        1 MOL1         0.1053
     114    H54     22.017442   16.366040   22.986711 H          1 MOL1         0.0783
     115    O28     23.783460   15.985546   24.008967 O.3        1 MOL1        -0.5519
     116    H55     23.331212   15.751559   24.850290 H          1 MOL1         0.3769
     117    C34     23.530856   15.719889   21.595539 C.3        1 MOL1         0.1018
     118    H56     24.522946   15.254723   21.669425 H          1 MOL1         0.0783
     119    C35     22.698783   15.051984   20.461269 C.3        1 MOL1         0.1043
     120    H57     21.867768   15.728100   20.225104 H          1 MOL1         0.0783
     121    O29     22.159036   13.774096   20.889496 O.3        1 MOL1        -0.3740
     122    C36     23.491142   14.832225   19.150464 C.3        1 MOL1         0.0138
     123    H58     23.664692   15.808774   18.678591 H          1 MOL1         0.0794
     124    H59     22.871349   14.243653   18.460620 H          1 MOL1         0.0794
     125    O30     24.742573   14.173783   19.381027 O.3        1 MOL1        -0.5486
     126    H60     25.148827   13.990175   18.505823 H          1 MOL1         0.3769
     127    C1      19.635033   19.868538   24.020056 C.3        1 MOL1        -0.1693
     128    H1      19.660532   19.736549   25.107992 H          1 MOL1         0.0829
     129    H2      19.491204   20.933371   23.806388 H          1 MOL1         0.0829
     130    C2      18.692248   18.895576   23.236435 C.3        1 MOL1        -0.1768
     131    H3      18.568485   17.913924   23.706886 H          1 MOL1         0.0829
     132    H4      17.702955   19.284134   22.980146 H          1 MOL1         0.0829
     133    C3      19.752300   18.929519   22.093847 C.3        1 MOL1         0.1211
     134    H5      19.883801   17.981511   21.557479 H          1 MOL1         0.0786
     135    C4      20.796161   19.189929   23.223453 C.3        1 MOL1        -0.1768
     136    H6      21.187550   18.283578   23.696955 H          1 MOL1         0.0829
     137    H7      21.639610   19.831428   22.956885 H          1 MOL1         0.0829
     138    O1      19.590609   19.987702   21.173344 O.3        1 MOL1        -0.5515
     139    H8      19.444558   20.796728   21.704748 H          1 MOL1         0.3773
@<TRIPOS>BOND
    1     1     2    1
    2     1     3    1
    3     1     4    1
    4     4     5    1
    5     4     6    1
    6     6     7    1
    7     4     8    1
    8     8     9    1
    9     8    10    1
   10    10    11    1
   11     8    12    1
   12    12    13    1
   13    12    14    1
   14    14    15    1
   15     1    16    1
   16    14    16    1
   17    14    17    1
   18    17    18    1
   19    17    19    1
   20    17    20    1
   21    20    21    1
   22    22    23    1
   23    22    24    1
   24    22    25    1
   25    25    26    1
   26    25    27    1
   27    27    28    1
   28    25    29    1
   29    29    30    1
   30    29    31    1
   31    31    32    1
   32     3    33    1
   33    29    33    1
   34    33    34    1
   35    33    35    1
   36    35    36    1
   37    22    37    1
   38    35    37    1
   39    35    38    1
   40    38    39    1
   41    38    40    1
   42    38    41    1
   43    41    42    1
   44    43    44    1
   45    43    45    1
   46    43    46    1
   47    46    47    1
   48    46    48    1
   49    48    49    1
   50    46    50    1
   51    50    51    1
   52    50    52    1
   53    52    53    1
   54    24    54    1
   55    50    54    1
   56    54    55    1
   57    54    56    1
   58    56    57    1
   59    43    58    1
   60    56    58    1
   61    56    59    1
   62    59    60    1
   63    59    61    1
   64    59    62    1
   65    62    63    1
   66    64    65    1
   67    64    66    1
   68    64    67    1
   69    67    68    1
   70    67    69    1
   71    69    70    1
   72    67    71    1
   73    71    72    1
   74    71    73    1
   75    73    74    1
   76    45    75    1
   77    71    75    1
   78    75    76    1
   79    75    77    1
   80    77    78    1
   81    64    79    1
   82    77    79    1
   83    77    80    1
   84    80    81    1
   85    80    82    1
   86    80    83    1
   87    83    84    1
   88    85    86    1
   89    85    87    1
   90    85    88    1
   91    88    89    1
   92    88    90    1
   93    90    91    1
   94    88    92    1
   95    92    93    1
   96    92    94    1
   97    94    95    1
   98    66    96    1
   99    92    96    1
  100    96    97    1
  101    96    98    1
  102    98    99    1
  103    85   100    1
  104    98   100    1
  105    98   101    1
  106   101   102    1
  107   101   103    1
  108   101   104    1
  109   104   105    1
  110   106   107    1
  111    12   108    1
  112   106   108    1
  113   106   109    1
  114   109   110    1
  115   109   111    1
  116   111   112    1
  117   109   113    1
  118   113   114    1
  119   113   115    1
  120   115   116    1
  121    87   117    1
  122   113   117    1
  123   117   118    1
  124   117   119    1
  125   119   120    1
  126   106   121    1
  127   119   121    1
  128   119   122    1
  129   122   123    1
  130   122   124    1
  131   122   125    1
  132   125   126    1
  133   127   128    1
  134   127   129    1
  135   127   130    1
  136   130   131    1
  137   130   132    1
  138   130   133    1
  139   133   134    1
  140   127   135    1
  141   133   135    1
  142   135   136    1
  143   135   137    1
  144   133   138    1
  145   138   139    1
@<TRIPOS>SUBSTRUCTURE
       1 MOL1            1 RESIDUE      1      MOL     
       2 MOL1          139 RESIDUE      1      MOL     
@<SCITEGIC>MOL_PROPERTY
feprocess Rank
SciTegic.value.IntegerValue
132

@<SCITEGIC>MOL_PROPERTY
Conf_Id
SciTegic.value.IntegerValue
590

@<SCITEGIC>MOL_PROPERTY
Probability
SciTegic.value.DoubleValue
0.01

@<SCITEGIC>MOL_PROPERTY
G
SciTegic.value.DoubleValue
549.462

@<SCITEGIC>MOL_PROPERTY
E
SciTegic.value.DoubleValue
371.882

@<SCITEGIC>MOL_PROPERTY
-TS
SciTegic.value.DoubleValue
177.579

@<SCITEGIC>MOL_PROPERTY
U+W
SciTegic.value.DoubleValue
249.371

@<SCITEGIC>MOL_PROPERTY
U
SciTegic.value.DoubleValue
284.040

@<SCITEGIC>MOL_PROPERTY
W
SciTegic.value.DoubleValue
-34.669

@<SCITEGIC>MOL_PROPERTY
W(PB)
SciTegic.value.DoubleValue
-40.577

@<SCITEGIC>MOL_PROPERTY
W(SA)
SciTegic.value.DoubleValue
5.908

@<SCITEGIC>MOL_PROPERTY
Valence
SciTegic.value.DoubleValue
155.481

@<SCITEGIC>MOL_PROPERTY
Coulomb
SciTegic.value.DoubleValue
151.143

@<SCITEGIC>MOL_PROPERTY
VdW
SciTegic.value.DoubleValue
-22.583

@<SCITEGIC>MOL_PROPERTY
VdW6
SciTegic.value.DoubleValue
-168.763

@<SCITEGIC>MOL_PROPERTY
VdW12
SciTegic.value.DoubleValue
146.180

@<SCITEGIC>MOL_PROPERTY
Bond
SciTegic.value.DoubleValue
4.400

@<SCITEGIC>MOL_PROPERTY
Angle
SciTegic.value.DoubleValue
11.338

@<SCITEGIC>MOL_PROPERTY
Pdih
SciTegic.value.DoubleValue
139.743

@<SCITEGIC>MOL_PROPERTY
Idih
SciTegic.value.DoubleValue
0.000

@<SCITEGIC>MOL_PROPERTY
Tether
SciTegic.value.DoubleValue
0.000

@<TRIPOS>MOLECULE
CD_guest-s16_fast_vm2_rndm.mol2 : feprocess host+ligand conformer 133
         139         145           2
SMALL
USER_CHARGES
 
@<TRIPOS>ATOM
       1    C1      16.137384   15.257578   20.453848 C.3        1 MOL1         0.2972
       2    H1      15.120078   15.168820   20.051121 H          1 MOL1         0.0751
       3    O1      16.362298   16.542181   21.064063 O.3        1 MOL1        -0.3740
       4    C2      16.422221   14.164448   21.516078 C.3        1 MOL1         0.1003
       5    H2      16.330349   13.190857   21.017338 H          1 MOL1         0.0783
       6    O2      15.480926   14.228119   22.599231 O.3        1 MOL1        -0.5519
       7    H3      15.490488   15.156151   22.946485 H          1 MOL1         0.3769
       8    C3      17.870876   14.295170   22.048814 C.3        1 MOL1         0.1053
       9    H4      17.945375   15.238385   22.607920 H          1 MOL1         0.0783
      10    O3      18.165589   13.196356   22.918051 O.3        1 MOL1        -0.5519
      11    H5      17.380904   13.114525   23.504394 H          1 MOL1         0.3769
      12    C4      18.899468   14.338013   20.889900 C.3        1 MOL1         0.1018
      13    H6      18.981360   13.327953   20.467649 H          1 MOL1         0.0783
      14    C5      18.489019   15.341297   19.771541 C.3        1 MOL1         0.1043
      15    H7      18.578984   16.358459   20.170661 H          1 MOL1         0.0783
      16    O4      17.109746   15.098110   19.397577 O.3        1 MOL1        -0.3740
      17    C6      19.354474   15.297571   18.486319 C.3        1 MOL1         0.0138
      18    H8      20.192771   15.994092   18.608581 H          1 MOL1         0.0794
      19    H9      18.752733   15.673742   17.648244 H          1 MOL1         0.0794
      20    O5      19.855746   13.991625   18.181844 O.3        1 MOL1        -0.5486
      21    H10     20.680173   13.879044   18.708580 H          1 MOL1         0.3769
      22    C7      14.765093   20.194456   21.944127 C.3        1 MOL1         0.2972
      23    H11     14.156143   21.080184   22.166906 H          1 MOL1         0.0751
      24    O6      16.160471   20.529720   21.795972 O.3        1 MOL1        -0.3740
      25    C8      14.622633   19.165079   23.089199 C.3        1 MOL1         0.1003
      26    H12     13.568079   18.863521   23.135619 H          1 MOL1         0.0783
      27    O7      15.007066   19.749373   24.344205 O.3        1 MOL1        -0.5519
      28    H13     15.562149   20.541513   24.136009 H          1 MOL1         0.3769
      29    C9      15.469196   17.906929   22.798329 C.3        1 MOL1         0.1053
      30    H14     16.522899   18.198742   22.861634 H          1 MOL1         0.0783
      31    O8      15.194941   16.907583   23.784932 O.3        1 MOL1        -0.5519
      32    H15     15.225612   17.387172   24.642981 H          1 MOL1         0.3769
      33    C10     15.206879   17.339241   21.379685 C.3        1 MOL1         0.1018
      34    H16     14.284573   16.743716   21.403521 H          1 MOL1         0.0783
      35    C11     15.118744   18.436518   20.278918 C.3        1 MOL1         0.1043
      36    H17     16.140820   18.779601   20.076543 H          1 MOL1         0.0783
      37    O9      14.324801   19.566765   20.723184 O.3        1 MOL1        -0.3740
      38    C12     14.539140   17.925489   18.938436 C.3        1 MOL1         0.0138
      39    H18     15.275894   17.257867   18.471498 H          1 MOL1         0.0794
      40    H19     14.403698   18.782637   18.265084 H          1 MOL1         0.0794
      41    O10     13.298682   17.231075   19.117272 O.3        1 MOL1        -0.5486
      42    H20     12.951734   17.006032   18.226390 H          1 MOL1         0.3769
      43    C13     18.533179   23.945514   21.263208 C.3        1 MOL1         0.2972
      44    H21     18.846842   24.976264   21.054231 H          1 MOL1         0.0751
      45    O11     19.664000   23.087530   21.506090 O.3        1 MOL1        -0.3740
      46    C14     17.648483   23.920052   22.535437 C.3        1 MOL1         0.1003
      47    H22     16.788503   24.578262   22.355692 H          1 MOL1         0.0783
      48    O12     18.389433   24.403766   23.667336 O.3        1 MOL1        -0.5519
      49    H23     19.341065   24.198504   23.493896 H          1 MOL1         0.3769
      50    C15     17.112783   22.494831   22.808845 C.3        1 MOL1         0.1053
      51    H24     17.965746   21.853510   23.066155 H          1 MOL1         0.0783
      52    O13     16.183264   22.529251   23.896738 O.3        1 MOL1        -0.5519
      53    H25     16.613189   23.090933   24.580067 H          1 MOL1         0.3769
      54    C16     16.434125   21.919914   21.543482 C.3        1 MOL1         0.1018
      55    H26     15.516624   22.490440   21.346834 H          1 MOL1         0.0783
      56    C17     17.361862   22.022922   20.303155 C.3        1 MOL1         0.1043
      57    H27     18.240669   21.389001   20.475419 H          1 MOL1         0.0783
      58    O14     17.783866   23.402704   20.152118 O.3        1 MOL1        -0.3740
      59    C18     16.716931   21.552221   18.973328 C.3        1 MOL1         0.0138
      60    H28     16.896429   20.475703   18.861893 H          1 MOL1         0.0794
      61    H29     17.232857   22.046592   18.139424 H          1 MOL1         0.0794
      62    O15     15.309832   21.812962   18.902795 O.3        1 MOL1        -0.5486
      63    H30     14.862837   21.161846   19.492575 H          1 MOL1         0.3769
      64    C19     23.725742   22.706367   20.673893 C.3        1 MOL1         0.2972
      65    H31     24.760262   22.821810   20.325770 H          1 MOL1         0.0751
      66    O16     23.489161   21.400993   21.228703 O.3        1 MOL1        -0.3740
      67    C20     23.363820   23.760978   21.753153 C.3        1 MOL1         0.1003
      68    H32     23.451985   24.750235   21.285587 H          1 MOL1         0.0783
      69    O17     24.255215   23.693883   22.877024 O.3        1 MOL1        -0.5519
      70    H33     24.226585   22.764968   23.220704 H          1 MOL1         0.3769
      71    C21     21.895081   23.577763   22.212997 C.3        1 MOL1         0.1053
      72    H34     21.815003   22.612937   22.733228 H          1 MOL1         0.0783
      73    O18     21.530700   24.638237   23.103428 O.3        1 MOL1        -0.5519
      74    H35     22.287345   24.723218   23.725231 H          1 MOL1         0.3769
      75    C22     20.929436   23.555466   21.001806 C.3        1 MOL1         0.1018
      76    H36     20.864084   24.574812   20.599443 H          1 MOL1         0.0783
      77    C23     21.411945   22.590587   19.881134 C.3        1 MOL1         0.1043
      78    H37     21.329425   21.562847   20.253432 H          1 MOL1         0.0783
      79    O19     22.800782   22.880283   19.576333 O.3        1 MOL1        -0.3740
      80    C24     20.594687   22.644137   18.565343 C.3        1 MOL1         0.0138
      81    H38     19.757476   21.940048   18.649704 H          1 MOL1         0.0794
      82    H39     21.230316   22.283003   17.745939 H          1 MOL1         0.0794
      83    O20     20.092882   23.950086   18.260020 O.3        1 MOL1        -0.5486
      84    H40     19.253268   24.052812   18.764291 H          1 MOL1         0.3769
      85    C25     24.948945   17.745904   22.227274 C.3        1 MOL1         0.2972
      86    H41     25.517906   16.848761   22.504132 H          1 MOL1         0.0751
      87    O21     23.571470   17.429930   21.928459 O.3        1 MOL1        -0.3740
      88    C26     24.990661   18.762086   23.391186 C.3        1 MOL1         0.1003
      89    H42     26.040934   19.038784   23.551081 H          1 MOL1         0.0783
      90    O22     24.462251   18.180582   24.594378 O.3        1 MOL1        -0.5519
      91    H43     24.037099   17.323658   24.341509 H          1 MOL1         0.3769
      92    C27     24.207316   20.040274   23.026303 C.3        1 MOL1         0.1053
      93    H44     23.147411   19.771525   22.971853 H          1 MOL1         0.0783
      94    O23     24.393701   21.020672   24.051378 O.3        1 MOL1        -0.5519
      95    H45     24.272608   20.526763   24.893364 H          1 MOL1         0.3769
      96    C28     24.618159   20.617710   21.648307 C.3        1 MOL1         0.1018
      97    H46     25.526359   21.222933   21.768425 H          1 MOL1         0.0783
      98    C29     24.818729   19.530281   20.551260 C.3        1 MOL1         0.1043
      99    H47     23.824102   19.210368   20.218948 H          1 MOL1         0.0783
     100    O24     25.529306   18.374972   21.066947 O.3        1 MOL1        -0.3740
     101    C30     25.562584   20.048629   19.297998 C.3        1 MOL1         0.0138
     102    H48     24.901489   20.744950   18.764409 H          1 MOL1         0.0794
     103    H49     25.752224   19.200326   18.626561 H          1 MOL1         0.0794
     104    O25     26.791813   20.704439   19.632924 O.3        1 MOL1        -0.5486
     105    H50     27.243318   20.938664   18.792688 H          1 MOL1         0.3769
     106    C31     21.295287   13.964049   21.240949 C.3        1 MOL1         0.2972
     107    H51     21.015699   12.931712   20.994734 H          1 MOL1         0.0751
     108    O26     20.134650   14.780460   21.483604 O.3        1 MOL1        -0.3740
     109    C32     22.141306   13.981068   22.540208 C.3        1 MOL1         0.1003
     110    H52     23.024860   13.352118   22.370251 H          1 MOL1         0.0783
     111    O27     21.379653   13.446702   23.634590 O.3        1 MOL1        -0.5519
     112    H53     20.434146   13.669140   23.453791 H          1 MOL1         0.3769
     113    C33     22.627204   15.413577   22.870109 C.3        1 MOL1         0.1053
     114    H54     21.751043   16.026083   23.122841 H          1 MOL1         0.0783
     115    O28     23.528220   15.371093   23.981407 O.3        1 MOL1        -0.5519
     116    H55     23.097609   14.774755   24.634452 H          1 MOL1         0.3769
     117    C34     23.323422   16.040328   21.639306 C.3        1 MOL1         0.1018
     118    H56     24.255382   15.492117   21.446240 H          1 MOL1         0.0783
     119    C35     22.429973   15.948919   20.374095 C.3        1 MOL1         0.1043
     120    H57     21.522294   16.541272   20.542998 H          1 MOL1         0.0783
     121    O29     22.060371   14.561483   20.168199 O.3        1 MOL1        -0.3740
     122    C36     23.095317   16.493795   19.083243 C.3        1 MOL1         0.0138
     123    H58     22.888279   17.569695   19.015874 H          1 MOL1         0.0794
     124    H59     22.615689   16.023548   18.214673 H          1 MOL1         0.0794
     125    O30     24.511059   16.273902   19.040985 O.3        1 MOL1        -0.5486
     126    H60     24.921882   16.880695   19.699936 H          1 MOL1         0.3769
     127    C1      19.089036   18.845741   23.623355 C.3        1 MOL1        -0.1693
     128    H1      18.410790   19.699864   23.739633 H          1 MOL1         0.0829
     129    H2      18.847535   18.101677   24.391459 H          1 MOL1         0.0829
     130    C2      20.600970   19.218163   23.478348 C.3        1 MOL1        -0.1768
     131    H3      20.928334   20.114823   24.016095 H          1 MOL1         0.0829
     132    H4      21.294100   18.398516   23.703315 H          1 MOL1         0.0829
     133    C3      20.281522   19.416223   21.965678 C.3        1 MOL1         0.1211
     134    H5      19.855450   20.398646   21.728328 H          1 MOL1         0.0786
     135    C4      19.215301   18.303543   22.163129 C.3        1 MOL1        -0.1768
     136    H6      19.602580   17.282000   22.093928 H          1 MOL1         0.0829
     137    H7      18.328969   18.392614   21.528064 H          1 MOL1         0.0829
     138    O1      21.311769   19.091429   21.064897 O.3        1 MOL1        -0.5515
     139    H8      21.953730   18.528099   21.547027 H          1 MOL1         0.3773
@<TRIPOS>BOND
    1     1     2    1
    2     1     3    1
    3     1     4    1
    4     4     5    1
    5     4     6    1
    6     6     7    1
    7     4     8    1
    8     8     9    1
    9     8    10    1
   10    10    11    1
   11     8    12    1
   12    12    13    1
   13    12    14    1
   14    14    15    1
   15     1    16    1
   16    14    16    1
   17    14    17    1
   18    17    18    1
   19    17    19    1
   20    17    20    1
   21    20    21    1
   22    22    23    1
   23    22    24    1
   24    22    25    1
   25    25    26    1
   26    25    27    1
   27    27    28    1
   28    25    29    1
   29    29    30    1
   30    29    31    1
   31    31    32    1
   32     3    33    1
   33    29    33    1
   34    33    34    1
   35    33    35    1
   36    35    36    1
   37    22    37    1
   38    35    37    1
   39    35    38    1
   40    38    39    1
   41    38    40    1
   42    38    41    1
   43    41    42    1
   44    43    44    1
   45    43    45    1
   46    43    46    1
   47    46    47    1
   48    46    48    1
   49    48    49    1
   50    46    50    1
   51    50    51    1
   52    50    52    1
   53    52    53    1
   54    24    54    1
   55    50    54    1
   56    54    55    1
   57    54    56    1
   58    56    57    1
   59    43    58    1
   60    56    58    1
   61    56    59    1
   62    59    60    1
   63    59    61    1
   64    59    62    1
   65    62    63    1
   66    64    65    1
   67    64    66    1
   68    64    67    1
   69    67    68    1
   70    67    69    1
   71    69    70    1
   72    67    71    1
   73    71    72    1
   74    71    73    1
   75    73    74    1
   76    45    75    1
   77    71    75    1
   78    75    76    1
   79    75    77    1
   80    77    78    1
   81    64    79    1
   82    77    79    1
   83    77    80    1
   84    80    81    1
   85    80    82    1
   86    80    83    1
   87    83    84    1
   88    85    86    1
   89    85    87    1
   90    85    88    1
   91    88    89    1
   92    88    90    1
   93    90    91    1
   94    88    92    1
   95    92    93    1
   96    92    94    1
   97    94    95    1
   98    66    96    1
   99    92    96    1
  100    96    97    1
  101    96    98    1
  102    98    99    1
  103    85   100    1
  104    98   100    1
  105    98   101    1
  106   101   102    1
  107   101   103    1
  108   101   104    1
  109   104   105    1
  110   106   107    1
  111    12   108    1
  112   106   108    1
  113   106   109    1
  114   109   110    1
  115   109   111    1
  116   111   112    1
  117   109   113    1
  118   113   114    1
  119   113   115    1
  120   115   116    1
  121    87   117    1
  122   113   117    1
  123   117   118    1
  124   117   119    1
  125   119   120    1
  126   106   121    1
  127   119   121    1
  128   119   122    1
  129   122   123    1
  130   122   124    1
  131   122   125    1
  132   125   126    1
  133   127   128    1
  134   127   129    1
  135   127   130    1
  136   130   131    1
  137   130   132    1
  138   130   133    1
  139   133   134    1
  140   127   135    1
  141   133   135    1
  142   135   136    1
  143   135   137    1
  144   133   138    1
  145   138   139    1
@<TRIPOS>SUBSTRUCTURE
       1 MOL1            1 RESIDUE      1      MOL     
       2 MOL1          139 RESIDUE      1      MOL     
@<SCITEGIC>MOL_PROPERTY
feprocess Rank
SciTegic.value.IntegerValue
133

@<SCITEGIC>MOL_PROPERTY
Conf_Id
SciTegic.value.IntegerValue
274

@<SCITEGIC>MOL_PROPERTY
Probability
SciTegic.value.DoubleValue
0.01

@<SCITEGIC>MOL_PROPERTY
G
SciTegic.value.DoubleValue
549.523

@<SCITEGIC>MOL_PROPERTY
E
SciTegic.value.DoubleValue
370.893

@<SCITEGIC>MOL_PROPERTY
-TS
SciTegic.value.DoubleValue
178.630

@<SCITEGIC>MOL_PROPERTY
U+W
SciTegic.value.DoubleValue
248.382

@<SCITEGIC>MOL_PROPERTY
U
SciTegic.value.DoubleValue
283.409

@<SCITEGIC>MOL_PROPERTY
W
SciTegic.value.DoubleValue
-35.027

@<SCITEGIC>MOL_PROPERTY
W(PB)
SciTegic.value.DoubleValue
-40.960

@<SCITEGIC>MOL_PROPERTY
W(SA)
SciTegic.value.DoubleValue
5.933

@<SCITEGIC>MOL_PROPERTY
Valence
SciTegic.value.DoubleValue
156.654

@<SCITEGIC>MOL_PROPERTY
Coulomb
SciTegic.value.DoubleValue
149.436

@<SCITEGIC>MOL_PROPERTY
VdW
SciTegic.value.DoubleValue
-22.681

@<SCITEGIC>MOL_PROPERTY
VdW6
SciTegic.value.DoubleValue
-171.380

@<SCITEGIC>MOL_PROPERTY
VdW12
SciTegic.value.DoubleValue
148.699

@<SCITEGIC>MOL_PROPERTY
Bond
SciTegic.value.DoubleValue
4.596

@<SCITEGIC>MOL_PROPERTY
Angle
SciTegic.value.DoubleValue
12.180

@<SCITEGIC>MOL_PROPERTY
Pdih
SciTegic.value.DoubleValue
139.878

@<SCITEGIC>MOL_PROPERTY
Idih
SciTegic.value.DoubleValue
0.000

@<SCITEGIC>MOL_PROPERTY
Tether
SciTegic.value.DoubleValue
0.000

@<TRIPOS>MOLECULE
CD_guest-s16_fast_vm2_rndm.mol2 : feprocess host+ligand conformer 134
         139         145           2
SMALL
USER_CHARGES
 
@<TRIPOS>ATOM
       1    C1      16.010919   14.975414   20.976877 C.3        1 MOL1         0.2972
       2    H1      14.945940   14.776499   20.801900 H          1 MOL1         0.0751
       3    O1      16.263786   16.367272   21.235275 O.3        1 MOL1        -0.3740
       4    C2      16.499526   14.202874   22.220982 C.3        1 MOL1         0.1003
       5    H2      16.390297   13.130358   22.013461 H          1 MOL1         0.0783
       6    O2      15.705774   14.553797   23.366051 O.3        1 MOL1        -0.5519
       7    H3      15.491328   15.515091   23.276957 H          1 MOL1         0.3769
       8    C3      17.994979   14.495755   22.492769 C.3        1 MOL1         0.1053
       9    H4      18.086108   15.546551   22.802382 H          1 MOL1         0.0783
      10    O3      18.431950   13.637809   23.553121 O.3        1 MOL1        -0.5519
      11    H5      17.687603   13.638370   24.197820 H          1 MOL1         0.3769
      12    C4      18.864845   14.291836   21.218423 C.3        1 MOL1         0.1018
      13    H6      19.018022   13.216144   21.064973 H          1 MOL1         0.0783
      14    C5      18.218762   14.892296   19.935518 C.3        1 MOL1         0.1043
      15    H7      18.309266   15.981796   19.986957 H          1 MOL1         0.0783
      16    O4      16.811013   14.553307   19.852934 O.3        1 MOL1        -0.3740
      17    C6      18.918116   14.451628   18.626137 C.3        1 MOL1         0.0138
      18    H8      19.906203   14.928938   18.579567 H          1 MOL1         0.0794
      19    H9      18.335187   14.829439   17.775836 H          1 MOL1         0.0794
      20    O5      19.062963   13.029823   18.526651 O.3        1 MOL1        -0.5486
      21    H10     19.783447   12.761322   19.135997 H          1 MOL1         0.3769
      22    C7      14.866512   20.219915   20.515977 C.3        1 MOL1         0.2972
      23    H11     14.275493   21.092195   20.209257 H          1 MOL1         0.0751
      24    O6      16.203221   20.605935   20.900793 O.3        1 MOL1        -0.3740
      25    C8      14.165082   19.447352   21.671056 C.3        1 MOL1         0.1003
      26    H12     13.188708   19.122671   21.288517 H          1 MOL1         0.0783
      27    O7      13.953875   20.269046   22.828864 O.3        1 MOL1        -0.5519
      28    H13     14.850867   20.501569   23.178905 H          1 MOL1         0.3769
      29    C9      14.965469   18.179060   22.053523 C.3        1 MOL1         0.1053
      30    H14     15.924097   18.497796   22.487264 H          1 MOL1         0.0783
      31    O8      14.227779   17.411630   23.012544 O.3        1 MOL1        -0.5519
      32    H15     13.906412   18.064735   23.672981 H          1 MOL1         0.3769
      33    C10     15.267051   17.309153   20.809559 C.3        1 MOL1         0.1018
      34    H16     14.339317   16.819853   20.485373 H          1 MOL1         0.0783
      35    C11     15.858360   18.155162   19.650179 C.3        1 MOL1         0.1043
      36    H17     16.846814   18.499633   19.973672 H          1 MOL1         0.0783
      37    O9      14.998245   19.298861   19.409952 O.3        1 MOL1        -0.3740
      38    C12     16.064380   17.403401   18.310372 C.3        1 MOL1         0.0138
      39    H18     17.070021   16.965431   18.309251 H          1 MOL1         0.0794
      40    H19     16.039350   18.136063   17.492779 H          1 MOL1         0.0794
      41    O10     15.093657   16.376528   18.079618 O.3        1 MOL1        -0.5486
      42    H20     15.423445   15.571467   18.540489 H          1 MOL1         0.3769
      43    C13     18.555278   23.747807   22.225628 C.3        1 MOL1         0.2972
      44    H21     18.947226   24.685378   22.640340 H          1 MOL1         0.0751
      45    O11     19.589680   22.985384   21.571858 O.3        1 MOL1        -0.3740
      46    C14     17.917603   22.889761   23.349294 C.3        1 MOL1         0.1003
      47    H22     17.099346   23.482481   23.778772 H          1 MOL1         0.0783
      48    O12     18.862650   22.577382   24.385550 O.3        1 MOL1        -0.5519
      49    H23     19.646606   23.163419   24.251162 H          1 MOL1         0.3769
      50    C15     17.314589   21.586225   22.778538 C.3        1 MOL1         0.1053
      51    H24     18.141260   20.953893   22.424477 H          1 MOL1         0.0783
      52    O13     16.601472   20.914933   23.822850 O.3        1 MOL1        -0.5519
      53    H25     17.226459   20.911573   24.582630 H          1 MOL1         0.3769
      54    C16     16.370412   21.865897   21.582104 C.3        1 MOL1         0.1018
      55    H26     15.419960   22.257821   21.966601 H          1 MOL1         0.0783
      56    C17     16.977329   22.872644   20.562658 C.3        1 MOL1         0.1043
      57    H27     17.782351   22.363928   20.019280 H          1 MOL1         0.0783
      58    O14     17.527058   24.025275   21.251505 O.3        1 MOL1        -0.3740
      59    C18     15.962954   23.371963   19.506061 C.3        1 MOL1         0.0138
      60    H28     15.742781   22.545289   18.817169 H          1 MOL1         0.0794
      61    H29     16.435403   24.169480   18.917022 H          1 MOL1         0.0794
      62    O15     14.748200   23.845014   20.101370 O.3        1 MOL1        -0.5486
      63    H30     14.192054   24.222179   19.385015 H          1 MOL1         0.3769
      64    C19     23.729133   22.921180   21.232272 C.3        1 MOL1         0.2972
      65    H31     24.789697   23.151672   21.071897 H          1 MOL1         0.0751
      66    O16     23.504082   21.511228   21.420639 O.3        1 MOL1        -0.3740
      67    C20     23.209728   23.643246   22.498563 C.3        1 MOL1         0.1003
      68    H32     23.326687   24.722287   22.333334 H          1 MOL1         0.0783
      69    O17     23.973635   23.256003   23.652376 O.3        1 MOL1        -0.5519
      70    H33     24.192106   22.295465   23.551137 H          1 MOL1         0.3769
      71    C21     21.704630   23.354797   22.724662 C.3        1 MOL1         0.1053
      72    H34     21.594661   22.292755   22.985096 H          1 MOL1         0.0783
      73    O18     21.243083   24.171175   23.806401 O.3        1 MOL1        -0.5519
      74    H35     21.964767   24.132509   24.475211 H          1 MOL1         0.3769
      75    C22     20.874997   23.625766   21.438667 C.3        1 MOL1         0.1018
      76    H36     20.771570   24.709333   21.298382 H          1 MOL1         0.0783
      77    C23     21.532473   23.010705   20.172348 C.3        1 MOL1         0.1043
      78    H37     21.445871   21.920077   20.243303 H          1 MOL1         0.0783
      79    O19     22.935380   23.364933   20.113016 O.3        1 MOL1        -0.3740
      80    C24     20.853245   23.434733   18.846070 C.3        1 MOL1         0.0138
      81    H38     19.890542   22.913503   18.762009 H          1 MOL1         0.0794
      82    H39     21.478386   23.093968   18.010194 H          1 MOL1         0.0794
      83    O20     20.643175   24.849016   18.757952 O.3        1 MOL1        -0.5486
      84    H40     19.898941   25.074612   19.356587 H          1 MOL1         0.3769
      85    C25     25.057923   17.729919   20.904474 C.3        1 MOL1         0.2972
      86    H41     25.662101   16.837778   20.695912 H          1 MOL1         0.0751
      87    O21     23.662096   17.391034   21.071795 O.3        1 MOL1        -0.3740
      88    C26     25.590213   18.486580   22.153479 C.3        1 MOL1         0.1003
      89    H42     26.604323   18.830138   21.910882 H          1 MOL1         0.0783
      90    O22     25.657904   17.647801   23.315578 O.3        1 MOL1        -0.5519
      91    H43     24.724856   17.416310   23.552407 H          1 MOL1         0.3769
      92    C27     24.721733   19.735865   22.431295 C.3        1 MOL1         0.1053
      93    H44     23.711217   19.398971   22.701133 H          1 MOL1         0.0783
      94    O23     25.284383   20.490187   23.510450 O.3        1 MOL1        -0.5519
      95    H45     25.519925   19.824917   24.194935 H          1 MOL1         0.3769
      96    C28     24.614573   20.631444   21.173378 C.3        1 MOL1         0.1018
      97    H46     25.560591   21.175282   21.055485 H          1 MOL1         0.0783
      98    C29     24.300432   19.824609   19.881467 C.3        1 MOL1         0.1043
      99    H47     23.254360   19.499875   19.933554 H          1 MOL1         0.0783
     100    O24     25.149691   18.652541   19.798603 O.3        1 MOL1        -0.3740
     101    C30     24.464916   20.638714   18.574184 C.3        1 MOL1         0.0138
     102    H48     23.649462   21.370297   18.505220 H          1 MOL1         0.0794
     103    H49     24.353509   19.951724   17.724776 H          1 MOL1         0.0794
     104    O25     25.727718   21.311160   18.496081 O.3        1 MOL1        -0.5486
     105    H50     25.631038   22.179862   18.940191 H          1 MOL1         0.3769
     106    C31     21.132578   14.247504   22.132572 C.3        1 MOL1         0.2972
     107    H51     20.738964   13.295038   22.509641 H          1 MOL1         0.0751
     108    O26     20.124945   14.979458   21.400916 O.3        1 MOL1        -0.3740
     109    C32     21.656243   15.108851   23.313318 C.3        1 MOL1         0.1003
     110    H52     22.425136   14.513574   23.823081 H          1 MOL1         0.0783
     111    O27     20.615423   15.427936   24.249900 O.3        1 MOL1        -0.5519
     112    H53     19.912225   14.742326   24.147736 H          1 MOL1         0.3769
     113    C33     22.316741   16.412363   22.813110 C.3        1 MOL1         0.1053
     114    H54     21.533444   17.049272   22.385091 H          1 MOL1         0.0783
     115    O28     22.915908   17.074069   23.930554 O.3        1 MOL1        -0.5519
     116    H55     22.219312   17.057181   24.625738 H          1 MOL1         0.3769
     117    C34     23.370675   16.131405   21.713276 C.3        1 MOL1         0.1018
     118    H56     24.261013   15.692280   22.182357 H          1 MOL1         0.0783
     119    C35     22.830453   15.166198   20.621429 C.3        1 MOL1         0.1043
     120    H57     22.060870   15.693863   20.044977 H          1 MOL1         0.0783
     121    O29     22.237918   13.997465   21.239671 O.3        1 MOL1        -0.3740
     122    C36     23.914159   14.695017   19.622181 C.3        1 MOL1         0.0138
     123    H58     24.188718   15.543617   18.981001 H          1 MOL1         0.0794
     124    H59     23.479923   13.922785   18.973133 H          1 MOL1         0.0794
     125    O30     25.080323   14.190959   20.285732 O.3        1 MOL1        -0.5486
     126    H60     25.684276   13.835190   19.597775 H          1 MOL1         0.3769
     127    C1      20.602393   19.628271   18.414565 C.3        1 MOL1        -0.1693
     128    H1      21.530967   20.181671   18.587014 H          1 MOL1         0.0829
     129    H2      20.293674   19.781170   17.373816 H          1 MOL1         0.0829
     130    C2      19.497316   19.853074   19.494649 C.3        1 MOL1        -0.1768
     131    H3      19.470389   20.830021   19.980729 H          1 MOL1         0.0829
     132    H4      18.486592   19.609032   19.155014 H          1 MOL1         0.0829
     133    C3      20.212590   18.730035   20.303149 C.3        1 MOL1         0.1211
     134    H5      21.063613   19.085041   20.900200 H          1 MOL1         0.0786
     135    C4      20.612321   18.145588   18.914696 C.3        1 MOL1        -0.1768
     136    H6      21.580132   17.635677   18.870775 H          1 MOL1         0.0829
     137    H7      19.850741   17.505314   18.454458 H          1 MOL1         0.0829
     138    O1      19.355984   17.929303   21.082339 O.3        1 MOL1        -0.5515
     139    H8      19.820083   17.091927   21.293519 H          1 MOL1         0.3773
@<TRIPOS>BOND
    1     1     2    1
    2     1     3    1
    3     1     4    1
    4     4     5    1
    5     4     6    1
    6     6     7    1
    7     4     8    1
    8     8     9    1
    9     8    10    1
   10    10    11    1
   11     8    12    1
   12    12    13    1
   13    12    14    1
   14    14    15    1
   15     1    16    1
   16    14    16    1
   17    14    17    1
   18    17    18    1
   19    17    19    1
   20    17    20    1
   21    20    21    1
   22    22    23    1
   23    22    24    1
   24    22    25    1
   25    25    26    1
   26    25    27    1
   27    27    28    1
   28    25    29    1
   29    29    30    1
   30    29    31    1
   31    31    32    1
   32     3    33    1
   33    29    33    1
   34    33    34    1
   35    33    35    1
   36    35    36    1
   37    22    37    1
   38    35    37    1
   39    35    38    1
   40    38    39    1
   41    38    40    1
   42    38    41    1
   43    41    42    1
   44    43    44    1
   45    43    45    1
   46    43    46    1
   47    46    47    1
   48    46    48    1
   49    48    49    1
   50    46    50    1
   51    50    51    1
   52    50    52    1
   53    52    53    1
   54    24    54    1
   55    50    54    1
   56    54    55    1
   57    54    56    1
   58    56    57    1
   59    43    58    1
   60    56    58    1
   61    56    59    1
   62    59    60    1
   63    59    61    1
   64    59    62    1
   65    62    63    1
   66    64    65    1
   67    64    66    1
   68    64    67    1
   69    67    68    1
   70    67    69    1
   71    69    70    1
   72    67    71    1
   73    71    72    1
   74    71    73    1
   75    73    74    1
   76    45    75    1
   77    71    75    1
   78    75    76    1
   79    75    77    1
   80    77    78    1
   81    64    79    1
   82    77    79    1
   83    77    80    1
   84    80    81    1
   85    80    82    1
   86    80    83    1
   87    83    84    1
   88    85    86    1
   89    85    87    1
   90    85    88    1
   91    88    89    1
   92    88    90    1
   93    90    91    1
   94    88    92    1
   95    92    93    1
   96    92    94    1
   97    94    95    1
   98    66    96    1
   99    92    96    1
  100    96    97    1
  101    96    98    1
  102    98    99    1
  103    85   100    1
  104    98   100    1
  105    98   101    1
  106   101   102    1
  107   101   103    1
  108   101   104    1
  109   104   105    1
  110   106   107    1
  111    12   108    1
  112   106   108    1
  113   106   109    1
  114   109   110    1
  115   109   111    1
  116   111   112    1
  117   109   113    1
  118   113   114    1
  119   113   115    1
  120   115   116    1
  121    87   117    1
  122   113   117    1
  123   117   118    1
  124   117   119    1
  125   119   120    1
  126   106   121    1
  127   119   121    1
  128   119   122    1
  129   122   123    1
  130   122   124    1
  131   122   125    1
  132   125   126    1
  133   127   128    1
  134   127   129    1
  135   127   130    1
  136   130   131    1
  137   130   132    1
  138   130   133    1
  139   133   134    1
  140   127   135    1
  141   133   135    1
  142   135   136    1
  143   135   137    1
  144   133   138    1
  145   138   139    1
@<TRIPOS>SUBSTRUCTURE
       1 MOL1            1 RESIDUE      1      MOL     
       2 MOL1          139 RESIDUE      1      MOL     
@<SCITEGIC>MOL_PROPERTY
feprocess Rank
SciTegic.value.IntegerValue
134

@<SCITEGIC>MOL_PROPERTY
Conf_Id
SciTegic.value.IntegerValue
646

@<SCITEGIC>MOL_PROPERTY
Probability
SciTegic.value.DoubleValue
0.01

@<SCITEGIC>MOL_PROPERTY
G
SciTegic.value.DoubleValue
549.556

@<SCITEGIC>MOL_PROPERTY
E
SciTegic.value.DoubleValue
371.501

@<SCITEGIC>MOL_PROPERTY
-TS
SciTegic.value.DoubleValue
178.055

@<SCITEGIC>MOL_PROPERTY
U+W
SciTegic.value.DoubleValue
248.990

@<SCITEGIC>MOL_PROPERTY
U
SciTegic.value.DoubleValue
287.168

@<SCITEGIC>MOL_PROPERTY
W
SciTegic.value.DoubleValue
-38.178

@<SCITEGIC>MOL_PROPERTY
W(PB)
SciTegic.value.DoubleValue
-44.235

@<SCITEGIC>MOL_PROPERTY
W(SA)
SciTegic.value.DoubleValue
6.057

@<SCITEGIC>MOL_PROPERTY
Valence
SciTegic.value.DoubleValue
151.560

@<SCITEGIC>MOL_PROPERTY
Coulomb
SciTegic.value.DoubleValue
154.997

@<SCITEGIC>MOL_PROPERTY
VdW
SciTegic.value.DoubleValue
-19.389

@<SCITEGIC>MOL_PROPERTY
VdW6
SciTegic.value.DoubleValue
-165.487

@<SCITEGIC>MOL_PROPERTY
VdW12
SciTegic.value.DoubleValue
146.098

@<SCITEGIC>MOL_PROPERTY
Bond
SciTegic.value.DoubleValue
4.659

@<SCITEGIC>MOL_PROPERTY
Angle
SciTegic.value.DoubleValue
12.619

@<SCITEGIC>MOL_PROPERTY
Pdih
SciTegic.value.DoubleValue
134.281

@<SCITEGIC>MOL_PROPERTY
Idih
SciTegic.value.DoubleValue
0.000

@<SCITEGIC>MOL_PROPERTY
Tether
SciTegic.value.DoubleValue
0.000

@<TRIPOS>MOLECULE
CD_guest-s16_fast_vm2_rndm.mol2 : feprocess host+ligand conformer 135
         139         145           2
SMALL
USER_CHARGES
 
@<TRIPOS>ATOM
       1    C1      16.174069   15.339960   20.454169 C.3        1 MOL1         0.2972
       2    H1      15.158369   15.165101   20.077065 H          1 MOL1         0.0751
       3    O1      16.341292   16.699794   20.900691 O.3        1 MOL1        -0.3740
       4    C2      16.531137   14.352077   21.602661 C.3        1 MOL1         0.1003
       5    H2      16.484490   13.341179   21.177035 H          1 MOL1         0.0783
       6    O2      15.606135   14.427962   22.697457 O.3        1 MOL1        -0.5519
       7    H3      15.693936   15.331768   23.092310 H          1 MOL1         0.3769
       8    C3      17.980401   14.587767   22.096162 C.3        1 MOL1         0.1053
       9    H4      18.030824   15.584769   22.554030 H          1 MOL1         0.0783
      10    O3      18.331192   13.589759   23.060389 O.3        1 MOL1        -0.5519
      11    H5      17.543714   13.506761   23.643660 H          1 MOL1         0.3769
      12    C4      18.969347   14.543276   20.905738 C.3        1 MOL1         0.1018
      13    H6      19.024968   13.510098   20.537889 H          1 MOL1         0.0783
      14    C5      18.516318   15.460767   19.739963 C.3        1 MOL1         0.1043
      15    H7      18.573136   16.503522   20.078822 H          1 MOL1         0.0783
      16    O4      17.143110   15.133519   19.398193 O.3        1 MOL1        -0.3740
      17    C6      19.397635   15.358012   18.467255 C.3        1 MOL1         0.0138
      18    H8      20.218706   16.080725   18.557053 H          1 MOL1         0.0794
      19    H9      18.797718   15.664664   17.600080 H          1 MOL1         0.0794
      20    O5      19.939449   14.048200   18.254558 O.3        1 MOL1        -0.5486
      21    H10     20.653898   13.917208   18.920558 H          1 MOL1         0.3769
      22    C7      14.896383   20.252023   22.098878 C.3        1 MOL1         0.2972
      23    H11     14.387704   21.157521   22.449739 H          1 MOL1         0.0751
      24    O6      16.170827   20.549407   21.493740 O.3        1 MOL1        -0.3740
      25    C8      15.147783   19.292032   23.285249 C.3        1 MOL1         0.1003
      26    H12     14.171818   19.026037   23.711319 H          1 MOL1         0.0783
      27    O7      15.960039   19.926235   24.286858 O.3        1 MOL1        -0.5519
      28    H13     16.809827   20.176196   23.844843 H          1 MOL1         0.3769
      29    C9      15.847707   17.999271   22.814779 C.3        1 MOL1         0.1053
      30    H14     16.876087   18.274125   22.571614 H          1 MOL1         0.0783
      31    O8      15.864647   17.049704   23.884789 O.3        1 MOL1        -0.5519
      32    H15     16.152005   17.560698   24.674046 H          1 MOL1         0.3769
      33    C10     15.233027   17.368085   21.538001 C.3        1 MOL1         0.1018
      34    H16     14.433421   16.674046   21.827496 H          1 MOL1         0.0783
      35    C11     14.704872   18.403604   20.500416 C.3        1 MOL1         0.1043
      36    H17     15.566135   18.759057   19.925140 H          1 MOL1         0.0783
      37    O9      14.081957   19.545516   21.140533 O.3        1 MOL1        -0.3740
      38    C12     13.708272   17.801956   19.481562 C.3        1 MOL1         0.0138
      39    H18     14.255644   17.114248   18.823014 H          1 MOL1         0.0794
      40    H19     13.317453   18.613189   18.852780 H          1 MOL1         0.0794
      41    O10     12.631862   17.107646   20.123396 O.3        1 MOL1        -0.5486
      42    H20     12.004368   16.818529   19.425032 H          1 MOL1         0.3769
      43    C13     18.589876   23.710334   20.489539 C.3        1 MOL1         0.2972
      44    H21     19.073048   24.600345   20.066887 H          1 MOL1         0.0751
      45    O11     19.527239   22.895623   21.227906 O.3        1 MOL1        -0.3740
      46    C14     17.433254   24.118686   21.433361 C.3        1 MOL1         0.1003
      47    H22     16.728111   24.712829   20.837561 H          1 MOL1         0.0783
      48    O12     17.918621   24.918634   22.524502 O.3        1 MOL1        -0.5519
      49    H23     18.658971   24.417869   22.951958 H          1 MOL1         0.3769
      50    C15     16.671326   22.883415   21.975558 C.3        1 MOL1         0.1053
      51    H24     17.313514   22.400351   22.720886 H          1 MOL1         0.0783
      52    O13     15.474318   23.342597   22.610597 O.3        1 MOL1        -0.5519
      53    H25     15.761656   24.061939   23.215132 H          1 MOL1         0.3769
      54    C16     16.333113   21.837807   20.868540 C.3        1 MOL1         0.1018
      55    H26     15.418251   22.150372   20.350159 H          1 MOL1         0.0783
      56    C17     17.480388   21.639359   19.835065 C.3        1 MOL1         0.1043
      57    H27     18.274353   21.053358   20.314421 H          1 MOL1         0.0783
      58    O14     18.022525   22.915340   19.430939 O.3        1 MOL1        -0.3740
      59    C18     17.071357   20.855246   18.562640 C.3        1 MOL1         0.0138
      60    H28     17.065803   19.784163   18.799188 H          1 MOL1         0.0794
      61    H29     17.846422   21.004558   17.799180 H          1 MOL1         0.0794
      62    O15     15.794122   21.248191   18.045071 O.3        1 MOL1        -0.5486
      63    H30     15.113296   20.978089   18.697702 H          1 MOL1         0.3769
      64    C19     23.570260   22.785943   22.181944 C.3        1 MOL1         0.2972
      65    H31     24.616207   23.021745   22.416924 H          1 MOL1         0.0751
      66    O16     23.364809   21.363316   22.097137 O.3        1 MOL1        -0.3740
      67    C20     22.645590   23.337012   23.297019 C.3        1 MOL1         0.1003
      68    H32     22.791665   24.423996   23.344152 H          1 MOL1         0.0783
      69    O17     22.997252   22.752207   24.559845 O.3        1 MOL1        -0.5519
      70    H33     23.286399   21.830889   24.363769 H          1 MOL1         0.3769
      71    C21     21.155798   23.065927   22.977102 C.3        1 MOL1         0.1053
      72    H34     20.988001   21.984679   23.047315 H          1 MOL1         0.0783
      73    O18     20.325406   23.743338   23.926270 O.3        1 MOL1        -0.5519
      74    H35     20.683199   23.490370   24.805845 H          1 MOL1         0.3769
      75    C22     20.784099   23.530545   21.549101 C.3        1 MOL1         0.1018
      76    H36     20.699110   24.625674   21.556813 H          1 MOL1         0.0783
      77    C23     21.826452   23.087282   20.483755 C.3        1 MOL1         0.1043
      78    H37     21.717527   22.004049   20.353310 H          1 MOL1         0.0783
      79    O19     23.176388   23.381610   20.928888 O.3        1 MOL1        -0.3740
      80    C24     21.627278   23.745634   19.096641 C.3        1 MOL1         0.0138
      81    H38     20.727693   23.320712   18.631438 H          1 MOL1         0.0794
      82    H39     22.479133   23.480850   18.456051 H          1 MOL1         0.0794
      83    O20     21.502198   25.169895   19.189681 O.3        1 MOL1        -0.5486
      84    H40     21.471997   25.527235   18.275444 H          1 MOL1         0.3769
      85    C25     25.083790   17.730595   21.091450 C.3        1 MOL1         0.2972
      86    H41     25.717114   16.902200   20.748533 H          1 MOL1         0.0751
      87    O21     23.739553   17.293016   21.381070 O.3        1 MOL1        -0.3740
      88    C26     25.673610   18.401626   22.357635 C.3        1 MOL1         0.1003
      89    H42     26.652363   18.815062   22.081504 H          1 MOL1         0.0783
      90    O22     25.851499   17.454765   23.422041 O.3        1 MOL1        -0.5519
      91    H43     24.984301   16.994466   23.557135 H          1 MOL1         0.3769
      92    C27     24.773419   19.575673   22.814673 C.3        1 MOL1         0.1053
      93    H44     23.816480   19.156134   23.151118 H          1 MOL1         0.0783
      94    O23     25.403541   20.265536   23.898705 O.3        1 MOL1        -0.5519
      95    H45     25.719398   19.558842   24.504278 H          1 MOL1         0.3769
      96    C28     24.483613   20.566036   21.655652 C.3        1 MOL1         0.1018
      97    H46     25.383282   21.172917   21.490495 H          1 MOL1         0.0783
      98    C29     24.089274   19.839257   20.331500 C.3        1 MOL1         0.1043
      99    H47     23.080989   19.425506   20.453370 H          1 MOL1         0.0783
     100    O24     25.013066   18.752667   20.075793 O.3        1 MOL1        -0.3740
     101    C30     24.058077   20.730879   19.061648 C.3        1 MOL1         0.0138
     102    H48     23.034743   21.090566   18.907850 H          1 MOL1         0.0794
     103    H49     24.297528   20.104608   18.191763 H          1 MOL1         0.0794
     104    O25     24.958881   21.842639   19.119623 O.3        1 MOL1        -0.5486
     105    H50     24.547631   22.514905   19.712311 H          1 MOL1         0.3769
     106    C31     21.251761   13.997917   21.541965 C.3        1 MOL1         0.2972
     107    H51     20.808497   12.994583   21.586161 H          1 MOL1         0.0751
     108    O26     20.245602   15.016599   21.372805 O.3        1 MOL1        -0.3740
     109    C32     22.024360   14.282910   22.851013 C.3        1 MOL1         0.1003
     110    H52     22.824772   13.536070   22.933167 H          1 MOL1         0.0783
     111    O27     21.154859   14.174750   23.990089 O.3        1 MOL1        -0.5519
     112    H53     20.226706   14.167293   23.647759 H          1 MOL1         0.3769
     113    C33     22.675873   15.681727   22.801818 C.3        1 MOL1         0.1053
     114    H54     21.868409   16.421346   22.786022 H          1 MOL1         0.0783
     115    O28     23.480799   15.866441   23.969710 O.3        1 MOL1        -0.5519
     116    H55     22.918553   15.547360   24.711132 H          1 MOL1         0.3769
     117    C34     23.526699   15.873979   21.521967 C.3        1 MOL1         0.1018
     118    H56     24.469372   15.323422   21.640863 H          1 MOL1         0.0783
     119    C35     22.783860   15.401671   20.238584 C.3        1 MOL1         0.1043
     120    H57     21.994217   16.132909   20.023984 H          1 MOL1         0.0783
     121    O29     22.176378   14.098042   20.438421 O.3        1 MOL1        -0.3740
     122    C36     23.695615   15.331901   18.990462 C.3        1 MOL1         0.0138
     123    H58     23.955451   16.356369   18.691030 H          1 MOL1         0.0794
     124    H59     23.126771   14.884655   18.164178 H          1 MOL1         0.0794
     125    O30     24.890742   14.580859   19.237840 O.3        1 MOL1        -0.5486
     126    H60     25.383695   14.517909   18.390735 H          1 MOL1         0.3769
     127    C1      20.986253   18.889682   23.794015 C.3        1 MOL1        -0.1693
     128    H1      21.837970   18.277732   24.108819 H          1 MOL1         0.0829
     129    H2      20.965410   19.796305   24.412595 H          1 MOL1         0.0829
     130    C2      19.609944   18.151416   23.670517 C.3        1 MOL1        -0.1768
     131    H3      19.677493   17.104217   23.354606 H          1 MOL1         0.0829
     132    H4      18.951423   18.212482   24.543640 H          1 MOL1         0.0829
     133    C3      19.301267   19.155974   22.517963 C.3        1 MOL1         0.1211
     134    H5      18.707438   18.757741   21.686422 H          1 MOL1         0.0786
     135    C4      20.833695   19.143147   22.256873 C.3        1 MOL1        -0.1768
     136    H6      21.246366   20.073423   21.865615 H          1 MOL1         0.0829
     137    H7      21.171278   18.317849   21.619659 H          1 MOL1         0.0829
     138    O1      18.768348   20.388749   22.957934 O.3        1 MOL1        -0.5515
     139    H8      19.067060   21.083132   22.333673 H          1 MOL1         0.3773
@<TRIPOS>BOND
    1     1     2    1
    2     1     3    1
    3     1     4    1
    4     4     5    1
    5     4     6    1
    6     6     7    1
    7     4     8    1
    8     8     9    1
    9     8    10    1
   10    10    11    1
   11     8    12    1
   12    12    13    1
   13    12    14    1
   14    14    15    1
   15     1    16    1
   16    14    16    1
   17    14    17    1
   18    17    18    1
   19    17    19    1
   20    17    20    1
   21    20    21    1
   22    22    23    1
   23    22    24    1
   24    22    25    1
   25    25    26    1
   26    25    27    1
   27    27    28    1
   28    25    29    1
   29    29    30    1
   30    29    31    1
   31    31    32    1
   32     3    33    1
   33    29    33    1
   34    33    34    1
   35    33    35    1
   36    35    36    1
   37    22    37    1
   38    35    37    1
   39    35    38    1
   40    38    39    1
   41    38    40    1
   42    38    41    1
   43    41    42    1
   44    43    44    1
   45    43    45    1
   46    43    46    1
   47    46    47    1
   48    46    48    1
   49    48    49    1
   50    46    50    1
   51    50    51    1
   52    50    52    1
   53    52    53    1
   54    24    54    1
   55    50    54    1
   56    54    55    1
   57    54    56    1
   58    56    57    1
   59    43    58    1
   60    56    58    1
   61    56    59    1
   62    59    60    1
   63    59    61    1
   64    59    62    1
   65    62    63    1
   66    64    65    1
   67    64    66    1
   68    64    67    1
   69    67    68    1
   70    67    69    1
   71    69    70    1
   72    67    71    1
   73    71    72    1
   74    71    73    1
   75    73    74    1
   76    45    75    1
   77    71    75    1
   78    75    76    1
   79    75    77    1
   80    77    78    1
   81    64    79    1
   82    77    79    1
   83    77    80    1
   84    80    81    1
   85    80    82    1
   86    80    83    1
   87    83    84    1
   88    85    86    1
   89    85    87    1
   90    85    88    1
   91    88    89    1
   92    88    90    1
   93    90    91    1
   94    88    92    1
   95    92    93    1
   96    92    94    1
   97    94    95    1
   98    66    96    1
   99    92    96    1
  100    96    97    1
  101    96    98    1
  102    98    99    1
  103    85   100    1
  104    98   100    1
  105    98   101    1
  106   101   102    1
  107   101   103    1
  108   101   104    1
  109   104   105    1
  110   106   107    1
  111    12   108    1
  112   106   108    1
  113   106   109    1
  114   109   110    1
  115   109   111    1
  116   111   112    1
  117   109   113    1
  118   113   114    1
  119   113   115    1
  120   115   116    1
  121    87   117    1
  122   113   117    1
  123   117   118    1
  124   117   119    1
  125   119   120    1
  126   106   121    1
  127   119   121    1
  128   119   122    1
  129   122   123    1
  130   122   124    1
  131   122   125    1
  132   125   126    1
  133   127   128    1
  134   127   129    1
  135   127   130    1
  136   130   131    1
  137   130   132    1
  138   130   133    1
  139   133   134    1
  140   127   135    1
  141   133   135    1
  142   135   136    1
  143   135   137    1
  144   133   138    1
  145   138   139    1
@<TRIPOS>SUBSTRUCTURE
       1 MOL1            1 RESIDUE      1      MOL     
       2 MOL1          139 RESIDUE      1      MOL     
@<SCITEGIC>MOL_PROPERTY
feprocess Rank
SciTegic.value.IntegerValue
135

@<SCITEGIC>MOL_PROPERTY
Conf_Id
SciTegic.value.IntegerValue
348

@<SCITEGIC>MOL_PROPERTY
Probability
SciTegic.value.DoubleValue
0.01

@<SCITEGIC>MOL_PROPERTY
G
SciTegic.value.DoubleValue
549.569

@<SCITEGIC>MOL_PROPERTY
E
SciTegic.value.DoubleValue
370.451

@<SCITEGIC>MOL_PROPERTY
-TS
SciTegic.value.DoubleValue
179.118

@<SCITEGIC>MOL_PROPERTY
U+W
SciTegic.value.DoubleValue
247.939

@<SCITEGIC>MOL_PROPERTY
U
SciTegic.value.DoubleValue
285.918

@<SCITEGIC>MOL_PROPERTY
W
SciTegic.value.DoubleValue
-37.978

@<SCITEGIC>MOL_PROPERTY
W(PB)
SciTegic.value.DoubleValue
-43.980

@<SCITEGIC>MOL_PROPERTY
W(SA)
SciTegic.value.DoubleValue
6.001

@<SCITEGIC>MOL_PROPERTY
Valence
SciTegic.value.DoubleValue
152.273

@<SCITEGIC>MOL_PROPERTY
Coulomb
SciTegic.value.DoubleValue
154.093

@<SCITEGIC>MOL_PROPERTY
VdW
SciTegic.value.DoubleValue
-20.448

@<SCITEGIC>MOL_PROPERTY
VdW6
SciTegic.value.DoubleValue
-169.898

@<SCITEGIC>MOL_PROPERTY
VdW12
SciTegic.value.DoubleValue
149.449

@<SCITEGIC>MOL_PROPERTY
Bond
SciTegic.value.DoubleValue
4.820

@<SCITEGIC>MOL_PROPERTY
Angle
SciTegic.value.DoubleValue
13.780

@<SCITEGIC>MOL_PROPERTY
Pdih
SciTegic.value.DoubleValue
133.672

@<SCITEGIC>MOL_PROPERTY
Idih
SciTegic.value.DoubleValue
0.000

@<SCITEGIC>MOL_PROPERTY
Tether
SciTegic.value.DoubleValue
0.000

@<TRIPOS>MOLECULE
CD_guest-s16_fast_vm2_rndm.mol2 : feprocess host+ligand conformer 136
         139         145           2
SMALL
USER_CHARGES
 
@<TRIPOS>ATOM
       1    C1      15.953695   15.106171   21.039512 C.3        1 MOL1         0.2972
       2    H1      14.902607   14.947073   20.766195 H          1 MOL1         0.0751
       3    O1      16.105837   16.254651   21.897388 O.3        1 MOL1        -0.3740
       4    C2      16.497490   13.877770   21.815259 C.3        1 MOL1         0.1003
       5    H2      16.377542   12.997877   21.169866 H          1 MOL1         0.0783
       6    O2      15.753678   13.687235   23.028023 O.3        1 MOL1        -0.5519
       7    H3      15.691612   14.574404   23.450885 H          1 MOL1         0.3769
       8    C3      18.004329   14.038107   22.138654 C.3        1 MOL1         0.1053
       9    H4      18.113969   14.846386   22.873775 H          1 MOL1         0.0783
      10    O3      18.511501   12.816546   22.685907 O.3        1 MOL1        -0.5519
      11    H5      17.854816   12.545257   23.365183 H          1 MOL1         0.3769
      12    C4      18.811136   14.426439   20.877462 C.3        1 MOL1         0.1018
      13    H6      18.855394   13.558462   20.206398 H          1 MOL1         0.0783
      14    C5      18.161777   15.617550   20.126009 C.3        1 MOL1         0.1043
      15    H7      18.205261   16.498903   20.773377 H          1 MOL1         0.0783
      16    O4      16.776643   15.294974   19.864944 O.3        1 MOL1        -0.3740
      17    C6      18.850871   16.005237   18.792537 C.3        1 MOL1         0.0138
      18    H8      19.653787   16.720225   19.012089 H          1 MOL1         0.0794
      19    H9      18.121099   16.529597   18.161350 H          1 MOL1         0.0794
      20    O5      19.393015   14.882315   18.088669 O.3        1 MOL1        -0.5486
      21    H10     20.240565   14.647163   18.532737 H          1 MOL1         0.3769
      22    C7      14.891286   20.211050   21.775219 C.3        1 MOL1         0.2972
      23    H11     14.345401   21.163615   21.777316 H          1 MOL1         0.0751
      24    O6      16.300849   20.410828   21.555645 O.3        1 MOL1        -0.3740
      25    C8      14.688936   19.495720   23.127800 C.3        1 MOL1         0.1003
      26    H12     13.614298   19.306316   23.248068 H          1 MOL1         0.0783
      27    O7      15.156858   20.319822   24.208845 O.3        1 MOL1        -0.5519
      28    H13     15.503680   21.153045   23.805292 H          1 MOL1         0.3769
      29    C9      15.426163   18.141669   23.128865 C.3        1 MOL1         0.1053
      30    H14     16.497378   18.360857   23.072826 H          1 MOL1         0.0783
      31    O8      15.143874   17.447529   24.347769 O.3        1 MOL1        -0.5519
      32    H15     15.225518   18.130204   25.050801 H          1 MOL1         0.3769
      33    C10     15.066042   17.260551   21.904381 C.3        1 MOL1         0.1018
      34    H16     14.081702   16.807766   22.079400 H          1 MOL1         0.0783
      35    C11     15.058839   18.070090   20.562732 C.3        1 MOL1         0.1043
      36    H17     16.101005   18.240343   20.267070 H          1 MOL1         0.0783
      37    O9      14.397495   19.351442   20.732523 O.3        1 MOL1        -0.3740
      38    C12     14.331828   17.381386   19.377759 C.3        1 MOL1         0.0138
      39    H18     14.981015   16.617451   18.937195 H          1 MOL1         0.0794
      40    H19     14.162474   18.131319   18.593112 H          1 MOL1         0.0794
      41    O10     13.085127   16.796104   19.772520 O.3        1 MOL1        -0.5486
      42    H20     12.640918   16.465346   18.961347 H          1 MOL1         0.3769
      43    C13     18.728569   23.632251   20.371860 C.3        1 MOL1         0.2972
      44    H21     19.087416   24.538620   19.867109 H          1 MOL1         0.0751
      45    O11     19.783344   22.973487   21.095743 O.3        1 MOL1        -0.3740
      46    C14     17.601086   23.967861   21.386769 C.3        1 MOL1         0.1003
      47    H22     16.788130   24.445043   20.824196 H          1 MOL1         0.0783
      48    O12     18.062948   24.875182   22.400477 O.3        1 MOL1        -0.5519
      49    H23     18.911836   24.513328   22.761248 H          1 MOL1         0.3769
      50    C15     17.038154   22.676281   22.033644 C.3        1 MOL1         0.1053
      51    H24     17.828062   22.220875   22.646553 H          1 MOL1         0.0783
      52    O13     15.913257   23.002984   22.857284 O.3        1 MOL1        -0.5519
      53    H25     16.185272   23.809084   23.351320 H          1 MOL1         0.3769
      54    C16     16.630401   21.665282   20.933343 C.3        1 MOL1         0.1018
      55    H26     15.776081   22.075166   20.377812 H          1 MOL1         0.0783
      56    C17     17.788519   21.414843   19.935049 C.3        1 MOL1         0.1043
      57    H27     18.624289   20.950931   20.473440 H          1 MOL1         0.0783
      58    O14     18.209552   22.693327   19.400691 O.3        1 MOL1        -0.3740
      59    C18     17.421018   20.468087   18.762905 C.3        1 MOL1         0.0138
      60    H28     17.602634   19.434919   19.085200 H          1 MOL1         0.0794
      61    H29     18.102994   20.664476   17.924917 H          1 MOL1         0.0794
      62    O15     16.059339   20.602549   18.334587 O.3        1 MOL1        -0.5486
      63    H30     15.485289   20.304206   19.076921 H          1 MOL1         0.3769
      64    C19     23.783393   22.951685   21.860010 C.3        1 MOL1         0.2972
      65    H31     24.856565   23.110155   22.026024 H          1 MOL1         0.0751
      66    O16     23.422204   21.559767   21.931118 O.3        1 MOL1        -0.3740
      67    C20     22.961722   23.698253   22.935330 C.3        1 MOL1         0.1003
      68    H32     23.144084   24.773923   22.813491 H          1 MOL1         0.0783
      69    O17     23.367432   23.287326   24.251025 O.3        1 MOL1        -0.5519
      70    H33     23.636039   22.336646   24.187735 H          1 MOL1         0.3769
      71    C21     21.453183   23.434476   22.728477 C.3        1 MOL1         0.1053
      72    H34     21.270029   22.376276   22.950745 H          1 MOL1         0.0783
      73    O18     20.693392   24.245783   23.629697 O.3        1 MOL1        -0.5519
      74    H35     21.140539   24.145222   24.499715 H          1 MOL1         0.3769
      75    C22     21.008629   23.709018   21.268594 C.3        1 MOL1         0.1018
      76    H36     20.861903   24.790871   21.150507 H          1 MOL1         0.0783
      77    C23     22.005827   23.177887   20.195113 C.3        1 MOL1         0.1043
      78    H37     21.869236   22.090909   20.126350 H          1 MOL1         0.0783
      79    O19     23.380635   23.453838   20.570548 O.3        1 MOL1        -0.3740
      80    C24     21.761094   23.753386   18.779630 C.3        1 MOL1         0.0138
      81    H38     20.833244   23.320729   18.381781 H          1 MOL1         0.0794
      82    H39     22.579232   23.428167   18.123045 H          1 MOL1         0.0794
      83    O20     21.667152   25.183127   18.786532 O.3        1 MOL1        -0.5486
      84    H40     21.593251   25.481686   17.853751 H          1 MOL1         0.3769
      85    C25     24.994053   17.721150   21.774425 C.3        1 MOL1         0.2972
      86    H41     25.665206   16.855304   21.707206 H          1 MOL1         0.0751
      87    O21     23.610043   17.320954   21.812536 O.3        1 MOL1        -0.3740
      88    C26     25.296956   18.514303   23.069997 C.3        1 MOL1         0.1003
      89    H42     26.344450   18.839268   23.022786 H          1 MOL1         0.0783
      90    O22     25.109846   17.681866   24.225821 O.3        1 MOL1        -0.5519
      91    H43     24.473954   16.968671   23.967888 H          1 MOL1         0.3769
      92    C27     24.408293   19.775696   23.162082 C.3        1 MOL1         0.1053
      93    H44     23.367690   19.451289   23.294162 H          1 MOL1         0.0783
      94    O23     24.811526   20.570906   24.282037 O.3        1 MOL1        -0.5519
      95    H45     24.915650   19.931223   25.021569 H          1 MOL1         0.3769
      96    C28     24.494689   20.608840   21.861467 C.3        1 MOL1         0.1018
      97    H46     25.480309   21.090297   21.815239 H          1 MOL1         0.0783
      98    C29     24.275670   19.736485   20.594386 C.3        1 MOL1         0.1043
      99    H47     23.237857   19.380643   20.606875 H          1 MOL1         0.0783
     100    O24     25.171552   18.596681   20.638482 O.3        1 MOL1        -0.3740
     101    C30     24.475415   20.478059   19.247125 C.3        1 MOL1         0.0138
     102    H48     23.521275   20.935702   18.956810 H          1 MOL1         0.0794
     103    H49     24.721297   19.738452   18.473371 H          1 MOL1         0.0794
     104    O25     25.488803   21.487900   19.301414 O.3        1 MOL1        -0.5486
     105    H50     25.065791   22.294074   19.675534 H          1 MOL1         0.3769
     106    C31     21.214025   14.019252   20.884868 C.3        1 MOL1         0.2972
     107    H51     20.874245   13.034989   20.537757 H          1 MOL1         0.0751
     108    O26     20.114088   14.834490   21.329209 O.3        1 MOL1        -0.3740
     109    C32     22.188190   13.844036   22.077380 C.3        1 MOL1         0.1003
     110    H52     23.033631   13.237572   21.727372 H          1 MOL1         0.0783
     111    O27     21.538611   13.166166   23.164422 O.3        1 MOL1        -0.5519
     112    H53     20.568898   13.338315   23.070602 H          1 MOL1         0.3769
     113    C33     22.741541   15.210950   22.542857 C.3        1 MOL1         0.1053
     114    H54     21.910323   15.795842   22.960936 H          1 MOL1         0.0783
     115    O28     23.746367   15.008215   23.542122 O.3        1 MOL1        -0.5519
     116    H55     23.357447   14.350493   24.161191 H          1 MOL1         0.3769
     117    C34     23.335109   15.988573   21.345035 C.3        1 MOL1         0.1018
     118    H56     24.243540   15.471495   21.008745 H          1 MOL1         0.0783
     119    C35     22.331758   16.072769   20.162505 C.3        1 MOL1         0.1043
     120    H57     21.472047   16.668579   20.489799 H          1 MOL1         0.0783
     121    O29     21.888699   14.732989   19.823969 O.3        1 MOL1        -0.3740
     122    C36     22.885709   16.749744   18.882496 C.3        1 MOL1         0.0138
     123    H58     22.729282   17.832423   18.965803 H          1 MOL1         0.0794
     124    H59     22.294175   16.408843   18.022253 H          1 MOL1         0.0794
     125    O30     24.274937   16.484108   18.659514 O.3        1 MOL1        -0.5486
     126    H60     24.780280   17.087925   19.251796 H          1 MOL1         0.3769
     127    C1      20.338261   19.691416   22.531021 C.3        1 MOL1        -0.1693
     128    H1      19.847160   20.660072   22.684350 H          1 MOL1         0.0829
     129    H2      21.202857   19.832990   21.873595 H          1 MOL1         0.0829
     130    C2      19.366158   18.530035   22.153026 C.3        1 MOL1        -0.1768
     131    H3      19.858660   17.653291   21.720506 H          1 MOL1         0.0829
     132    H4      18.500964   18.796198   21.538877 H          1 MOL1         0.0829
     133    C3      19.105048   18.421865   23.684270 C.3        1 MOL1         0.1211
     134    H5      18.384617   19.156159   24.070399 H          1 MOL1         0.0786
     135    C4      20.589907   18.870071   23.839337 C.3        1 MOL1        -0.1768
     136    H6      21.322993   18.059693   23.743790 H          1 MOL1         0.0829
     137    H7      20.821954   19.451794   24.737731 H          1 MOL1         0.0829
     138    O1      18.794130   17.127362   24.146319 O.3        1 MOL1        -0.5515
     139    H8      17.851095   16.958631   23.939899 H          1 MOL1         0.3773
@<TRIPOS>BOND
    1     1     2    1
    2     1     3    1
    3     1     4    1
    4     4     5    1
    5     4     6    1
    6     6     7    1
    7     4     8    1
    8     8     9    1
    9     8    10    1
   10    10    11    1
   11     8    12    1
   12    12    13    1
   13    12    14    1
   14    14    15    1
   15     1    16    1
   16    14    16    1
   17    14    17    1
   18    17    18    1
   19    17    19    1
   20    17    20    1
   21    20    21    1
   22    22    23    1
   23    22    24    1
   24    22    25    1
   25    25    26    1
   26    25    27    1
   27    27    28    1
   28    25    29    1
   29    29    30    1
   30    29    31    1
   31    31    32    1
   32     3    33    1
   33    29    33    1
   34    33    34    1
   35    33    35    1
   36    35    36    1
   37    22    37    1
   38    35    37    1
   39    35    38    1
   40    38    39    1
   41    38    40    1
   42    38    41    1
   43    41    42    1
   44    43    44    1
   45    43    45    1
   46    43    46    1
   47    46    47    1
   48    46    48    1
   49    48    49    1
   50    46    50    1
   51    50    51    1
   52    50    52    1
   53    52    53    1
   54    24    54    1
   55    50    54    1
   56    54    55    1
   57    54    56    1
   58    56    57    1
   59    43    58    1
   60    56    58    1
   61    56    59    1
   62    59    60    1
   63    59    61    1
   64    59    62    1
   65    62    63    1
   66    64    65    1
   67    64    66    1
   68    64    67    1
   69    67    68    1
   70    67    69    1
   71    69    70    1
   72    67    71    1
   73    71    72    1
   74    71    73    1
   75    73    74    1
   76    45    75    1
   77    71    75    1
   78    75    76    1
   79    75    77    1
   80    77    78    1
   81    64    79    1
   82    77    79    1
   83    77    80    1
   84    80    81    1
   85    80    82    1
   86    80    83    1
   87    83    84    1
   88    85    86    1
   89    85    87    1
   90    85    88    1
   91    88    89    1
   92    88    90    1
   93    90    91    1
   94    88    92    1
   95    92    93    1
   96    92    94    1
   97    94    95    1
   98    66    96    1
   99    92    96    1
  100    96    97    1
  101    96    98    1
  102    98    99    1
  103    85   100    1
  104    98   100    1
  105    98   101    1
  106   101   102    1
  107   101   103    1
  108   101   104    1
  109   104   105    1
  110   106   107    1
  111    12   108    1
  112   106   108    1
  113   106   109    1
  114   109   110    1
  115   109   111    1
  116   111   112    1
  117   109   113    1
  118   113   114    1
  119   113   115    1
  120   115   116    1
  121    87   117    1
  122   113   117    1
  123   117   118    1
  124   117   119    1
  125   119   120    1
  126   106   121    1
  127   119   121    1
  128   119   122    1
  129   122   123    1
  130   122   124    1
  131   122   125    1
  132   125   126    1
  133   127   128    1
  134   127   129    1
  135   127   130    1
  136   130   131    1
  137   130   132    1
  138   130   133    1
  139   133   134    1
  140   127   135    1
  141   133   135    1
  142   135   136    1
  143   135   137    1
  144   133   138    1
  145   138   139    1
@<TRIPOS>SUBSTRUCTURE
       1 MOL1            1 RESIDUE      1      MOL     
       2 MOL1          139 RESIDUE      1      MOL     
@<SCITEGIC>MOL_PROPERTY
feprocess Rank
SciTegic.value.IntegerValue
136

@<SCITEGIC>MOL_PROPERTY
Conf_Id
SciTegic.value.IntegerValue
767

@<SCITEGIC>MOL_PROPERTY
Probability
SciTegic.value.DoubleValue
0.01

@<SCITEGIC>MOL_PROPERTY
G
SciTegic.value.DoubleValue
549.598

@<SCITEGIC>MOL_PROPERTY
E
SciTegic.value.DoubleValue
373.206

@<SCITEGIC>MOL_PROPERTY
-TS
SciTegic.value.DoubleValue
176.391

@<SCITEGIC>MOL_PROPERTY
U+W
SciTegic.value.DoubleValue
250.695

@<SCITEGIC>MOL_PROPERTY
U
SciTegic.value.DoubleValue
287.124

@<SCITEGIC>MOL_PROPERTY
W
SciTegic.value.DoubleValue
-36.429

@<SCITEGIC>MOL_PROPERTY
W(PB)
SciTegic.value.DoubleValue
-42.323

@<SCITEGIC>MOL_PROPERTY
W(SA)
SciTegic.value.DoubleValue
5.894

@<SCITEGIC>MOL_PROPERTY
Valence
SciTegic.value.DoubleValue
154.091

@<SCITEGIC>MOL_PROPERTY
Coulomb
SciTegic.value.DoubleValue
155.045

@<SCITEGIC>MOL_PROPERTY
VdW
SciTegic.value.DoubleValue
-22.012

@<SCITEGIC>MOL_PROPERTY
VdW6
SciTegic.value.DoubleValue
-166.797

@<SCITEGIC>MOL_PROPERTY
VdW12
SciTegic.value.DoubleValue
144.785

@<SCITEGIC>MOL_PROPERTY
Bond
SciTegic.value.DoubleValue
4.552

@<SCITEGIC>MOL_PROPERTY
Angle
SciTegic.value.DoubleValue
12.541

@<SCITEGIC>MOL_PROPERTY
Pdih
SciTegic.value.DoubleValue
136.999

@<SCITEGIC>MOL_PROPERTY
Idih
SciTegic.value.DoubleValue
0.000

@<SCITEGIC>MOL_PROPERTY
Tether
SciTegic.value.DoubleValue
0.000

@<TRIPOS>MOLECULE
CD_guest-s16_fast_vm2_rndm.mol2 : feprocess host+ligand conformer 137
         139         145           2
SMALL
USER_CHARGES
 
@<TRIPOS>ATOM
       1    C1      16.161412   15.139362   21.275938 C.3        1 MOL1         0.2972
       2    H1      15.101009   14.930714   21.084758 H          1 MOL1         0.0751
       3    O1      16.378815   16.531742   21.579997 O.3        1 MOL1        -0.3740
       4    C2      16.643333   14.314787   22.495561 C.3        1 MOL1         0.1003
       5    H2      16.483874   13.253161   22.266184 H          1 MOL1         0.0783
       6    O2      15.884485   14.671626   23.661821 O.3        1 MOL1        -0.5519
       7    H3      15.652663   15.626965   23.564859 H          1 MOL1         0.3769
       8    C3      18.154687   14.532031   22.746397 C.3        1 MOL1         0.1053
       9    H4      18.290775   15.572214   23.066418 H          1 MOL1         0.0783
      10    O3      18.608552   13.643486   23.772462 O.3        1 MOL1        -0.5519
      11    H5      17.958504   13.741769   24.502882 H          1 MOL1         0.3769
      12    C4      18.974303   14.299100   21.453603 C.3        1 MOL1         0.1018
      13    H6      18.943515   13.225102   21.227332 H          1 MOL1         0.0783
      14    C5      18.383127   15.089573   20.251790 C.3        1 MOL1         0.1043
      15    H7      18.500407   16.159228   20.456759 H          1 MOL1         0.0783
      16    O4      16.969683   14.787400   20.131456 O.3        1 MOL1        -0.3740
      17    C6      19.057131   14.814490   18.883530 C.3        1 MOL1         0.0138
      18    H8      19.935563   15.465247   18.790773 H          1 MOL1         0.0794
      19    H9      18.360820   15.104340   18.085445 H          1 MOL1         0.0794
      20    O5      19.451740   13.449452   18.713439 O.3        1 MOL1        -0.5486
      21    H10     20.378693   13.383859   19.037997 H          1 MOL1         0.3769
      22    C7      14.827048   20.335295   20.796230 C.3        1 MOL1         0.2972
      23    H11     14.206528   21.172811   20.452076 H          1 MOL1         0.0751
      24    O6      16.083533   20.788050   21.333033 O.3        1 MOL1        -0.3740
      25    C8      14.101536   19.525343   21.902097 C.3        1 MOL1         0.1003
      26    H12     13.155590   19.164437   21.477938 H          1 MOL1         0.0783
      27    O7      13.824071   20.351502   23.044970 O.3        1 MOL1        -0.5519
      28    H13     14.664085   20.820936   23.281089 H          1 MOL1         0.3769
      29    C9      14.939229   18.291971   22.323538 C.3        1 MOL1         0.1053
      30    H14     15.838467   18.656024   22.837546 H          1 MOL1         0.0783
      31    O8      14.174080   17.473212   23.214539 O.3        1 MOL1        -0.5519
      32    H15     13.782231   18.097195   23.865088 H          1 MOL1         0.3769
      33    C10     15.385645   17.457801   21.095516 C.3        1 MOL1         0.1018
      34    H16     14.504564   16.943291   20.690067 H          1 MOL1         0.0783
      35    C11     16.018919   18.352489   19.991816 C.3        1 MOL1         0.1043
      36    H17     16.963214   18.756422   20.377105 H          1 MOL1         0.0783
      37    O9      15.112008   19.442638   19.698435 O.3        1 MOL1        -0.3740
      38    C12     16.347573   17.637499   18.656634 C.3        1 MOL1         0.0138
      39    H18     17.362075   17.227546   18.720962 H          1 MOL1         0.0794
      40    H19     16.362753   18.388042   17.855084 H          1 MOL1         0.0794
      41    O10     15.424911   16.592867   18.329859 O.3        1 MOL1        -0.5486
      42    H20     15.725708   15.790198   18.815221 H          1 MOL1         0.3769
      43    C13     18.456328   24.112123   21.771376 C.3        1 MOL1         0.2972
      44    H21     18.902741   25.108113   21.888922 H          1 MOL1         0.0751
      45    O11     19.461159   23.095024   21.600928 O.3        1 MOL1        -0.3740
      46    C14     17.622557   23.757118   23.025256 C.3        1 MOL1         0.1003
      47    H22     16.811360   24.492336   23.106204 H          1 MOL1         0.0783
      48    O12     18.441648   23.817170   24.204098 O.3        1 MOL1        -0.5519
      49    H23     19.380514   23.745470   23.903275 H          1 MOL1         0.3769
      50    C15     16.989547   22.354751   22.877029 C.3        1 MOL1         0.1053
      51    H24     17.802156   21.618578   22.891367 H          1 MOL1         0.0783
      52    O13     16.100190   22.107485   23.971329 O.3        1 MOL1        -0.5519
      53    H25     16.603031   22.379147   24.771315 H          1 MOL1         0.3769
      54    C16     16.225600   22.206044   21.538547 C.3        1 MOL1         0.1018
      55    H26     15.254121   22.708754   21.635992 H          1 MOL1         0.0783
      56    C17     17.008458   22.772969   20.317940 C.3        1 MOL1         0.1043
      57    H27     17.817429   22.068136   20.092177 H          1 MOL1         0.0783
      58    O14     17.584284   24.070182   20.623467 O.3        1 MOL1        -0.3740
      59    C18     16.153804   22.911258   19.035285 C.3        1 MOL1         0.0138
      60    H28     15.942892   21.906729   18.644638 H          1 MOL1         0.0794
      61    H29     16.745907   23.437370   18.274332 H          1 MOL1         0.0794
      62    O15     14.924964   23.606727   19.278830 O.3        1 MOL1        -0.5486
      63    H30     14.474887   23.728371   18.414401 H          1 MOL1         0.3769
      64    C19     23.506486   22.634864   20.702831 C.3        1 MOL1         0.2972
      65    H31     24.534301   22.776856   20.344804 H          1 MOL1         0.0751
      66    O16     23.273496   21.270239   21.110694 O.3        1 MOL1        -0.3740
      67    C20     23.188696   23.587782   21.889216 C.3        1 MOL1         0.1003
      68    H32     23.298997   24.614152   21.515644 H          1 MOL1         0.0783
      69    O17     24.091977   23.397825   22.988524 O.3        1 MOL1        -0.5519
      70    H33     23.999213   22.457234   23.285414 H          1 MOL1         0.3769
      71    C21     21.722106   23.407784   22.352865 C.3        1 MOL1         0.1053
      72    H34     21.615768   22.396444   22.768738 H          1 MOL1         0.0783
      73    O18     21.405870   24.378871   23.355950 O.3        1 MOL1        -0.5519
      74    H35     22.182628   24.388433   23.958838 H          1 MOL1         0.3769
      75    C22     20.750068   23.549986   21.155587 C.3        1 MOL1         0.1018
      76    H36     20.730031   24.602384   20.842922 H          1 MOL1         0.0783
      77    C23     21.177245   22.669930   19.948283 C.3        1 MOL1         0.1043
      78    H37     21.064961   21.615049   20.228853 H          1 MOL1         0.0783
      79    O19     22.568982   22.937103   19.644166 O.3        1 MOL1        -0.3740
      80    C24     20.335154   22.881592   18.662371 C.3        1 MOL1         0.0138
      81    H38     19.500313   22.170121   18.673160 H          1 MOL1         0.0794
      82    H39     20.955010   22.625493   17.792778 H          1 MOL1         0.0794
      83    O20     19.826115   24.214439   18.526916 O.3        1 MOL1        -0.5486
      84    H40     19.102892   24.318942   19.188486 H          1 MOL1         0.3769
      85    C25     25.063172   17.652555   21.922566 C.3        1 MOL1         0.2972
      86    H41     25.723156   16.807091   22.155820 H          1 MOL1         0.0751
      87    O21     23.762678   17.209009   21.482281 O.3        1 MOL1        -0.3740
      88    C26     24.904128   18.574466   23.159910 C.3        1 MOL1         0.1003
      89    H42     25.899914   18.971532   23.396713 H          1 MOL1         0.0783
      90    O22     24.401462   17.862831   24.301441 O.3        1 MOL1        -0.5519
      91    H43     24.325854   16.912087   24.044082 H          1 MOL1         0.3769
      92    C27     23.978849   19.768297   22.836576 C.3        1 MOL1         0.1053
      93    H44     22.970327   19.372421   22.676531 H          1 MOL1         0.0783
      94    O23     23.965140   20.666078   23.950210 O.3        1 MOL1        -0.5519
      95    H45     23.864212   20.080890   24.735037 H          1 MOL1         0.3769
      96    C28     24.418890   20.512007   21.549862 C.3        1 MOL1         0.1018
      97    H46     25.271968   21.158378   21.795455 H          1 MOL1         0.0783
      98    C29     24.797156   19.546491   20.387717 C.3        1 MOL1         0.1043
      99    H47     23.867022   19.129648   19.980079 H          1 MOL1         0.0783
     100    O24     25.629437   18.458363   20.868109 O.3        1 MOL1        -0.3740
     101    C30     25.530996   20.244416   19.217566 C.3        1 MOL1         0.0138
     102    H48     24.811375   20.880822   18.684986 H          1 MOL1         0.0794
     103    H49     25.871838   19.476268   18.510460 H          1 MOL1         0.0794
     104    O25     26.638780   21.034701   19.667083 O.3        1 MOL1        -0.5486
     105    H50     27.104155   21.375225   18.871895 H          1 MOL1         0.3769
     106    C31     21.369195   13.826650   21.364848 C.3        1 MOL1         0.2972
     107    H51     20.975408   12.811165   21.231170 H          1 MOL1         0.0751
     108    O26     20.320195   14.755975   21.721417 O.3        1 MOL1        -0.3740
     109    C32     22.430530   13.813340   22.491372 C.3        1 MOL1         0.1003
     110    H52     23.203558   13.091140   22.197901 H          1 MOL1         0.0783
     111    O27     21.838499   13.391451   23.730201 O.3        1 MOL1        -0.5519
     112    H53     20.920292   13.756865   23.751020 H          1 MOL1         0.3769
     113    C33     23.115272   15.190730   22.661798 C.3        1 MOL1         0.1053
     114    H54     22.388293   15.879030   23.102613 H          1 MOL1         0.0783
     115    O28     24.228471   15.042402   23.548594 O.3        1 MOL1        -0.5519
     116    H55     23.895836   14.470718   24.277709 H          1 MOL1         0.3769
     117    C34     23.577665   15.789690   21.306976 C.3        1 MOL1         0.1018
     118    H56     24.505186   15.296064   20.990249 H          1 MOL1         0.0783
     119    C35     22.509546   15.636170   20.189296 C.3        1 MOL1         0.1043
     120    H57     21.681608   16.316055   20.417338 H          1 MOL1         0.0783
     121    O29     22.004008   14.279935   20.152203 O.3        1 MOL1        -0.3740
     122    C36     23.026307   16.016484   18.779428 C.3        1 MOL1         0.0138
     123    H58     23.138189   17.107877   18.730727 H          1 MOL1         0.0794
     124    H59     22.264168   15.736279   18.040524 H          1 MOL1         0.0794
     125    O30     24.273069   15.388977   18.457396 O.3        1 MOL1        -0.5486
     126    H60     24.975102   15.848474   18.966218 H          1 MOL1         0.3769
     127    C1      19.518860   19.733320   21.854705 C.3        1 MOL1        -0.1693
     128    H1      20.060466   20.631358   22.173143 H          1 MOL1         0.0829
     129    H2      18.859371   19.995522   21.020536 H          1 MOL1         0.0829
     130    C2      18.871940   18.925440   23.025927 C.3        1 MOL1        -0.1768
     131    H3      18.495608   19.511015   23.871437 H          1 MOL1         0.0829
     132    H4      18.102606   18.207445   22.723923 H          1 MOL1         0.0829
     133    C3      20.290414   18.310866   23.206996 C.3        1 MOL1         0.1211
     134    H5      20.973574   18.945509   23.787324 H          1 MOL1         0.0786
     135    C4      20.419246   18.473370   21.660162 C.3        1 MOL1        -0.1768
     136    H6      19.957639   17.676424   21.070904 H          1 MOL1         0.0829
     137    H7      21.424314   18.659984   21.270376 H          1 MOL1         0.0829
     138    O1      20.312628   16.993020   23.695105 O.3        1 MOL1        -0.5515
     139    H8      20.157443   16.389747   22.938319 H          1 MOL1         0.3773
@<TRIPOS>BOND
    1     1     2    1
    2     1     3    1
    3     1     4    1
    4     4     5    1
    5     4     6    1
    6     6     7    1
    7     4     8    1
    8     8     9    1
    9     8    10    1
   10    10    11    1
   11     8    12    1
   12    12    13    1
   13    12    14    1
   14    14    15    1
   15     1    16    1
   16    14    16    1
   17    14    17    1
   18    17    18    1
   19    17    19    1
   20    17    20    1
   21    20    21    1
   22    22    23    1
   23    22    24    1
   24    22    25    1
   25    25    26    1
   26    25    27    1
   27    27    28    1
   28    25    29    1
   29    29    30    1
   30    29    31    1
   31    31    32    1
   32     3    33    1
   33    29    33    1
   34    33    34    1
   35    33    35    1
   36    35    36    1
   37    22    37    1
   38    35    37    1
   39    35    38    1
   40    38    39    1
   41    38    40    1
   42    38    41    1
   43    41    42    1
   44    43    44    1
   45    43    45    1
   46    43    46    1
   47    46    47    1
   48    46    48    1
   49    48    49    1
   50    46    50    1
   51    50    51    1
   52    50    52    1
   53    52    53    1
   54    24    54    1
   55    50    54    1
   56    54    55    1
   57    54    56    1
   58    56    57    1
   59    43    58    1
   60    56    58    1
   61    56    59    1
   62    59    60    1
   63    59    61    1
   64    59    62    1
   65    62    63    1
   66    64    65    1
   67    64    66    1
   68    64    67    1
   69    67    68    1
   70    67    69    1
   71    69    70    1
   72    67    71    1
   73    71    72    1
   74    71    73    1
   75    73    74    1
   76    45    75    1
   77    71    75    1
   78    75    76    1
   79    75    77    1
   80    77    78    1
   81    64    79    1
   82    77    79    1
   83    77    80    1
   84    80    81    1
   85    80    82    1
   86    80    83    1
   87    83    84    1
   88    85    86    1
   89    85    87    1
   90    85    88    1
   91    88    89    1
   92    88    90    1
   93    90    91    1
   94    88    92    1
   95    92    93    1
   96    92    94    1
   97    94    95    1
   98    66    96    1
   99    92    96    1
  100    96    97    1
  101    96    98    1
  102    98    99    1
  103    85   100    1
  104    98   100    1
  105    98   101    1
  106   101   102    1
  107   101   103    1
  108   101   104    1
  109   104   105    1
  110   106   107    1
  111    12   108    1
  112   106   108    1
  113   106   109    1
  114   109   110    1
  115   109   111    1
  116   111   112    1
  117   109   113    1
  118   113   114    1
  119   113   115    1
  120   115   116    1
  121    87   117    1
  122   113   117    1
  123   117   118    1
  124   117   119    1
  125   119   120    1
  126   106   121    1
  127   119   121    1
  128   119   122    1
  129   122   123    1
  130   122   124    1
  131   122   125    1
  132   125   126    1
  133   127   128    1
  134   127   129    1
  135   127   130    1
  136   130   131    1
  137   130   132    1
  138   130   133    1
  139   133   134    1
  140   127   135    1
  141   133   135    1
  142   135   136    1
  143   135   137    1
  144   133   138    1
  145   138   139    1
@<TRIPOS>SUBSTRUCTURE
       1 MOL1            1 RESIDUE      1      MOL     
       2 MOL1          139 RESIDUE      1      MOL     
@<SCITEGIC>MOL_PROPERTY
feprocess Rank
SciTegic.value.IntegerValue
137

@<SCITEGIC>MOL_PROPERTY
Conf_Id
SciTegic.value.IntegerValue
79

@<SCITEGIC>MOL_PROPERTY
Probability
SciTegic.value.DoubleValue
0.01

@<SCITEGIC>MOL_PROPERTY
G
SciTegic.value.DoubleValue
549.615

@<SCITEGIC>MOL_PROPERTY
E
SciTegic.value.DoubleValue
371.606

@<SCITEGIC>MOL_PROPERTY
-TS
SciTegic.value.DoubleValue
178.008

@<SCITEGIC>MOL_PROPERTY
U+W
SciTegic.value.DoubleValue
249.095

@<SCITEGIC>MOL_PROPERTY
U
SciTegic.value.DoubleValue
287.140

@<SCITEGIC>MOL_PROPERTY
W
SciTegic.value.DoubleValue
-38.045

@<SCITEGIC>MOL_PROPERTY
W(PB)
SciTegic.value.DoubleValue
-44.059

@<SCITEGIC>MOL_PROPERTY
W(SA)
SciTegic.value.DoubleValue
6.015

@<SCITEGIC>MOL_PROPERTY
Valence
SciTegic.value.DoubleValue
154.516

@<SCITEGIC>MOL_PROPERTY
Coulomb
SciTegic.value.DoubleValue
154.216

@<SCITEGIC>MOL_PROPERTY
VdW
SciTegic.value.DoubleValue
-21.592

@<SCITEGIC>MOL_PROPERTY
VdW6
SciTegic.value.DoubleValue
-168.892

@<SCITEGIC>MOL_PROPERTY
VdW12
SciTegic.value.DoubleValue
147.300

@<SCITEGIC>MOL_PROPERTY
Bond
SciTegic.value.DoubleValue
4.624

@<SCITEGIC>MOL_PROPERTY
Angle
SciTegic.value.DoubleValue
12.013

@<SCITEGIC>MOL_PROPERTY
Pdih
SciTegic.value.DoubleValue
137.879

@<SCITEGIC>MOL_PROPERTY
Idih
SciTegic.value.DoubleValue
0.000

@<SCITEGIC>MOL_PROPERTY
Tether
SciTegic.value.DoubleValue
0.000

@<TRIPOS>MOLECULE
CD_guest-s16_fast_vm2_rndm.mol2 : feprocess host+ligand conformer 138
         139         145           2
SMALL
USER_CHARGES
 
@<TRIPOS>ATOM
       1    C1      16.259891   15.336495   21.003811 C.3        1 MOL1         0.2972
       2    H1      15.218849   15.186825   20.689680 H          1 MOL1         0.0751
       3    O1      16.469305   16.659648   21.531792 O.3        1 MOL1        -0.3740
       4    C2      16.643130   14.322600   22.113561 C.3        1 MOL1         0.1003
       5    H2      16.452559   13.316047   21.719191 H          1 MOL1         0.0783
       6    O2      15.841707   14.532550   23.288607 O.3        1 MOL1        -0.5519
       7    H3      15.807025   15.508625   23.449962 H          1 MOL1         0.3769
       8    C3      18.148392   14.419320   22.468939 C.3        1 MOL1         0.1053
       9    H4      18.320160   15.384984   22.963120 H          1 MOL1         0.0783
      10    O3      18.501605   13.352429   23.356228 O.3        1 MOL1        -0.5519
      11    H5      17.797250   13.343893   24.041776 H          1 MOL1         0.3769
      12    C4      19.033398   14.363546   21.199309 C.3        1 MOL1         0.1018
      13    H6      18.976725   13.350448   20.779756 H          1 MOL1         0.0783
      14    C5      18.552331   15.393997   20.139702 C.3        1 MOL1         0.1043
      15    H7      18.683703   16.403215   20.550692 H          1 MOL1         0.0783
      16    O4      17.148829   15.155958   19.880833 O.3        1 MOL1        -0.3740
      17    C6      19.295986   15.355779   18.780948 C.3        1 MOL1         0.0138
      18    H8      20.179250   16.001566   18.847585 H          1 MOL1         0.0794
      19    H9      18.642555   15.794389   18.015042 H          1 MOL1         0.0794
      20    O5      19.690710   14.036762   18.389210 O.3        1 MOL1        -0.5486
      21    H10     20.553591   13.859748   18.829741 H          1 MOL1         0.3769
      22    C7      14.672739   20.376810   21.619865 C.3        1 MOL1         0.2972
      23    H11     13.995633   21.240327   21.646264 H          1 MOL1         0.0751
      24    O6      16.049667   20.782693   21.501357 O.3        1 MOL1        -0.3740
      25    C8      14.524284   19.554478   22.922545 C.3        1 MOL1         0.1003
      26    H12     13.491706   19.185119   22.971780 H          1 MOL1         0.0783
      27    O7      14.792155   20.381831   24.065525 O.3        1 MOL1        -0.5519
      28    H13     15.425416   21.079608   23.769047 H          1 MOL1         0.3769
      29    C9      15.473195   18.335261   22.900334 C.3        1 MOL1         0.1053
      30    H14     16.498543   18.718458   22.935558 H          1 MOL1         0.0783
      31    O8      15.235509   17.503147   24.040771 O.3        1 MOL1        -0.5519
      32    H15     15.218433   18.120292   24.805975 H          1 MOL1         0.3769
      33    C10     15.303166   17.504427   21.605412 C.3        1 MOL1         0.1018
      34    H16     14.378967   16.918284   21.696528 H          1 MOL1         0.0783
      35    C11     15.255628   18.383453   20.319463 C.3        1 MOL1         0.1043
      36    H17     16.272087   18.750823   20.130532 H          1 MOL1         0.0783
      37    O9      14.366844   19.516764   20.504024 O.3        1 MOL1        -0.3740
      38    C12     14.797345   17.624604   19.050584 C.3        1 MOL1         0.0138
      39    H18     15.603729   16.951828   18.731017 H          1 MOL1         0.0794
      40    H19     14.646443   18.353221   18.242691 H          1 MOL1         0.0794
      41    O10     13.596373   16.875610   19.274186 O.3        1 MOL1        -0.5486
      42    H20     13.323494   16.486689   18.414692 H          1 MOL1         0.3769
      43    C13     18.492504   23.945146   20.386987 C.3        1 MOL1         0.2972
      44    H21     18.924024   24.872378   19.988639 H          1 MOL1         0.0751
      45    O11     19.525736   23.016749   20.788516 O.3        1 MOL1        -0.3740
      46    C14     17.531555   24.237327   21.574334 C.3        1 MOL1         0.1003
      47    H22     16.707152   24.842345   21.174873 H          1 MOL1         0.0783
      48    O12     18.168279   24.974465   22.627753 O.3        1 MOL1        -0.5519
      49    H23     18.852134   24.375686   23.020343 H          1 MOL1         0.3769
      50    C15     16.928863   22.919058   22.116317 C.3        1 MOL1         0.1053
      51    H24     17.741795   22.320137   22.548516 H          1 MOL1         0.0783
      52    O13     15.954293   23.208091   23.124383 O.3        1 MOL1        -0.5519
      53    H25     16.367587   23.893080   23.695419 H          1 MOL1         0.3769
      54    C16     16.274259   22.102540   20.975094 C.3        1 MOL1         0.1018
      55    H26     15.337831   22.600347   20.691230 H          1 MOL1         0.0783
      56    C17     17.188748   21.979682   19.721107 C.3        1 MOL1         0.1043
      57    H27     18.032701   21.325293   19.967260 H          1 MOL1         0.0783
      58    O14     17.699290   23.291326   19.368986 O.3        1 MOL1        -0.3740
      59    C18     16.504802   21.356555   18.475468 C.3        1 MOL1         0.0138
      60    H28     16.665975   20.271593   18.497393 H          1 MOL1         0.0794
      61    H29     17.009947   21.731954   17.575505 H          1 MOL1         0.0794
      62    O15     15.100157   21.626993   18.398712 O.3        1 MOL1        -0.5486
      63    H30     14.656310   21.024093   19.039674 H          1 MOL1         0.3769
      64    C19     23.456211   22.631704   22.051474 C.3        1 MOL1         0.2972
      65    H31     24.479070   22.787086   22.417966 H          1 MOL1         0.0751
      66    O16     23.274495   21.295013   21.542281 O.3        1 MOL1        -0.3740
      67    C20     22.431333   22.898112   23.185792 C.3        1 MOL1         0.1003
      68    H32     22.569441   23.939684   23.504153 H          1 MOL1         0.0783
      69    O17     22.636543   22.031647   24.313119 O.3        1 MOL1        -0.5519
      70    H33     23.526738   21.617311   24.204968 H          1 MOL1         0.3769
      71    C21     20.982061   22.741449   22.675954 C.3        1 MOL1         0.1053
      72    H34     20.824192   21.683208   22.441200 H          1 MOL1         0.0783
      73    O18     20.086286   23.140476   23.717164 O.3        1 MOL1        -0.5519
      74    H35     20.439888   22.702903   24.524654 H          1 MOL1         0.3769
      75    C22     20.723411   23.559442   21.385366 C.3        1 MOL1         0.1018
      76    H36     20.611212   24.618518   21.651649 H          1 MOL1         0.0783
      77    C23     21.867331   23.396051   20.343774 C.3        1 MOL1         0.1043
      78    H37     21.796621   22.386402   19.918403 H          1 MOL1         0.0783
      79    O19     23.163191   23.552580   20.979067 O.3        1 MOL1        -0.3740
      80    C24     21.774224   24.395303   19.165816 C.3        1 MOL1         0.0138
      81    H38     20.920119   24.111770   18.536055 H          1 MOL1         0.0794
      82    H39     22.679208   24.297503   18.551294 H          1 MOL1         0.0794
      83    O20     21.618992   25.747937   19.613342 O.3        1 MOL1        -0.5486
      84    H40     21.648704   26.329001   18.821982 H          1 MOL1         0.3769
      85    C25     25.196680   17.604390   21.549543 C.3        1 MOL1         0.2972
      86    H41     25.920074   16.782845   21.470562 H          1 MOL1         0.0751
      87    O21     23.864395   17.116574   21.798542 O.3        1 MOL1        -0.3740
      88    C26     25.581383   18.525926   22.730382 C.3        1 MOL1         0.1003
      89    H42     26.587737   18.916131   22.529639 H          1 MOL1         0.0783
      90    O22     25.596905   17.779717   23.957902 O.3        1 MOL1        -0.5519
      91    H43     24.915378   17.069577   23.866862 H          1 MOL1         0.3769
      92    C27     24.614962   19.729991   22.844023 C.3        1 MOL1         0.1053
      93    H44     23.631179   19.352150   23.154568 H          1 MOL1         0.0783
      94    O23     25.128630   20.627353   23.833976 O.3        1 MOL1        -0.5519
      95    H45     25.436762   20.044170   24.565028 H          1 MOL1         0.3769
      96    C28     24.446562   20.455627   21.481211 C.3        1 MOL1         0.1018
      97    H46     25.350320   21.041704   21.270950 H          1 MOL1         0.0783
      98    C29     24.202453   19.461030   20.312335 C.3        1 MOL1         0.1043
      99    H47     23.203649   19.027369   20.440377 H          1 MOL1         0.0783
     100    O24     25.183491   18.394274   20.341771 O.3        1 MOL1        -0.3740
     101    C30     24.227676   20.126572   18.913692 C.3        1 MOL1         0.0138
     102    H48     23.302722   20.704656   18.785602 H          1 MOL1         0.0794
     103    H49     24.224312   19.337338   18.150357 H          1 MOL1         0.0794
     104    O25     25.360390   20.983289   18.727268 O.3        1 MOL1        -0.5486
     105    H50     25.201266   21.798995   19.249418 H          1 MOL1         0.3769
     106    C31     21.419556   13.792742   21.230534 C.3        1 MOL1         0.2972
     107    H51     21.025665   12.796015   20.994245 H          1 MOL1         0.0751
     108    O26     20.368882   14.697727   21.624525 O.3        1 MOL1        -0.3740
     109    C32     22.417335   13.694053   22.410895 C.3        1 MOL1         0.1003
     110    H52     23.224376   13.013415   22.110064 H          1 MOL1         0.0783
     111    O27     21.755846   13.168786   23.572951 O.3        1 MOL1        -0.5519
     112    H53     20.820515   13.486440   23.533598 H          1 MOL1         0.3769
     113    C33     23.043166   15.074144   22.724548 C.3        1 MOL1         0.1053
     114    H54     22.250977   15.717209   23.127156 H          1 MOL1         0.0783
     115    O28     24.080900   14.925389   23.699395 O.3        1 MOL1        -0.5519
     116    H55     23.696276   14.349503   24.397065 H          1 MOL1         0.3769
     117    C34     23.611274   15.742598   21.448330 C.3        1 MOL1         0.1018
     118    H56     24.527132   15.211386   21.157813 H          1 MOL1         0.0783
     119    C35     22.594550   15.710961   20.273022 C.3        1 MOL1         0.1043
     120    H57     21.753659   16.361238   20.540901 H          1 MOL1         0.0783
     121    O29     22.109030   14.356358   20.093856 O.3        1 MOL1        -0.3740
     122    C36     23.139514   16.217597   18.912655 C.3        1 MOL1         0.0138
     123    H58     22.983383   17.301719   18.856683 H          1 MOL1         0.0794
     124    H59     22.541756   15.769973   18.107500 H          1 MOL1         0.0794
     125    O30     24.525668   15.923093   18.711832 O.3        1 MOL1        -0.5486
     126    H60     25.033115   16.645278   19.148863 H          1 MOL1         0.3769
     127    C1      20.531156   18.896729   21.487333 C.3        1 MOL1        -0.1693
     128    H1      21.246497   19.723409   21.454480 H          1 MOL1         0.0829
     129    H2      20.571236   18.361507   20.532705 H          1 MOL1         0.0829
     130    C2      19.107088   19.294773   21.983424 C.3        1 MOL1        -0.1768
     131    H3      18.318787   18.602168   21.674163 H          1 MOL1         0.0829
     132    H4      18.789175   20.316619   21.764684 H          1 MOL1         0.0829
     133    C3      19.661019   19.075134   23.422067 C.3        1 MOL1         0.1211
     134    H5      20.187042   19.945305   23.836657 H          1 MOL1         0.0786
     135    C4      20.606635   18.020516   22.779664 C.3        1 MOL1        -0.1768
     136    H6      20.168738   17.022533   22.685773 H          1 MOL1         0.0829
     137    H7      21.593944   17.933261   23.244245 H          1 MOL1         0.0829
     138    O1      18.735743   18.567018   24.353422 O.3        1 MOL1        -0.5515
     139    H8      18.260521   17.831884   23.919190 H          1 MOL1         0.3773
@<TRIPOS>BOND
    1     1     2    1
    2     1     3    1
    3     1     4    1
    4     4     5    1
    5     4     6    1
    6     6     7    1
    7     4     8    1
    8     8     9    1
    9     8    10    1
   10    10    11    1
   11     8    12    1
   12    12    13    1
   13    12    14    1
   14    14    15    1
   15     1    16    1
   16    14    16    1
   17    14    17    1
   18    17    18    1
   19    17    19    1
   20    17    20    1
   21    20    21    1
   22    22    23    1
   23    22    24    1
   24    22    25    1
   25    25    26    1
   26    25    27    1
   27    27    28    1
   28    25    29    1
   29    29    30    1
   30    29    31    1
   31    31    32    1
   32     3    33    1
   33    29    33    1
   34    33    34    1
   35    33    35    1
   36    35    36    1
   37    22    37    1
   38    35    37    1
   39    35    38    1
   40    38    39    1
   41    38    40    1
   42    38    41    1
   43    41    42    1
   44    43    44    1
   45    43    45    1
   46    43    46    1
   47    46    47    1
   48    46    48    1
   49    48    49    1
   50    46    50    1
   51    50    51    1
   52    50    52    1
   53    52    53    1
   54    24    54    1
   55    50    54    1
   56    54    55    1
   57    54    56    1
   58    56    57    1
   59    43    58    1
   60    56    58    1
   61    56    59    1
   62    59    60    1
   63    59    61    1
   64    59    62    1
   65    62    63    1
   66    64    65    1
   67    64    66    1
   68    64    67    1
   69    67    68    1
   70    67    69    1
   71    69    70    1
   72    67    71    1
   73    71    72    1
   74    71    73    1
   75    73    74    1
   76    45    75    1
   77    71    75    1
   78    75    76    1
   79    75    77    1
   80    77    78    1
   81    64    79    1
   82    77    79    1
   83    77    80    1
   84    80    81    1
   85    80    82    1
   86    80    83    1
   87    83    84    1
   88    85    86    1
   89    85    87    1
   90    85    88    1
   91    88    89    1
   92    88    90    1
   93    90    91    1
   94    88    92    1
   95    92    93    1
   96    92    94    1
   97    94    95    1
   98    66    96    1
   99    92    96    1
  100    96    97    1
  101    96    98    1
  102    98    99    1
  103    85   100    1
  104    98   100    1
  105    98   101    1
  106   101   102    1
  107   101   103    1
  108   101   104    1
  109   104   105    1
  110   106   107    1
  111    12   108    1
  112   106   108    1
  113   106   109    1
  114   109   110    1
  115   109   111    1
  116   111   112    1
  117   109   113    1
  118   113   114    1
  119   113   115    1
  120   115   116    1
  121    87   117    1
  122   113   117    1
  123   117   118    1
  124   117   119    1
  125   119   120    1
  126   106   121    1
  127   119   121    1
  128   119   122    1
  129   122   123    1
  130   122   124    1
  131   122   125    1
  132   125   126    1
  133   127   128    1
  134   127   129    1
  135   127   130    1
  136   130   131    1
  137   130   132    1
  138   130   133    1
  139   133   134    1
  140   127   135    1
  141   133   135    1
  142   135   136    1
  143   135   137    1
  144   133   138    1
  145   138   139    1
@<TRIPOS>SUBSTRUCTURE
       1 MOL1            1 RESIDUE      1      MOL     
       2 MOL1          139 RESIDUE      1      MOL     
@<SCITEGIC>MOL_PROPERTY
feprocess Rank
SciTegic.value.IntegerValue
138

@<SCITEGIC>MOL_PROPERTY
Conf_Id
SciTegic.value.IntegerValue
487

@<SCITEGIC>MOL_PROPERTY
Probability
SciTegic.value.DoubleValue
0.01

@<SCITEGIC>MOL_PROPERTY
G
SciTegic.value.DoubleValue
549.624

@<SCITEGIC>MOL_PROPERTY
E
SciTegic.value.DoubleValue
371.934

@<SCITEGIC>MOL_PROPERTY
-TS
SciTegic.value.DoubleValue
177.690

@<SCITEGIC>MOL_PROPERTY
U+W
SciTegic.value.DoubleValue
249.423

@<SCITEGIC>MOL_PROPERTY
U
SciTegic.value.DoubleValue
288.040

@<SCITEGIC>MOL_PROPERTY
W
SciTegic.value.DoubleValue
-38.617

@<SCITEGIC>MOL_PROPERTY
W(PB)
SciTegic.value.DoubleValue
-44.570

@<SCITEGIC>MOL_PROPERTY
W(SA)
SciTegic.value.DoubleValue
5.953

@<SCITEGIC>MOL_PROPERTY
Valence
SciTegic.value.DoubleValue
154.248

@<SCITEGIC>MOL_PROPERTY
Coulomb
SciTegic.value.DoubleValue
155.520

@<SCITEGIC>MOL_PROPERTY
VdW
SciTegic.value.DoubleValue
-21.729

@<SCITEGIC>MOL_PROPERTY
VdW6
SciTegic.value.DoubleValue
-167.912

@<SCITEGIC>MOL_PROPERTY
VdW12
SciTegic.value.DoubleValue
146.184

@<SCITEGIC>MOL_PROPERTY
Bond
SciTegic.value.DoubleValue
4.609

@<SCITEGIC>MOL_PROPERTY
Angle
SciTegic.value.DoubleValue
11.818

@<SCITEGIC>MOL_PROPERTY
Pdih
SciTegic.value.DoubleValue
137.821

@<SCITEGIC>MOL_PROPERTY
Idih
SciTegic.value.DoubleValue
0.000

@<SCITEGIC>MOL_PROPERTY
Tether
SciTegic.value.DoubleValue
0.000

@<TRIPOS>MOLECULE
CD_guest-s16_fast_vm2_rndm.mol2 : feprocess host+ligand conformer 139
         139         145           2
SMALL
USER_CHARGES
 
@<TRIPOS>ATOM
       1    C1      16.175147   15.110355   21.611085 C.3        1 MOL1         0.2972
       2    H1      15.094160   14.980523   21.750881 H          1 MOL1         0.0751
       3    O1      16.547633   16.502370   21.589394 O.3        1 MOL1        -0.3740
       4    C2      16.940204   14.419375   22.763813 C.3        1 MOL1         0.1003
       5    H2      16.710886   13.346752   22.717667 H          1 MOL1         0.0783
       6    O2      16.520420   14.940743   24.035126 O.3        1 MOL1        -0.5519
       7    H3      16.099130   15.819384   23.862611 H          1 MOL1         0.3769
       8    C3      18.465652   14.591448   22.587290 C.3        1 MOL1         0.1053
       9    H4      18.699875   15.651997   22.732396 H          1 MOL1         0.0783
      10    O3      19.141991   13.818574   23.582398 O.3        1 MOL1        -0.5519
      11    H5      18.664253   14.016080   24.419405 H          1 MOL1         0.3769
      12    C4      18.936237   14.173998   21.168562 C.3        1 MOL1         0.1018
      13    H6      19.000966   13.078543   21.128233 H          1 MOL1         0.0783
      14    C5      18.006988   14.701410   20.036317 C.3        1 MOL1         0.1043
      15    H7      18.204039   15.774701   19.923598 H          1 MOL1         0.0783
      16    O4      16.606712   14.514512   20.370659 O.3        1 MOL1        -0.3740
      17    C6      18.276225   14.043988   18.661851 C.3        1 MOL1         0.0138
      18    H8      19.248406   14.396546   18.291352 H          1 MOL1         0.0794
      19    H9      17.512079   14.388431   17.952029 H          1 MOL1         0.0794
      20    O5      18.276206   12.613193   18.739562 O.3        1 MOL1        -0.5486
      21    H10     18.377782   12.265086   17.826794 H          1 MOL1         0.3769
      22    C7      14.760558   20.279888   21.274599 C.3        1 MOL1         0.2972
      23    H11     14.030805   21.078211   21.088390 H          1 MOL1         0.0751
      24    O6      16.045752   20.814830   21.642138 O.3        1 MOL1        -0.3740
      25    C8      14.275923   19.392631   22.450085 C.3        1 MOL1         0.1003
      26    H12     13.290700   18.991850   22.178333 H          1 MOL1         0.0783
      27    O7      14.156010   20.176366   23.648106 O.3        1 MOL1        -0.5519
      28    H13     14.825037   20.900910   23.582044 H          1 MOL1         0.3769
      29    C9      15.231970   18.196875   22.680523 C.3        1 MOL1         0.1053
      30    H14     16.194382   18.587245   23.038606 H          1 MOL1         0.0783
      31    O8      14.671808   17.316179   23.659566 O.3        1 MOL1        -0.5519
      32    H15     14.353698   17.905919   24.379546 H          1 MOL1         0.3769
      33    C10     15.478138   17.435428   21.356728 C.3        1 MOL1         0.1018
      34    H16     14.549113   16.931773   21.058056 H          1 MOL1         0.0783
      35    C11     15.918241   18.398432   20.222269 C.3        1 MOL1         0.1043
      36    H17     16.887312   18.834043   20.498488 H          1 MOL1         0.0783
      37    O9      14.932672   19.455706   20.098971 O.3        1 MOL1        -0.3740
      38    C12     16.102380   17.721406   18.838617 C.3        1 MOL1         0.0138
      39    H18     17.137540   17.366135   18.760921 H          1 MOL1         0.0794
      40    H19     15.967912   18.479811   18.055875 H          1 MOL1         0.0794
      41    O10     15.204612   16.626567   18.619621 O.3        1 MOL1        -0.5486
      42    H20     15.524664   15.873144   19.168543 H          1 MOL1         0.3769
      43    C13     18.466537   24.183299   21.197579 C.3        1 MOL1         0.2972
      44    H21     18.833084   25.190094   20.960090 H          1 MOL1         0.0751
      45    O11     19.530242   23.347395   21.706081 O.3        1 MOL1        -0.3740
      46    C14     17.363668   24.283452   22.282029 C.3        1 MOL1         0.1003
      47    H22     16.579411   24.945502   21.892383 H          1 MOL1         0.0783
      48    O12     17.904407   24.846664   23.487531 O.3        1 MOL1        -0.5519
      49    H23     18.831405   24.517026   23.564755 H          1 MOL1         0.3769
      50    C15     16.720387   22.905960   22.572049 C.3        1 MOL1         0.1053
      51    H24     17.462524   22.286663   23.087202 H          1 MOL1         0.0783
      52    O13     15.577759   23.075150   23.417116 O.3        1 MOL1        -0.5519
      53    H25     15.879259   23.666192   24.142375 H          1 MOL1         0.3769
      54    C16     16.304689   22.181583   21.268712 C.3        1 MOL1         0.1018
      55    H26     15.412647   22.679202   20.866028 H          1 MOL1         0.0783
      56    C17     17.437391   22.199084   20.204441 C.3        1 MOL1         0.1043
      57    H27     18.265773   21.585364   20.577940 H          1 MOL1         0.0783
      58    O14     17.899897   23.560465   20.024892 O.3        1 MOL1        -0.3740
      59    C18     17.043216   21.629711   18.816468 C.3        1 MOL1         0.0138
      60    H28     17.227524   20.548411   18.818496 H          1 MOL1         0.0794
      61    H29     17.706940   22.062980   18.056921 H          1 MOL1         0.0794
      62    O15     15.678582   21.881428   18.466244 O.3        1 MOL1        -0.5486
      63    H30     15.145290   21.163101   18.877806 H          1 MOL1         0.3769
      64    C19     23.645679   22.729197   21.218864 C.3        1 MOL1         0.2972
      65    H31     24.710903   22.823445   20.971311 H          1 MOL1         0.0751
      66    O16     23.315944   21.402301   21.671275 O.3        1 MOL1        -0.3740
      67    C20     23.245044   23.725093   22.336467 C.3        1 MOL1         0.1003
      68    H32     23.463073   24.737195   21.971680 H          1 MOL1         0.0783
      69    O17     23.999595   23.477281   23.534346 O.3        1 MOL1        -0.5519
      70    H33     23.938235   22.506773   23.724950 H          1 MOL1         0.3769
      71    C21     21.726923   23.635511   22.631326 C.3        1 MOL1         0.1053
      72    H34     21.543027   22.658004   23.093005 H          1 MOL1         0.0783
      73    O18     21.351424   24.676474   23.539227 O.3        1 MOL1        -0.5519
      74    H35     22.016996   24.641080   24.261316 H          1 MOL1         0.3769
      75    C22     20.875023   23.738160   21.337897 C.3        1 MOL1         0.1018
      76    H36     20.916043   24.779962   20.993789 H          1 MOL1         0.0783
      77    C23     21.412653   22.801334   20.214622 C.3        1 MOL1         0.1043
      78    H37     21.236246   21.763712   20.518910 H          1 MOL1         0.0783
      79    O19     22.836071   23.017101   20.060421 O.3        1 MOL1        -0.3740
      80    C24     20.765536   22.974418   18.817817 C.3        1 MOL1         0.0138
      81    H38     19.882756   22.327882   18.760142 H          1 MOL1         0.0794
      82    H39     21.471353   22.608323   18.060257 H          1 MOL1         0.0794
      83    O20     20.396360   24.326170   18.526646 O.3        1 MOL1        -0.5486
      84    H40     19.471534   24.436005   18.844329 H          1 MOL1         0.3769
      85    C25     24.892011   17.598970   22.047105 C.3        1 MOL1         0.2972
      86    H41     25.538841   16.720532   22.171107 H          1 MOL1         0.0751
      87    O21     23.529590   17.211052   21.780260 O.3        1 MOL1        -0.3740
      88    C26     24.920293   18.447968   23.341421 C.3        1 MOL1         0.1003
      89    H42     25.959062   18.760347   23.510380 H          1 MOL1         0.0783
      90    O22     24.471060   17.664838   24.458075 O.3        1 MOL1        -0.5519
      91    H43     23.917259   16.939534   24.084394 H          1 MOL1         0.3769
      92    C27     24.056456   19.720640   23.190427 C.3        1 MOL1         0.1053
      93    H44     23.006321   19.408101   23.129137 H          1 MOL1         0.0783
      94    O23     24.241732   20.565458   24.331530 O.3        1 MOL1        -0.5519
      95    H45     24.136292   19.971010   25.107242 H          1 MOL1         0.3769
      96    C28     24.415075   20.502077   21.902933 C.3        1 MOL1         0.1018
      97    H46     25.358476   21.038185   22.072191 H          1 MOL1         0.0783
      98    C29     24.533607   19.582545   20.654462 C.3        1 MOL1         0.1043
      99    H47     23.519941   19.257302   20.391137 H          1 MOL1         0.0783
     100    O24     25.346241   18.416880   20.949087 O.3        1 MOL1        -0.3740
     101    C30     25.130752   20.287127   19.412496 C.3        1 MOL1         0.0138
     102    H48     24.390727   20.999259   19.023630 H          1 MOL1         0.0794
     103    H49     25.300012   19.535891   18.629361 H          1 MOL1         0.0794
     104    O25     26.351829   20.972067   19.717480 O.3        1 MOL1        -0.5486
     105    H50     26.711654   21.328636   18.876148 H          1 MOL1         0.3769
     106    C31     21.283617   13.983757   20.439680 C.3        1 MOL1         0.2972
     107    H51     20.901809   13.067467   19.971061 H          1 MOL1         0.0751
     108    O26     20.216846   14.802402   20.962381 O.3        1 MOL1        -0.3740
     109    C32     22.267499   13.660226   21.594533 C.3        1 MOL1         0.1003
     110    H52     23.126241   13.137653   21.153294 H          1 MOL1         0.0783
     111    O27     21.666894   12.810904   22.583599 O.3        1 MOL1        -0.5519
     112    H53     20.831342   13.250044   22.884595 H          1 MOL1         0.3769
     113    C33     22.786854   14.970270   22.237255 C.3        1 MOL1         0.1053
     114    H54     21.940128   15.475913   22.720844 H          1 MOL1         0.0783
     115    O28     23.785466   14.664389   23.215606 O.3        1 MOL1        -0.5519
     116    H55     23.421957   13.906878   23.726154 H          1 MOL1         0.3769
     117    C34     23.375304   15.918811   21.161149 C.3        1 MOL1         0.1018
     118    H56     24.337480   15.504288   20.832717 H          1 MOL1         0.0783
     119    C35     22.448624   16.078245   19.919852 C.3        1 MOL1         0.1043
     120    H57     21.569093   16.662852   20.209898 H          1 MOL1         0.0783
     121    O29     22.014873   14.769751   19.471279 O.3        1 MOL1        -0.3740
     122    C36     23.092207   16.823749   18.720723 C.3        1 MOL1         0.0138
     123    H58     22.873717   17.893991   18.818578 H          1 MOL1         0.0794
     124    H59     22.601682   16.487713   17.797407 H          1 MOL1         0.0794
     125    O30     24.508664   16.630366   18.620336 O.3        1 MOL1        -0.5486
     126    H60     24.926372   17.137321   19.355479 H          1 MOL1         0.3769
     127    C1      19.777955   18.041904   22.134695 C.3        1 MOL1        -0.1693
     128    H1      18.847244   17.678400   21.686672 H          1 MOL1         0.0829
     129    H2      20.553800   17.283571   22.006433 H          1 MOL1         0.0829
     130    C2      19.641453   18.601930   23.585350 C.3        1 MOL1        -0.1768
     131    H3      18.875064   18.134786   24.213153 H          1 MOL1         0.0829
     132    H4      20.581558   18.648663   24.148604 H          1 MOL1         0.0829
     133    C3      19.235178   19.938792   22.902707 C.3        1 MOL1         0.1211
     134    H5      18.172184   19.988351   22.642033 H          1 MOL1         0.0786
     135    C4      20.157732   19.498564   21.726919 C.3        1 MOL1        -0.1768
     136    H6      19.844393   19.809049   20.725509 H          1 MOL1         0.0829
     137    H7      21.214896   19.746592   21.860218 H          1 MOL1         0.0829
     138    O1      19.639247   21.099456   23.585764 O.3        1 MOL1        -0.5515
     139    H8      19.593797   21.848813   22.953187 H          1 MOL1         0.3773
@<TRIPOS>BOND
    1     1     2    1
    2     1     3    1
    3     1     4    1
    4     4     5    1
    5     4     6    1
    6     6     7    1
    7     4     8    1
    8     8     9    1
    9     8    10    1
   10    10    11    1
   11     8    12    1
   12    12    13    1
   13    12    14    1
   14    14    15    1
   15     1    16    1
   16    14    16    1
   17    14    17    1
   18    17    18    1
   19    17    19    1
   20    17    20    1
   21    20    21    1
   22    22    23    1
   23    22    24    1
   24    22    25    1
   25    25    26    1
   26    25    27    1
   27    27    28    1
   28    25    29    1
   29    29    30    1
   30    29    31    1
   31    31    32    1
   32     3    33    1
   33    29    33    1
   34    33    34    1
   35    33    35    1
   36    35    36    1
   37    22    37    1
   38    35    37    1
   39    35    38    1
   40    38    39    1
   41    38    40    1
   42    38    41    1
   43    41    42    1
   44    43    44    1
   45    43    45    1
   46    43    46    1
   47    46    47    1
   48    46    48    1
   49    48    49    1
   50    46    50    1
   51    50    51    1
   52    50    52    1
   53    52    53    1
   54    24    54    1
   55    50    54    1
   56    54    55    1
   57    54    56    1
   58    56    57    1
   59    43    58    1
   60    56    58    1
   61    56    59    1
   62    59    60    1
   63    59    61    1
   64    59    62    1
   65    62    63    1
   66    64    65    1
   67    64    66    1
   68    64    67    1
   69    67    68    1
   70    67    69    1
   71    69    70    1
   72    67    71    1
   73    71    72    1
   74    71    73    1
   75    73    74    1
   76    45    75    1
   77    71    75    1
   78    75    76    1
   79    75    77    1
   80    77    78    1
   81    64    79    1
   82    77    79    1
   83    77    80    1
   84    80    81    1
   85    80    82    1
   86    80    83    1
   87    83    84    1
   88    85    86    1
   89    85    87    1
   90    85    88    1
   91    88    89    1
   92    88    90    1
   93    90    91    1
   94    88    92    1
   95    92    93    1
   96    92    94    1
   97    94    95    1
   98    66    96    1
   99    92    96    1
  100    96    97    1
  101    96    98    1
  102    98    99    1
  103    85   100    1
  104    98   100    1
  105    98   101    1
  106   101   102    1
  107   101   103    1
  108   101   104    1
  109   104   105    1
  110   106   107    1
  111    12   108    1
  112   106   108    1
  113   106   109    1
  114   109   110    1
  115   109   111    1
  116   111   112    1
  117   109   113    1
  118   113   114    1
  119   113   115    1
  120   115   116    1
  121    87   117    1
  122   113   117    1
  123   117   118    1
  124   117   119    1
  125   119   120    1
  126   106   121    1
  127   119   121    1
  128   119   122    1
  129   122   123    1
  130   122   124    1
  131   122   125    1
  132   125   126    1
  133   127   128    1
  134   127   129    1
  135   127   130    1
  136   130   131    1
  137   130   132    1
  138   130   133    1
  139   133   134    1
  140   127   135    1
  141   133   135    1
  142   135   136    1
  143   135   137    1
  144   133   138    1
  145   138   139    1
@<TRIPOS>SUBSTRUCTURE
       1 MOL1            1 RESIDUE      1      MOL     
       2 MOL1          139 RESIDUE      1      MOL     
@<SCITEGIC>MOL_PROPERTY
feprocess Rank
SciTegic.value.IntegerValue
139

@<SCITEGIC>MOL_PROPERTY
Conf_Id
SciTegic.value.IntegerValue
901

@<SCITEGIC>MOL_PROPERTY
Probability
SciTegic.value.DoubleValue
0.01

@<SCITEGIC>MOL_PROPERTY
G
SciTegic.value.DoubleValue
549.648

@<SCITEGIC>MOL_PROPERTY
E
SciTegic.value.DoubleValue
372.179

@<SCITEGIC>MOL_PROPERTY
-TS
SciTegic.value.DoubleValue
177.469

@<SCITEGIC>MOL_PROPERTY
U+W
SciTegic.value.DoubleValue
249.667

@<SCITEGIC>MOL_PROPERTY
U
SciTegic.value.DoubleValue
287.234

@<SCITEGIC>MOL_PROPERTY
W
SciTegic.value.DoubleValue
-37.567

@<SCITEGIC>MOL_PROPERTY
W(PB)
SciTegic.value.DoubleValue
-43.482

@<SCITEGIC>MOL_PROPERTY
W(SA)
SciTegic.value.DoubleValue
5.915

@<SCITEGIC>MOL_PROPERTY
Valence
SciTegic.value.DoubleValue
154.875

@<SCITEGIC>MOL_PROPERTY
Coulomb
SciTegic.value.DoubleValue
154.498

@<SCITEGIC>MOL_PROPERTY
VdW
SciTegic.value.DoubleValue
-22.138

@<SCITEGIC>MOL_PROPERTY
VdW6
SciTegic.value.DoubleValue
-168.895

@<SCITEGIC>MOL_PROPERTY
VdW12
SciTegic.value.DoubleValue
146.757

@<SCITEGIC>MOL_PROPERTY
Bond
SciTegic.value.DoubleValue
4.629

@<SCITEGIC>MOL_PROPERTY
Angle
SciTegic.value.DoubleValue
11.377

@<SCITEGIC>MOL_PROPERTY
Pdih
SciTegic.value.DoubleValue
138.868

@<SCITEGIC>MOL_PROPERTY
Idih
SciTegic.value.DoubleValue
0.000

@<SCITEGIC>MOL_PROPERTY
Tether
SciTegic.value.DoubleValue
0.000

@<TRIPOS>MOLECULE
CD_guest-s16_fast_vm2_rndm.mol2 : feprocess host+ligand conformer 140
         139         145           2
SMALL
USER_CHARGES
 
@<TRIPOS>ATOM
       1    C1      16.073970   15.079373   20.894642 C.3        1 MOL1         0.2972
       2    H1      15.020332   14.925447   20.628358 H          1 MOL1         0.0751
       3    O1      16.314879   16.409957   21.390826 O.3        1 MOL1        -0.3740
       4    C2      16.516418   14.092294   22.005825 C.3        1 MOL1         0.1003
       5    H2      16.379431   13.074667   21.617625 H          1 MOL1         0.0783
       6    O2      15.715620   14.260829   23.187130 O.3        1 MOL1        -0.5519
       7    H3      15.621565   15.234586   23.343758 H          1 MOL1         0.3769
       8    C3      18.018758   14.279947   22.341440 C.3        1 MOL1         0.1053
       9    H4      18.143810   15.264119   22.812488 H          1 MOL1         0.0783
      10    O3      18.442119   13.256641   23.248798 O.3        1 MOL1        -0.5519
      11    H5      17.741103   13.218461   23.937031 H          1 MOL1         0.3769
      12    C4      18.893553   14.239941   21.063413 C.3        1 MOL1         0.1018
      13    H6      18.925581   13.202311   20.706194 H          1 MOL1         0.0783
      14    C5      18.328068   15.156023   19.941502 C.3        1 MOL1         0.1043
      15    H7      18.426163   16.195369   20.268331 H          1 MOL1         0.0783
      16    O4      16.923898   14.860475   19.746329 O.3        1 MOL1        -0.3740
      17    C6      19.050002   15.048812   18.574386 C.3        1 MOL1         0.0138
      18    H8      19.912996   15.726182   18.582217 H          1 MOL1         0.0794
      19    H9      18.369436   15.409939   17.791866 H          1 MOL1         0.0794
      20    O5      19.489019   13.720984   18.268999 O.3        1 MOL1        -0.5486
      21    H10     20.394496   13.631499   18.643091 H          1 MOL1         0.3769
      22    C7      14.718390   20.204322   21.722996 C.3        1 MOL1         0.2972
      23    H11     14.068995   21.086992   21.784725 H          1 MOL1         0.0751
      24    O6      16.112802   20.570823   21.729773 O.3        1 MOL1        -0.3740
      25    C8      14.449206   19.278076   22.933640 C.3        1 MOL1         0.1003
      26    H12     13.394788   18.975490   22.891453 H          1 MOL1         0.0783
      27    O7      14.694339   19.978327   24.163930 O.3        1 MOL1        -0.5519
      28    H13     15.336600   20.702801   23.959320 H          1 MOL1         0.3769
      29    C9      15.316414   18.000898   22.855867 C.3        1 MOL1         0.1053
      30    H14     16.361869   18.298614   22.998897 H          1 MOL1         0.0783
      31    O8      14.933076   17.093959   23.894817 O.3        1 MOL1        -0.5519
      32    H15     14.869372   17.648925   24.704124 H          1 MOL1         0.3769
      33    C10     15.190193   17.304142   21.478315 C.3        1 MOL1         0.1018
      34    H16     14.231666   16.769821   21.442511 H          1 MOL1         0.0783
      35    C11     15.297407   18.301514   20.290002 C.3        1 MOL1         0.1043
      36    H17     16.343659   18.625105   20.222407 H          1 MOL1         0.0783
      37    O9      14.454628   19.461914   20.514584 O.3        1 MOL1        -0.3740
      38    C12     14.916360   17.681255   18.924669 C.3        1 MOL1         0.0138
      39    H18     15.702371   16.973135   18.630586 H          1 MOL1         0.0794
      40    H19     14.897739   18.478648   18.169627 H          1 MOL1         0.0794
      41    O10     13.650907   17.010478   18.972189 O.3        1 MOL1        -0.5486
      42    H20     13.449458   16.690054   18.066088 H          1 MOL1         0.3769
      43    C13     18.505660   23.965226   21.028568 C.3        1 MOL1         0.2972
      44    H21     18.808789   24.979449   20.738971 H          1 MOL1         0.0751
      45    O11     19.642670   23.145997   21.366751 O.3        1 MOL1        -0.3740
      46    C14     17.581439   24.014952   22.274895 C.3        1 MOL1         0.1003
      47    H22     16.721763   24.648075   22.019678 H          1 MOL1         0.0783
      48    O12     18.269848   24.588536   23.398327 O.3        1 MOL1        -0.5519
      49    H23     19.208129   24.273009   23.360670 H          1 MOL1         0.3769
      50    C15     17.042779   22.605375   22.630647 C.3        1 MOL1         0.1053
      51    H24     17.887486   21.983405   22.958898 H          1 MOL1         0.0783
      52    O13     16.076557   22.711223   23.681844 O.3        1 MOL1        -0.5519
      53    H25     16.485926   23.312541   24.343487 H          1 MOL1         0.3769
      54    C16     16.401536   21.940982   21.389045 C.3        1 MOL1         0.1018
      55    H26     15.493206   22.498295   21.124338 H          1 MOL1         0.0783
      56    C17     17.374673   21.963168   20.181245 C.3        1 MOL1         0.1043
      57    H27     18.255336   21.362326   20.435418 H          1 MOL1         0.0783
      58    O14     17.785063   23.331288   19.947370 O.3        1 MOL1        -0.3740
      59    C18     16.787166   21.394851   18.863333 C.3        1 MOL1         0.0138
      60    H28     16.939699   20.309102   18.851096 H          1 MOL1         0.0794
      61    H29     17.359523   21.805407   18.020903 H          1 MOL1         0.0794
      62    O15     15.393603   21.680540   18.696380 O.3        1 MOL1        -0.5486
      63    H30     14.899863   21.041045   19.261023 H          1 MOL1         0.3769
      64    C19     23.763082   22.876244   20.985709 C.3        1 MOL1         0.2972
      65    H31     24.832944   23.033408   20.801995 H          1 MOL1         0.0751
      66    O16     23.462598   21.481477   21.212631 O.3        1 MOL1        -0.3740
      67    C20     23.269280   23.730613   22.182440 C.3        1 MOL1         0.1003
      68    H32     23.377402   24.783303   21.889758 H          1 MOL1         0.0783
      69    O17     24.049971   23.508620   23.364416 O.3        1 MOL1        -0.5519
      70    H33     23.963491   22.549914   23.596402 H          1 MOL1         0.3769
      71    C21     21.765087   23.468441   22.437886 C.3        1 MOL1         0.1053
      72    H34     21.636884   22.416548   22.730690 H          1 MOL1         0.0783
      73    O18     21.298526   24.325523   23.485569 O.3        1 MOL1        -0.5519
      74    H35     21.988088   24.275056   24.184490 H          1 MOL1         0.3769
      75    C22     20.944217   23.729474   21.149602 C.3        1 MOL1         0.1018
      76    H36     20.885631   24.816165   21.004941 H          1 MOL1         0.0783
      77    C23     21.572050   23.068496   19.885975 C.3        1 MOL1         0.1043
      78    H37     21.397727   21.987631   19.937731 H          1 MOL1         0.0783
      79    O19     23.003046   23.308957   19.837661 O.3        1 MOL1        -0.3740
      80    C24     20.954256   23.569330   18.558487 C.3        1 MOL1         0.0138
      81    H38     19.934646   23.171307   18.475113 H          1 MOL1         0.0794
      82    H39     21.534038   23.153434   17.723689 H          1 MOL1         0.0794
      83    O20     20.926185   25.000430   18.480669 O.3        1 MOL1        -0.5486
      84    H40     20.555586   25.243214   17.604295 H          1 MOL1         0.3769
      85    C25     24.917162   17.717394   22.095230 C.3        1 MOL1         0.2972
      86    H41     25.512113   16.833033   22.357661 H          1 MOL1         0.0751
      87    O21     23.608753   17.351431   21.610868 O.3        1 MOL1        -0.3740
      88    C26     24.760839   18.637511   23.329865 C.3        1 MOL1         0.1003
      89    H42     25.768922   18.952479   23.629323 H          1 MOL1         0.0783
      90    O22     24.140881   17.944523   24.425754 O.3        1 MOL1        -0.5519
      91    H43     24.019736   17.004943   24.144844 H          1 MOL1         0.3769
      92    C27     23.950552   19.903475   22.971475 C.3        1 MOL1         0.1053
      93    H44     22.927654   19.589278   22.744905 H          1 MOL1         0.0783
      94    O23     23.943402   20.772880   24.104989 O.3        1 MOL1        -0.5519
      95    H45     23.652207   20.196945   24.848032 H          1 MOL1         0.3769
      96    C28     24.513866   20.628679   21.719872 C.3        1 MOL1         0.1018
      97    H46     25.404249   21.198850   22.013804 H          1 MOL1         0.0783
      98    C29     24.861525   19.639027   20.568076 C.3        1 MOL1         0.1043
      99    H47     23.917573   19.301161   20.121912 H          1 MOL1         0.0783
     100    O24     25.580024   18.481280   21.066423 O.3        1 MOL1        -0.3740
     101    C30     25.694888   20.279608   19.431596 C.3        1 MOL1         0.0138
     102    H48     25.086692   21.049659   18.937609 H          1 MOL1         0.0794
     103    H49     25.907373   19.506394   18.681374 H          1 MOL1         0.0794
     104    O25     26.922905   20.849996   19.903344 O.3        1 MOL1        -0.5486
     105    H50     26.710457   21.648692   20.428413 H          1 MOL1         0.3769
     106    C31     21.316470   13.893531   21.073573 C.3        1 MOL1         0.2972
     107    H51     20.996715   12.873559   20.825218 H          1 MOL1         0.0751
     108    O26     20.197345   14.722743   21.448667 O.3        1 MOL1        -0.3740
     109    C32     22.293861   13.851381   22.274626 C.3        1 MOL1         0.1003
     110    H52     23.140444   13.214245   21.987179 H          1 MOL1         0.0783
     111    O27     21.644646   13.286477   23.425138 O.3        1 MOL1        -0.5519
     112    H53     20.689749   13.537611   23.367718 H          1 MOL1         0.3769
     113    C33     22.847739   15.259046   22.605305 C.3        1 MOL1         0.1053
     114    H54     22.021433   15.865595   22.997818 H          1 MOL1         0.0783
     115    O28     23.868946   15.132010   23.599504 O.3        1 MOL1        -0.5519
     116    H55     23.510019   14.485216   24.248971 H          1 MOL1         0.3769
     117    C34     23.406169   15.951446   21.333508 C.3        1 MOL1         0.1018
     118    H56     24.341784   15.459264   21.037376 H          1 MOL1         0.0783
     119    C35     22.402795   15.876782   20.153516 C.3        1 MOL1         0.1043
     120    H57     21.527127   16.476547   20.420688 H          1 MOL1         0.0783
     121    O29     21.988890   14.503253   19.949473 O.3        1 MOL1        -0.3740
     122    C36     22.953380   16.449407   18.822776 C.3        1 MOL1         0.0138
     123    H58     22.861769   17.543223   18.852879 H          1 MOL1         0.0794
     124    H59     22.320325   16.095776   17.998309 H          1 MOL1         0.0794
     125    O30     24.319643   16.091393   18.583899 O.3        1 MOL1        -0.5486
     126    H60     24.869771   16.600489   19.219279 H          1 MOL1         0.3769
     127    C1      19.519778   18.741996   20.508372 C.3        1 MOL1        -0.1693
     128    H1      19.896732   17.847319   20.004680 H          1 MOL1         0.0829
     129    H2      18.864092   19.273952   19.813076 H          1 MOL1         0.0829
     130    C2      20.619323   19.595968   21.214716 C.3        1 MOL1        -0.1768
     131    H3      21.606650   19.587415   20.744620 H          1 MOL1         0.0829
     132    H4      20.335789   20.629975   21.432928 H          1 MOL1         0.0829
     133    C3      20.433673   18.633791   22.423912 C.3        1 MOL1         0.1211
     134    H5      21.007040   17.703528   22.342551 H          1 MOL1         0.0786
     135    C4      18.960068   18.514018   21.950491 C.3        1 MOL1        -0.1768
     136    H6      18.486970   17.549928   22.149387 H          1 MOL1         0.0829
     137    H7      18.310870   19.314173   22.321904 H          1 MOL1         0.0829
     138    O1      20.599715   19.217697   23.694401 O.3        1 MOL1        -0.5515
     139    H8      20.339541   18.551246   24.360833 H          1 MOL1         0.3773
@<TRIPOS>BOND
    1     1     2    1
    2     1     3    1
    3     1     4    1
    4     4     5    1
    5     4     6    1
    6     6     7    1
    7     4     8    1
    8     8     9    1
    9     8    10    1
   10    10    11    1
   11     8    12    1
   12    12    13    1
   13    12    14    1
   14    14    15    1
   15     1    16    1
   16    14    16    1
   17    14    17    1
   18    17    18    1
   19    17    19    1
   20    17    20    1
   21    20    21    1
   22    22    23    1
   23    22    24    1
   24    22    25    1
   25    25    26    1
   26    25    27    1
   27    27    28    1
   28    25    29    1
   29    29    30    1
   30    29    31    1
   31    31    32    1
   32     3    33    1
   33    29    33    1
   34    33    34    1
   35    33    35    1
   36    35    36    1
   37    22    37    1
   38    35    37    1
   39    35    38    1
   40    38    39    1
   41    38    40    1
   42    38    41    1
   43    41    42    1
   44    43    44    1
   45    43    45    1
   46    43    46    1
   47    46    47    1
   48    46    48    1
   49    48    49    1
   50    46    50    1
   51    50    51    1
   52    50    52    1
   53    52    53    1
   54    24    54    1
   55    50    54    1
   56    54    55    1
   57    54    56    1
   58    56    57    1
   59    43    58    1
   60    56    58    1
   61    56    59    1
   62    59    60    1
   63    59    61    1
   64    59    62    1
   65    62    63    1
   66    64    65    1
   67    64    66    1
   68    64    67    1
   69    67    68    1
   70    67    69    1
   71    69    70    1
   72    67    71    1
   73    71    72    1
   74    71    73    1
   75    73    74    1
   76    45    75    1
   77    71    75    1
   78    75    76    1
   79    75    77    1
   80    77    78    1
   81    64    79    1
   82    77    79    1
   83    77    80    1
   84    80    81    1
   85    80    82    1
   86    80    83    1
   87    83    84    1
   88    85    86    1
   89    85    87    1
   90    85    88    1
   91    88    89    1
   92    88    90    1
   93    90    91    1
   94    88    92    1
   95    92    93    1
   96    92    94    1
   97    94    95    1
   98    66    96    1
   99    92    96    1
  100    96    97    1
  101    96    98    1
  102    98    99    1
  103    85   100    1
  104    98   100    1
  105    98   101    1
  106   101   102    1
  107   101   103    1
  108   101   104    1
  109   104   105    1
  110   106   107    1
  111    12   108    1
  112   106   108    1
  113   106   109    1
  114   109   110    1
  115   109   111    1
  116   111   112    1
  117   109   113    1
  118   113   114    1
  119   113   115    1
  120   115   116    1
  121    87   117    1
  122   113   117    1
  123   117   118    1
  124   117   119    1
  125   119   120    1
  126   106   121    1
  127   119   121    1
  128   119   122    1
  129   122   123    1
  130   122   124    1
  131   122   125    1
  132   125   126    1
  133   127   128    1
  134   127   129    1
  135   127   130    1
  136   130   131    1
  137   130   132    1
  138   130   133    1
  139   133   134    1
  140   127   135    1
  141   133   135    1
  142   135   136    1
  143   135   137    1
  144   133   138    1
  145   138   139    1
@<TRIPOS>SUBSTRUCTURE
       1 MOL1            1 RESIDUE      1      MOL     
       2 MOL1          139 RESIDUE      1      MOL     
@<SCITEGIC>MOL_PROPERTY
feprocess Rank
SciTegic.value.IntegerValue
140

@<SCITEGIC>MOL_PROPERTY
Conf_Id
SciTegic.value.IntegerValue
296

@<SCITEGIC>MOL_PROPERTY
Probability
SciTegic.value.DoubleValue
0.01

@<SCITEGIC>MOL_PROPERTY
G
SciTegic.value.DoubleValue
549.672

@<SCITEGIC>MOL_PROPERTY
E
SciTegic.value.DoubleValue
371.978

@<SCITEGIC>MOL_PROPERTY
-TS
SciTegic.value.DoubleValue
177.694

@<SCITEGIC>MOL_PROPERTY
U+W
SciTegic.value.DoubleValue
249.467

@<SCITEGIC>MOL_PROPERTY
U
SciTegic.value.DoubleValue
289.635

@<SCITEGIC>MOL_PROPERTY
W
SciTegic.value.DoubleValue
-40.168

@<SCITEGIC>MOL_PROPERTY
W(PB)
SciTegic.value.DoubleValue
-46.191

@<SCITEGIC>MOL_PROPERTY
W(SA)
SciTegic.value.DoubleValue
6.024

@<SCITEGIC>MOL_PROPERTY
Valence
SciTegic.value.DoubleValue
154.834

@<SCITEGIC>MOL_PROPERTY
Coulomb
SciTegic.value.DoubleValue
156.758

@<SCITEGIC>MOL_PROPERTY
VdW
SciTegic.value.DoubleValue
-21.958

@<SCITEGIC>MOL_PROPERTY
VdW6
SciTegic.value.DoubleValue
-167.341

@<SCITEGIC>MOL_PROPERTY
VdW12
SciTegic.value.DoubleValue
145.383

@<SCITEGIC>MOL_PROPERTY
Bond
SciTegic.value.DoubleValue
4.660

@<SCITEGIC>MOL_PROPERTY
Angle
SciTegic.value.DoubleValue
11.884

@<SCITEGIC>MOL_PROPERTY
Pdih
SciTegic.value.DoubleValue
138.289

@<SCITEGIC>MOL_PROPERTY
Idih
SciTegic.value.DoubleValue
0.000

@<SCITEGIC>MOL_PROPERTY
Tether
SciTegic.value.DoubleValue
0.000

@<TRIPOS>MOLECULE
CD_guest-s16_fast_vm2_rndm.mol2 : feprocess host+ligand conformer 141
         139         145           2
SMALL
USER_CHARGES
 
@<TRIPOS>ATOM
       1    C1      16.281818   15.318330   21.500703 C.3        1 MOL1         0.2972
       2    H1      15.191431   15.200502   21.450375 H          1 MOL1         0.0751
       3    O1      16.666644   16.700577   21.380467 O.3        1 MOL1        -0.3740
       4    C2      16.800834   14.783910   22.857881 C.3        1 MOL1         0.1003
       5    H2      16.528448   13.722439   22.922869 H          1 MOL1         0.0783
       6    O2      16.190558   15.500499   23.943428 O.3        1 MOL1        -0.5519
       7    H3      15.767235   16.302753   23.552215 H          1 MOL1         0.3769
       8    C3      18.340432   14.891832   22.938760 C.3        1 MOL1         0.1053
       9    H4      18.598017   15.954999   22.959263 H          1 MOL1         0.0783
      10    O3      18.807638   14.262401   24.135484 O.3        1 MOL1        -0.5519
      11    H5      18.209047   14.590875   24.843188 H          1 MOL1         0.3769
      12    C4      19.019417   14.249808   21.705937 C.3        1 MOL1         0.1018
      13    H6      18.944469   13.158854   21.805874 H          1 MOL1         0.0783
      14    C5      18.370720   14.701313   20.367179 C.3        1 MOL1         0.1043
      15    H7      18.642720   15.750672   20.202423 H          1 MOL1         0.0783
      16    O4      16.924909   14.586430   20.436049 O.3        1 MOL1        -0.3740
      17    C6      18.861034   13.896654   19.139787 C.3        1 MOL1         0.0138
      18    H8      19.903685   14.172597   18.934159 H          1 MOL1         0.0794
      19    H9      18.267967   14.193593   18.264354 H          1 MOL1         0.0794
      20    O5      18.764778   12.482392   19.350591 O.3        1 MOL1        -0.5486
      21    H10     19.052844   12.038114   18.523682 H          1 MOL1         0.3769
      22    C7      15.084773   20.371096   20.184296 C.3        1 MOL1         0.2972
      23    H11     14.504010   21.171740   19.708196 H          1 MOL1         0.0751
      24    O6      16.237691   20.887870   20.878077 O.3        1 MOL1        -0.3740
      25    C8      14.221075   19.575955   21.200958 C.3        1 MOL1         0.1003
      26    H12     13.389642   19.127243   20.641968 H          1 MOL1         0.0783
      27    O7      13.688259   20.432150   22.223387 O.3        1 MOL1        -0.5519
      28    H13     14.449079   20.920528   22.628969 H          1 MOL1         0.3769
      29    C9      15.047238   18.427040   21.832072 C.3        1 MOL1         0.1053
      30    H14     15.844490   18.875984   22.438019 H          1 MOL1         0.0783
      31    O8      14.206201   17.620719   22.663418 O.3        1 MOL1        -0.5519
      32    H15     13.662682   18.260129   23.176000 H          1 MOL1         0.3769
      33    C10     15.703223   17.552782   20.734378 C.3        1 MOL1         0.1018
      34    H16     14.916242   16.974875   20.231831 H          1 MOL1         0.0783
      35    C11     16.451689   18.406742   19.674759 C.3        1 MOL1         0.1043
      36    H17     17.315118   18.881562   20.155566 H          1 MOL1         0.0783
      37    O9      15.557133   19.436675   19.186717 O.3        1 MOL1        -0.3740
      38    C12     16.999483   17.601009   18.467610 C.3        1 MOL1         0.0138
      39    H18     18.014752   17.262413   18.708742 H          1 MOL1         0.0794
      40    H19     17.088854   18.277612   17.607266 H          1 MOL1         0.0794
      41    O10     16.187728   16.471393   18.122273 O.3        1 MOL1        -0.5486
      42    H20     16.305083   15.797396   18.831957 H          1 MOL1         0.3769
      43    C13     18.337941   24.250926   21.880323 C.3        1 MOL1         0.2972
      44    H21     18.734888   25.245987   22.118604 H          1 MOL1         0.0751
      45    O11     19.375417   23.253516   21.834155 O.3        1 MOL1        -0.3740
      46    C14     17.311856   23.818666   22.953682 C.3        1 MOL1         0.1003
      47    H22     16.474657   24.527984   22.919924 H          1 MOL1         0.0783
      48    O12     17.907096   23.845078   24.261074 O.3        1 MOL1        -0.5519
      49    H23     18.878992   23.702018   24.140772 H          1 MOL1         0.3769
      50    C15     16.761062   22.408951   22.639810 C.3        1 MOL1         0.1053
      51    H24     17.579898   21.692529   22.775811 H          1 MOL1         0.0783
      52    O13     15.704713   22.096489   23.552806 O.3        1 MOL1        -0.5519
      53    H25     16.051426   22.354124   24.436354 H          1 MOL1         0.3769
      54    C16     16.251695   22.296013   21.179263 C.3        1 MOL1         0.1018
      55    H26     15.249168   22.740747   21.124104 H          1 MOL1         0.0783
      56    C17     17.198313   22.964529   20.137508 C.3        1 MOL1         0.1043
      57    H27     18.063248   22.302494   20.002730 H          1 MOL1         0.0783
      58    O14     17.667272   24.256793   20.604096 O.3        1 MOL1        -0.3740
      59    C18     16.552073   23.151645   18.744112 C.3        1 MOL1         0.0138
      60    H28     16.440468   22.164358   18.275748 H          1 MOL1         0.0794
      61    H29     17.237936   23.734991   18.115161 H          1 MOL1         0.0794
      62    O15     15.276218   23.798996   18.823031 O.3        1 MOL1        -0.5486
      63    H30     14.964391   23.956561   17.905084 H          1 MOL1         0.3769
      64    C19     23.483085   22.722793   21.667091 C.3        1 MOL1         0.2972
      65    H31     24.569957   22.856496   21.589534 H          1 MOL1         0.0751
      66    O16     23.124951   21.327132   21.736933 O.3        1 MOL1        -0.3740
      67    C20     22.960930   23.421237   22.947065 C.3        1 MOL1         0.1003
      68    H32     23.196517   24.490013   22.861677 H          1 MOL1         0.0783
      69    O17     23.603148   22.885723   24.115097 O.3        1 MOL1        -0.5519
      70    H33     24.020238   22.030042   23.845355 H          1 MOL1         0.3769
      71    C21     21.426672   23.274805   23.058135 C.3        1 MOL1         0.1053
      72    H34     21.201911   22.212395   23.211830 H          1 MOL1         0.0783
      73    O18     20.946337   24.035835   24.170829 O.3        1 MOL1        -0.5519
      74    H35     21.571102   23.831862   24.902585 H          1 MOL1         0.3769
      75    C22     20.727433   23.735291   21.756800 C.3        1 MOL1         0.1018
      76    H36     20.779643   24.830236   21.697490 H          1 MOL1         0.0783
      77    C23     21.373234   23.113526   20.486971 C.3        1 MOL1         0.1043
      78    H37     21.156347   22.041668   20.493860 H          1 MOL1         0.0783
      79    O19     22.811739   23.300452   20.523256 O.3        1 MOL1        -0.3740
      80    C24     20.821851   23.660590   19.144586 C.3        1 MOL1         0.0138
      81    H38     19.950648   23.058536   18.856486 H          1 MOL1         0.0794
      82    H39     21.581998   23.511847   18.365948 H          1 MOL1         0.0794
      83    O20     20.443999   25.040405   19.207292 O.3        1 MOL1        -0.5486
      84    H40     19.556594   25.074627   19.631898 H          1 MOL1         0.3769
      85    C25     24.979687   17.600562   21.029852 C.3        1 MOL1         0.2972
      86    H41     25.688879   16.855265   20.647264 H          1 MOL1         0.0751
      87    O21     23.895918   16.973131   21.741035 O.3        1 MOL1        -0.3740
      88    C26     25.685867   18.546796   22.038636 C.3        1 MOL1         0.1003
      89    H42     26.549796   18.990704   21.527223 H          1 MOL1         0.0783
      90    O22     26.137295   17.803068   23.181485 O.3        1 MOL1        -0.5519
      91    H43     25.405481   17.180101   23.407288 H          1 MOL1         0.3769
      92    C27     24.749704   19.698715   22.490020 C.3        1 MOL1         0.1053
      93    H44     23.934276   19.267764   23.088036 H          1 MOL1         0.0783
      94    O23     25.490367   20.637489   23.277548 O.3        1 MOL1        -0.5519
      95    H45     26.010967   20.089374   23.906413 H          1 MOL1         0.3769
      96    C28     24.124619   20.405200   21.264134 C.3        1 MOL1         0.1018
      97    H46     24.918465   20.917948   20.704699 H          1 MOL1         0.0783
      98    C29     23.444216   19.374897   20.328602 C.3        1 MOL1         0.1043
      99    H47     22.634632   18.878986   20.878386 H          1 MOL1         0.0783
     100    O24     24.441257   18.397960   19.949765 O.3        1 MOL1        -0.3740
     101    C30     22.826926   19.980323   19.041446 C.3        1 MOL1         0.0138
     102    H48     21.798224   20.290222   19.262376 H          1 MOL1         0.0794
     103    H49     22.762639   19.191510   18.280333 H          1 MOL1         0.0794
     104    O25     23.565918   21.097841   18.531927 O.3        1 MOL1        -0.5486
     105    H50     23.439151   21.844641   19.162009 H          1 MOL1         0.3769
     106    C31     21.388579   13.685811   21.487756 C.3        1 MOL1         0.2972
     107    H51     20.936495   12.694161   21.358160 H          1 MOL1         0.0751
     108    O26     20.390001   14.704348   21.709333 O.3        1 MOL1        -0.3740
     109    C32     22.355050   13.681283   22.695407 C.3        1 MOL1         0.1003
     110    H52     23.132492   12.933950   22.489973 H          1 MOL1         0.0783
     111    O27     21.662348   13.322782   23.902760 O.3        1 MOL1        -0.5519
     112    H53     20.789827   13.791713   23.895985 H          1 MOL1         0.3769
     113    C33     23.048507   15.055557   22.854881 C.3        1 MOL1         0.1053
     114    H54     22.289431   15.781685   23.172273 H          1 MOL1         0.0783
     115    O28     24.060140   14.955480   23.863890 O.3        1 MOL1        -0.5519
     116    H55     23.623681   14.502438   24.618868 H          1 MOL1         0.3769
     117    C34     23.679447   15.560824   21.529020 C.3        1 MOL1         0.1018
     118    H56     24.629026   15.029527   21.385213 H          1 MOL1         0.0783
     119    C35     22.753316   15.348103   20.288307 C.3        1 MOL1         0.1043
     120    H57     21.956243   16.101068   20.315391 H          1 MOL1         0.0783
     121    O29     22.158446   14.028034   20.320918 O.3        1 MOL1        -0.3740
     122    C36     23.464968   15.469516   18.917073 C.3        1 MOL1         0.0138
     123    H58     23.611934   16.528084   18.677938 H          1 MOL1         0.0794
     124    H59     22.796769   15.065501   18.144751 H          1 MOL1         0.0794
     125    O30     24.721120   14.779310   18.889082 O.3        1 MOL1        -0.5486
     126    H60     25.079889   14.852366   17.977918 H          1 MOL1         0.3769
     127    C1      19.866187   19.869945   23.513928 C.3        1 MOL1        -0.1693
     128    H1      19.453658   20.752570   24.015955 H          1 MOL1         0.0829
     129    H2      20.875933   19.683532   23.902193 H          1 MOL1         0.0829
     130    C2      19.764140   19.850177   21.953434 C.3        1 MOL1        -0.1768
     131    H3      18.904256   20.382912   21.535884 H          1 MOL1         0.0829
     132    H4      20.664205   20.157009   21.419022 H          1 MOL1         0.0829
     133    C3      19.564561   18.312959   22.075023 C.3        1 MOL1         0.1211
     134    H5      18.875115   17.886393   21.341000 H          1 MOL1         0.0786
     135    C4      18.944326   18.609208   23.476062 C.3        1 MOL1        -0.1768
     136    H6      19.131041   17.860256   24.253133 H          1 MOL1         0.0829
     137    H7      17.872687   18.833986   23.456764 H          1 MOL1         0.0829
     138    O1      20.760700   17.569392   22.086073 O.3        1 MOL1        -0.5515
     139    H8      20.529251   16.619660   22.168097 H          1 MOL1         0.3773
@<TRIPOS>BOND
    1     1     2    1
    2     1     3    1
    3     1     4    1
    4     4     5    1
    5     4     6    1
    6     6     7    1
    7     4     8    1
    8     8     9    1
    9     8    10    1
   10    10    11    1
   11     8    12    1
   12    12    13    1
   13    12    14    1
   14    14    15    1
   15     1    16    1
   16    14    16    1
   17    14    17    1
   18    17    18    1
   19    17    19    1
   20    17    20    1
   21    20    21    1
   22    22    23    1
   23    22    24    1
   24    22    25    1
   25    25    26    1
   26    25    27    1
   27    27    28    1
   28    25    29    1
   29    29    30    1
   30    29    31    1
   31    31    32    1
   32     3    33    1
   33    29    33    1
   34    33    34    1
   35    33    35    1
   36    35    36    1
   37    22    37    1
   38    35    37    1
   39    35    38    1
   40    38    39    1
   41    38    40    1
   42    38    41    1
   43    41    42    1
   44    43    44    1
   45    43    45    1
   46    43    46    1
   47    46    47    1
   48    46    48    1
   49    48    49    1
   50    46    50    1
   51    50    51    1
   52    50    52    1
   53    52    53    1
   54    24    54    1
   55    50    54    1
   56    54    55    1
   57    54    56    1
   58    56    57    1
   59    43    58    1
   60    56    58    1
   61    56    59    1
   62    59    60    1
   63    59    61    1
   64    59    62    1
   65    62    63    1
   66    64    65    1
   67    64    66    1
   68    64    67    1
   69    67    68    1
   70    67    69    1
   71    69    70    1
   72    67    71    1
   73    71    72    1
   74    71    73    1
   75    73    74    1
   76    45    75    1
   77    71    75    1
   78    75    76    1
   79    75    77    1
   80    77    78    1
   81    64    79    1
   82    77    79    1
   83    77    80    1
   84    80    81    1
   85    80    82    1
   86    80    83    1
   87    83    84    1
   88    85    86    1
   89    85    87    1
   90    85    88    1
   91    88    89    1
   92    88    90    1
   93    90    91    1
   94    88    92    1
   95    92    93    1
   96    92    94    1
   97    94    95    1
   98    66    96    1
   99    92    96    1
  100    96    97    1
  101    96    98    1
  102    98    99    1
  103    85   100    1
  104    98   100    1
  105    98   101    1
  106   101   102    1
  107   101   103    1
  108   101   104    1
  109   104   105    1
  110   106   107    1
  111    12   108    1
  112   106   108    1
  113   106   109    1
  114   109   110    1
  115   109   111    1
  116   111   112    1
  117   109   113    1
  118   113   114    1
  119   113   115    1
  120   115   116    1
  121    87   117    1
  122   113   117    1
  123   117   118    1
  124   117   119    1
  125   119   120    1
  126   106   121    1
  127   119   121    1
  128   119   122    1
  129   122   123    1
  130   122   124    1
  131   122   125    1
  132   125   126    1
  133   127   128    1
  134   127   129    1
  135   127   130    1
  136   130   131    1
  137   130   132    1
  138   130   133    1
  139   133   134    1
  140   127   135    1
  141   133   135    1
  142   135   136    1
  143   135   137    1
  144   133   138    1
  145   138   139    1
@<TRIPOS>SUBSTRUCTURE
       1 MOL1            1 RESIDUE      1      MOL     
       2 MOL1          139 RESIDUE      1      MOL     
@<SCITEGIC>MOL_PROPERTY
feprocess Rank
SciTegic.value.IntegerValue
141

@<SCITEGIC>MOL_PROPERTY
Conf_Id
SciTegic.value.IntegerValue
263

@<SCITEGIC>MOL_PROPERTY
Probability
SciTegic.value.DoubleValue
0.01

@<SCITEGIC>MOL_PROPERTY
G
SciTegic.value.DoubleValue
549.728

@<SCITEGIC>MOL_PROPERTY
E
SciTegic.value.DoubleValue
371.817

@<SCITEGIC>MOL_PROPERTY
-TS
SciTegic.value.DoubleValue
177.911

@<SCITEGIC>MOL_PROPERTY
U+W
SciTegic.value.DoubleValue
249.306

@<SCITEGIC>MOL_PROPERTY
U
SciTegic.value.DoubleValue
284.977

@<SCITEGIC>MOL_PROPERTY
W
SciTegic.value.DoubleValue
-35.671

@<SCITEGIC>MOL_PROPERTY
W(PB)
SciTegic.value.DoubleValue
-41.610

@<SCITEGIC>MOL_PROPERTY
W(SA)
SciTegic.value.DoubleValue
5.939

@<SCITEGIC>MOL_PROPERTY
Valence
SciTegic.value.DoubleValue
154.253

@<SCITEGIC>MOL_PROPERTY
Coulomb
SciTegic.value.DoubleValue
153.001

@<SCITEGIC>MOL_PROPERTY
VdW
SciTegic.value.DoubleValue
-22.277

@<SCITEGIC>MOL_PROPERTY
VdW6
SciTegic.value.DoubleValue
-169.486

@<SCITEGIC>MOL_PROPERTY
VdW12
SciTegic.value.DoubleValue
147.209

@<SCITEGIC>MOL_PROPERTY
Bond
SciTegic.value.DoubleValue
4.645

@<SCITEGIC>MOL_PROPERTY
Angle
SciTegic.value.DoubleValue
11.272

@<SCITEGIC>MOL_PROPERTY
Pdih
SciTegic.value.DoubleValue
138.336

@<SCITEGIC>MOL_PROPERTY
Idih
SciTegic.value.DoubleValue
0.000

@<SCITEGIC>MOL_PROPERTY
Tether
SciTegic.value.DoubleValue
0.000

@<TRIPOS>MOLECULE
CD_guest-s16_fast_vm2_rndm.mol2 : feprocess host+ligand conformer 142
         139         145           2
SMALL
USER_CHARGES
 
@<TRIPOS>ATOM
       1    C1      16.071516   15.158487   21.605560 C.3        1 MOL1         0.2972
       2    H1      14.984179   15.018636   21.661144 H          1 MOL1         0.0751
       3    O1      16.424430   16.546650   21.448099 O.3        1 MOL1        -0.3740
       4    C2      16.733214   14.637415   22.902681 C.3        1 MOL1         0.1003
       5    H2      16.529127   13.561147   22.974439 H          1 MOL1         0.0783
       6    O2      16.183065   15.306808   24.048406 O.3        1 MOL1        -0.5519
       7    H3      15.848486   16.182627   23.735004 H          1 MOL1         0.3769
       8    C3      18.263920   14.835911   22.844471 C.3        1 MOL1         0.1053
       9    H4      18.456518   15.914184   22.871433 H          1 MOL1         0.0783
      10    O3      18.876966   14.213928   23.978450 O.3        1 MOL1        -0.5519
      11    H5      18.327371   14.489102   24.745934 H          1 MOL1         0.3769
      12    C4      18.871410   14.264059   21.539191 C.3        1 MOL1         0.1018
      13    H6      18.956677   13.174349   21.645299 H          1 MOL1         0.0783
      14    C5      18.048581   14.621278   20.266498 C.3        1 MOL1         0.1043
      15    H7      18.234747   15.678993   20.042259 H          1 MOL1         0.0783
      16    O4      16.627797   14.429335   20.493075 O.3        1 MOL1        -0.3740
      17    C6      18.453694   13.811244   19.011655 C.3        1 MOL1         0.0138
      18    H8      19.439599   14.157830   18.673949 H          1 MOL1         0.0794
      19    H9      17.739359   14.031036   18.206790 H          1 MOL1         0.0794
      20    O5      18.495123   12.402404   19.269555 O.3        1 MOL1        -0.5486
      21    H10     18.678445   11.948733   18.417966 H          1 MOL1         0.3769
      22    C7      14.818910   20.226256   20.341271 C.3        1 MOL1         0.2972
      23    H11     14.193405   21.034441   19.942838 H          1 MOL1         0.0751
      24    O6      16.133470   20.709019   20.696277 O.3        1 MOL1        -0.3740
      25    C8      14.129889   19.527496   21.548763 C.3        1 MOL1         0.1003
      26    H12     13.199424   19.086737   21.167610 H          1 MOL1         0.0783
      27    O7      13.795704   20.447728   22.597425 O.3        1 MOL1        -0.5519
      28    H13     14.650683   20.731951   23.008238 H          1 MOL1         0.3769
      29    C9      15.008985   18.370336   22.083875 C.3        1 MOL1         0.1053
      30    H14     15.936511   18.794400   22.491397 H          1 MOL1         0.0783
      31    O8      14.307548   17.659587   23.109985 O.3        1 MOL1        -0.5519
      32    H15     13.923655   18.353364   23.690688 H          1 MOL1         0.3769
      33    C10     15.384899   17.399753   20.938967 C.3        1 MOL1         0.1018
      34    H16     14.487281   16.834874   20.654813 H          1 MOL1         0.0783
      35    C11     15.933840   18.144076   19.689494 C.3        1 MOL1         0.1043
      36    H17     16.909325   18.576323   19.947711 H          1 MOL1         0.0783
      37    O9      15.013524   19.208950   19.331940 O.3        1 MOL1        -0.3740
      38    C12     16.162226   17.244772   18.445736 C.3        1 MOL1         0.0138
      39    H18     17.191573   16.866691   18.474165 H          1 MOL1         0.0794
      40    H19     16.080900   17.867870   17.545091 H          1 MOL1         0.0794
      41    O10     15.251038   16.142073   18.363340 O.3        1 MOL1        -0.5486
      42    H20     15.547381   15.472498   19.023251 H          1 MOL1         0.3769
      43    C13     18.539643   23.764947   22.002765 C.3        1 MOL1         0.2972
      44    H21     18.977682   24.690098   22.397164 H          1 MOL1         0.0751
      45    O11     19.533157   22.937628   21.365308 O.3        1 MOL1        -0.3740
      46    C14     17.885798   22.952807   23.148836 C.3        1 MOL1         0.1003
      47    H22     17.142335   23.603471   23.627046 H          1 MOL1         0.0783
      48    O12     18.874574   22.556839   24.117837 O.3        1 MOL1        -0.5519
      49    H23     19.586165   23.240429   24.095512 H          1 MOL1         0.3769
      50    C15     17.158676   21.700110   22.605079 C.3        1 MOL1         0.1053
      51    H24     17.932467   20.991404   22.288798 H          1 MOL1         0.0783
      52    O13     16.365085   21.120581   23.646776 O.3        1 MOL1        -0.5519
      53    H25     17.010142   20.735943   24.287724 H          1 MOL1         0.3769
      54    C16     16.267201   21.980193   21.368000 C.3        1 MOL1         0.1018
      55    H26     15.303848   22.383019   21.703367 H          1 MOL1         0.0783
      56    C17     16.926592   22.950234   20.348942 C.3        1 MOL1         0.1043
      57    H27     17.713946   22.398836   19.818403 H          1 MOL1         0.0783
      58    O14     17.520542   24.079691   21.032287 O.3        1 MOL1        -0.3740
      59    C18     15.944872   23.485187   19.277832 C.3        1 MOL1         0.0138
      60    H28     15.619625   22.646833   18.647172 H          1 MOL1         0.0794
      61    H29     16.489254   24.183643   18.628507 H          1 MOL1         0.0794
      62    O15     14.805006   24.140888   19.850160 O.3        1 MOL1        -0.5486
      63    H30     14.266356   23.471755   20.321045 H          1 MOL1         0.3769
      64    C19     23.689608   22.808837   21.068925 C.3        1 MOL1         0.2972
      65    H31     24.748835   23.008320   20.861526 H          1 MOL1         0.0751
      66    O16     23.464147   21.442029   21.460420 O.3        1 MOL1        -0.3740
      67    C20     23.162075   23.713596   22.211426 C.3        1 MOL1         0.1003
      68    H32     23.253715   24.754251   21.874027 H          1 MOL1         0.0783
      69    O17     23.932757   23.540940   23.411315 O.3        1 MOL1        -0.5519
      70    H33     24.039931   22.566993   23.559781 H          1 MOL1         0.3769
      71    C21     21.662594   23.430165   22.483534 C.3        1 MOL1         0.1053
      72    H34     21.575482   22.406966   22.871280 H          1 MOL1         0.0783
      73    O18     21.190572   24.356629   23.468293 O.3        1 MOL1        -0.5519
      74    H35     21.924113   24.423248   24.121510 H          1 MOL1         0.3769
      75    C22     20.832853   23.530121   21.170029 C.3        1 MOL1         0.1018
      76    H36     20.748024   24.585342   20.880735 H          1 MOL1         0.0783
      77    C23     21.485984   22.733597   20.007175 C.3        1 MOL1         0.1043
      78    H37     21.393300   21.662867   20.231745 H          1 MOL1         0.0783
      79    O19     22.888898   23.077487   19.897703 O.3        1 MOL1        -0.3740
      80    C24     20.805902   22.963598   18.634329 C.3        1 MOL1         0.0138
      81    H38     19.854542   22.415299   18.621220 H          1 MOL1         0.0794
      82    H39     21.441141   22.526110   17.852804 H          1 MOL1         0.0794
      83    O20     20.566879   24.348890   18.356697 O.3        1 MOL1        -0.5486
      84    H40     19.836942   24.643750   18.942993 H          1 MOL1         0.3769
      85    C25     25.060032   17.706947   21.890656 C.3        1 MOL1         0.2972
      86    H41     25.668927   16.799794   21.997962 H          1 MOL1         0.0751
      87    O21     23.659426   17.394069   21.751463 O.3        1 MOL1        -0.3740
      88    C26     25.237450   18.604659   23.136509 C.3        1 MOL1         0.1003
      89    H42     26.293758   18.899045   23.188358 H          1 MOL1         0.0783
      90    O22     24.881897   17.886034   24.328965 O.3        1 MOL1        -0.5519
      91    H43     24.361998   17.095079   24.042875 H          1 MOL1         0.3769
      92    C27     24.385375   19.885601   23.003929 C.3        1 MOL1         0.1053
      93    H44     23.333208   19.587192   23.041960 H          1 MOL1         0.0783
      94    O23     24.670437   20.766315   24.094526 O.3        1 MOL1        -0.5519
      95    H45     24.664905   20.188932   24.890657 H          1 MOL1         0.3769
      96    C28     24.621675   20.609583   21.655577 C.3        1 MOL1         0.1018
      97    H46     25.550275   21.191304   21.725036 H          1 MOL1         0.0783
      98    C29     24.674268   19.642437   20.438160 C.3        1 MOL1         0.1043
      99    H47     23.644565   19.331834   20.224429 H          1 MOL1         0.0783
     100    O24     25.467692   18.463060   20.731967 O.3        1 MOL1        -0.3740
     101    C30     25.227788   20.301531   19.152583 C.3        1 MOL1         0.0138
     102    H48     24.494563   21.036619   18.793980 H          1 MOL1         0.0794
     103    H49     25.323950   19.531045   18.375738 H          1 MOL1         0.0794
     104    O25     26.488970   20.943566   19.377397 O.3        1 MOL1        -0.5486
     105    H50     26.807764   21.284729   18.513346 H          1 MOL1         0.3769
     106    C31     21.238996   14.070962   20.936838 C.3        1 MOL1         0.2972
     107    H51     20.881986   13.094587   20.584385 H          1 MOL1         0.0751
     108    O26     20.156814   14.897555   21.402753 O.3        1 MOL1        -0.3740
     109    C32     22.241270   13.905313   22.110975 C.3        1 MOL1         0.1003
     110    H52     23.075606   13.291992   21.746655 H          1 MOL1         0.0783
     111    O27     21.623567   13.246170   23.228670 O.3        1 MOL1        -0.5519
     112    H53     20.762407   13.703472   23.404458 H          1 MOL1         0.3769
     113    C33     22.810770   15.279277   22.545680 C.3        1 MOL1         0.1053
     114    H54     21.989671   15.865926   22.978142 H          1 MOL1         0.0783
     115    O28     23.839515   15.090630   23.523034 O.3        1 MOL1        -0.5519
     116    H55     23.481189   14.418758   24.145373 H          1 MOL1         0.3769
     117    C34     23.369543   16.051189   21.325471 C.3        1 MOL1         0.1018
     118    H56     24.267382   15.533649   20.962094 H          1 MOL1         0.0783
     119    C35     22.334390   16.124125   20.172795 C.3        1 MOL1         0.1043
     120    H57     21.475527   16.717836   20.511676 H          1 MOL1         0.0783
     121    O29     21.902144   14.776830   19.863342 O.3        1 MOL1        -0.3740
     122    C36     22.860181   16.787840   18.873065 C.3        1 MOL1         0.0138
     123    H58     22.662050   17.865257   18.929125 H          1 MOL1         0.0794
     124    H59     22.277720   16.404471   18.024717 H          1 MOL1         0.0794
     125    O30     24.258636   16.567748   18.648262 O.3        1 MOL1        -0.5486
     126    H60     24.750243   17.104689   19.312836 H          1 MOL1         0.3769
     127    C1      20.572665   19.539406   22.437256 C.3        1 MOL1        -0.1693
     128    H1      21.322001   19.444519   21.643069 H          1 MOL1         0.0829
     129    H2      20.258698   20.586619   22.497201 H          1 MOL1         0.0829
     130    C2      20.941192   18.884292   23.810954 C.3        1 MOL1        -0.1768
     131    H3      21.586277   18.002057   23.735723 H          1 MOL1         0.0829
     132    H4      21.360000   19.556283   24.568336 H          1 MOL1         0.0829
     133    C3      19.426141   18.555127   23.957390 C.3        1 MOL1         0.1211
     134    H5      19.206071   17.597827   24.446230 H          1 MOL1         0.0786
     135    C4      19.398714   18.509604   22.396143 C.3        1 MOL1        -0.1768
     136    H6      19.677349   17.541734   21.966827 H          1 MOL1         0.0829
     137    H7      18.469181   18.841081   21.922947 H          1 MOL1         0.0829
     138    O1      18.666746   19.583911   24.556407 O.3        1 MOL1        -0.5515
     139    H8      19.082561   20.439986   24.302193 H          1 MOL1         0.3773
@<TRIPOS>BOND
    1     1     2    1
    2     1     3    1
    3     1     4    1
    4     4     5    1
    5     4     6    1
    6     6     7    1
    7     4     8    1
    8     8     9    1
    9     8    10    1
   10    10    11    1
   11     8    12    1
   12    12    13    1
   13    12    14    1
   14    14    15    1
   15     1    16    1
   16    14    16    1
   17    14    17    1
   18    17    18    1
   19    17    19    1
   20    17    20    1
   21    20    21    1
   22    22    23    1
   23    22    24    1
   24    22    25    1
   25    25    26    1
   26    25    27    1
   27    27    28    1
   28    25    29    1
   29    29    30    1
   30    29    31    1
   31    31    32    1
   32     3    33    1
   33    29    33    1
   34    33    34    1
   35    33    35    1
   36    35    36    1
   37    22    37    1
   38    35    37    1
   39    35    38    1
   40    38    39    1
   41    38    40    1
   42    38    41    1
   43    41    42    1
   44    43    44    1
   45    43    45    1
   46    43    46    1
   47    46    47    1
   48    46    48    1
   49    48    49    1
   50    46    50    1
   51    50    51    1
   52    50    52    1
   53    52    53    1
   54    24    54    1
   55    50    54    1
   56    54    55    1
   57    54    56    1
   58    56    57    1
   59    43    58    1
   60    56    58    1
   61    56    59    1
   62    59    60    1
   63    59    61    1
   64    59    62    1
   65    62    63    1
   66    64    65    1
   67    64    66    1
   68    64    67    1
   69    67    68    1
   70    67    69    1
   71    69    70    1
   72    67    71    1
   73    71    72    1
   74    71    73    1
   75    73    74    1
   76    45    75    1
   77    71    75    1
   78    75    76    1
   79    75    77    1
   80    77    78    1
   81    64    79    1
   82    77    79    1
   83    77    80    1
   84    80    81    1
   85    80    82    1
   86    80    83    1
   87    83    84    1
   88    85    86    1
   89    85    87    1
   90    85    88    1
   91    88    89    1
   92    88    90    1
   93    90    91    1
   94    88    92    1
   95    92    93    1
   96    92    94    1
   97    94    95    1
   98    66    96    1
   99    92    96    1
  100    96    97    1
  101    96    98    1
  102    98    99    1
  103    85   100    1
  104    98   100    1
  105    98   101    1
  106   101   102    1
  107   101   103    1
  108   101   104    1
  109   104   105    1
  110   106   107    1
  111    12   108    1
  112   106   108    1
  113   106   109    1
  114   109   110    1
  115   109   111    1
  116   111   112    1
  117   109   113    1
  118   113   114    1
  119   113   115    1
  120   115   116    1
  121    87   117    1
  122   113   117    1
  123   117   118    1
  124   117   119    1
  125   119   120    1
  126   106   121    1
  127   119   121    1
  128   119   122    1
  129   122   123    1
  130   122   124    1
  131   122   125    1
  132   125   126    1
  133   127   128    1
  134   127   129    1
  135   127   130    1
  136   130   131    1
  137   130   132    1
  138   130   133    1
  139   133   134    1
  140   127   135    1
  141   133   135    1
  142   135   136    1
  143   135   137    1
  144   133   138    1
  145   138   139    1
@<TRIPOS>SUBSTRUCTURE
       1 MOL1            1 RESIDUE      1      MOL     
       2 MOL1          139 RESIDUE      1      MOL     
@<SCITEGIC>MOL_PROPERTY
feprocess Rank
SciTegic.value.IntegerValue
142

@<SCITEGIC>MOL_PROPERTY
Conf_Id
SciTegic.value.IntegerValue
380

@<SCITEGIC>MOL_PROPERTY
Probability
SciTegic.value.DoubleValue
0.01

@<SCITEGIC>MOL_PROPERTY
G
SciTegic.value.DoubleValue
549.739

@<SCITEGIC>MOL_PROPERTY
E
SciTegic.value.DoubleValue
370.782

@<SCITEGIC>MOL_PROPERTY
-TS
SciTegic.value.DoubleValue
178.957

@<SCITEGIC>MOL_PROPERTY
U+W
SciTegic.value.DoubleValue
248.271

@<SCITEGIC>MOL_PROPERTY
U
SciTegic.value.DoubleValue
285.333

@<SCITEGIC>MOL_PROPERTY
W
SciTegic.value.DoubleValue
-37.061

@<SCITEGIC>MOL_PROPERTY
W(PB)
SciTegic.value.DoubleValue
-43.069

@<SCITEGIC>MOL_PROPERTY
W(SA)
SciTegic.value.DoubleValue
6.008

@<SCITEGIC>MOL_PROPERTY
Valence
SciTegic.value.DoubleValue
153.932

@<SCITEGIC>MOL_PROPERTY
Coulomb
SciTegic.value.DoubleValue
150.353

@<SCITEGIC>MOL_PROPERTY
VdW
SciTegic.value.DoubleValue
-18.953

@<SCITEGIC>MOL_PROPERTY
VdW6
SciTegic.value.DoubleValue
-167.517

@<SCITEGIC>MOL_PROPERTY
VdW12
SciTegic.value.DoubleValue
148.565

@<SCITEGIC>MOL_PROPERTY
Bond
SciTegic.value.DoubleValue
4.673

@<SCITEGIC>MOL_PROPERTY
Angle
SciTegic.value.DoubleValue
12.613

@<SCITEGIC>MOL_PROPERTY
Pdih
SciTegic.value.DoubleValue
136.646

@<SCITEGIC>MOL_PROPERTY
Idih
SciTegic.value.DoubleValue
0.000

@<SCITEGIC>MOL_PROPERTY
Tether
SciTegic.value.DoubleValue
0.000

@<TRIPOS>MOLECULE
CD_guest-s16_fast_vm2_rndm.mol2 : feprocess host+ligand conformer 143
         139         145           2
SMALL
USER_CHARGES
 
@<TRIPOS>ATOM
       1    C1      16.276761   15.273753   21.025530 C.3        1 MOL1         0.2972
       2    H1      15.248949   15.031741   20.726499 H          1 MOL1         0.0751
       3    O1      16.424351   16.675499   21.323852 O.3        1 MOL1        -0.3740
       4    C2      16.642977   14.485055   22.308470 C.3        1 MOL1         0.1003
       5    H2      16.521216   13.416354   22.089018 H          1 MOL1         0.0783
       6    O2      15.765933   14.854026   23.384957 O.3        1 MOL1        -0.5519
       7    H3      15.516161   15.798996   23.236589 H          1 MOL1         0.3769
       8    C3      18.117883   14.728922   22.706198 C.3        1 MOL1         0.1053
       9    H4      18.218048   15.780249   23.004069 H          1 MOL1         0.0783
      10    O3      18.471587   13.876472   23.800277 O.3        1 MOL1        -0.5519
      11    H5      17.718908   13.944524   24.429519 H          1 MOL1         0.3769
      12    C4      19.055162   14.472043   21.502809 C.3        1 MOL1         0.1018
      13    H6      19.045419   13.398563   21.271444 H          1 MOL1         0.0783
      14    C5      18.595929   15.259323   20.246765 C.3        1 MOL1         0.1043
      15    H7      18.683030   16.332558   20.461424 H          1 MOL1         0.0783
      16    O4      17.209353   14.931053   19.975658 O.3        1 MOL1        -0.3740
      17    C6      19.430207   14.979623   18.969071 C.3        1 MOL1         0.0138
      18    H8      20.271587   15.682920   18.942099 H          1 MOL1         0.0794
      19    H9      18.808878   15.196589   18.090061 H          1 MOL1         0.0794
      20    O5      19.925374   13.636994   18.898039 O.3        1 MOL1        -0.5486
      21    H10     20.658401   13.561211   19.552739 H          1 MOL1         0.3769
      22    C7      14.835365   20.404099   20.362003 C.3        1 MOL1         0.2972
      23    H11     14.242490   21.242685   19.974525 H          1 MOL1         0.0751
      24    O6      16.077195   20.851074   20.937721 O.3        1 MOL1        -0.3740
      25    C8      14.048110   19.595184   21.427978 C.3        1 MOL1         0.1003
      26    H12     13.160521   19.182830   20.930682 H          1 MOL1         0.0783
      27    O7      13.623869   20.423044   22.521541 O.3        1 MOL1        -0.5519
      28    H13     14.437640   20.817204   22.926124 H          1 MOL1         0.3769
      29    C9      14.900336   18.407999   21.941508 C.3        1 MOL1         0.1053
      30    H14     15.764865   18.814060   22.485060 H          1 MOL1         0.0783
      31    O8      14.115569   17.593935   22.819993 O.3        1 MOL1        -0.5519
      32    H15     13.653172   18.226405   23.413644 H          1 MOL1         0.3769
      33    C10     15.425576   17.549464   20.763735 C.3        1 MOL1         0.1018
      34    H16     14.576506   16.992683   20.346113 H          1 MOL1         0.0783
      35    C11     16.076452   18.416335   19.646737 C.3        1 MOL1         0.1043
      36    H17     17.006974   18.843500   20.040737 H          1 MOL1         0.0783
      37    O9      15.168278   19.490807   19.292934 O.3        1 MOL1        -0.3740
      38    C12     16.456132   17.654174   18.351623 C.3        1 MOL1         0.0138
      39    H18     17.467162   17.246188   18.472444 H          1 MOL1         0.0794
      40    H19     16.502843   18.374989   17.524439 H          1 MOL1         0.0794
      41    O10     15.548184   16.595514   18.028791 O.3        1 MOL1        -0.5486
      42    H20     15.865330   15.798623   18.511758 H          1 MOL1         0.3769
      43    C13     18.412915   23.954299   22.117393 C.3        1 MOL1         0.2972
      44    H21     18.890244   24.888939   22.439474 H          1 MOL1         0.0751
      45    O11     19.387112   22.954996   21.762736 O.3        1 MOL1        -0.3740
      46    C14     17.530703   23.393683   23.256219 C.3        1 MOL1         0.1003
      47    H22     16.759483   24.143261   23.476563 H          1 MOL1         0.0783
      48    O12     18.316832   23.145947   24.434378 O.3        1 MOL1        -0.5519
      49    H23     19.189775   23.594040   24.303887 H          1 MOL1         0.3769
      50    C15     16.835995   22.087566   22.815263 C.3        1 MOL1         0.1053
      51    H24     17.613338   21.322977   22.728824 H          1 MOL1         0.0783
      52    O13     15.895218   21.688872   23.816255 O.3        1 MOL1        -0.5519
      53    H25     16.367518   21.813592   24.669975 H          1 MOL1         0.3769
      54    C16     16.143549   22.200881   21.433388 C.3        1 MOL1         0.1018
      55    H26     15.149649   22.648325   21.566348 H          1 MOL1         0.0783
      56    C17     16.970099   23.000724   20.383885 C.3        1 MOL1         0.1043
      57    H27     17.770508   22.342045   20.025139 H          1 MOL1         0.0783
      58    O14     17.570550   24.183505   20.969865 O.3        1 MOL1        -0.3740
      59    C18     16.149416   23.426270   19.143296 C.3        1 MOL1         0.0138
      60    H28     15.918120   22.528790   18.553798 H          1 MOL1         0.0794
      61    H29     16.773955   24.076027   18.515419 H          1 MOL1         0.0794
      62    O15     14.935831   24.097524   19.503101 O.3        1 MOL1        -0.5486
      63    H30     14.509098   24.407128   18.674292 H          1 MOL1         0.3769
      64    C19     23.542332   22.711910   21.305873 C.3        1 MOL1         0.2972
      65    H31     24.586272   22.967047   21.083451 H          1 MOL1         0.0751
      66    O16     23.405835   21.321449   21.658952 O.3        1 MOL1        -0.3740
      67    C20     23.049408   23.548242   22.515310 C.3        1 MOL1         0.1003
      68    H32     23.164325   24.608400   22.254776 H          1 MOL1         0.0783
      69    O17     23.844122   23.254502   23.674941 O.3        1 MOL1        -0.5519
      70    H33     24.065311   22.293342   23.624278 H          1 MOL1         0.3769
      71    C21     21.551469   23.286002   22.805896 C.3        1 MOL1         0.1053
      72    H34     21.450379   22.249477   23.152018 H          1 MOL1         0.0783
      73    O18     21.094213   24.189992   23.819682 O.3        1 MOL1        -0.5519
      74    H35     21.782308   24.148924   24.521127 H          1 MOL1         0.3769
      75    C22     20.713275   23.451481   21.514908 C.3        1 MOL1         0.1018
      76    H36     20.702973   24.512069   21.230439 H          1 MOL1         0.0783
      77    C23     21.299510   22.625092   20.342378 C.3        1 MOL1         0.1043
      78    H37     21.225963   21.560629   20.602326 H          1 MOL1         0.0783
      79    O19     22.693208   22.984755   20.167583 O.3        1 MOL1        -0.3740
      80    C24     20.551211   22.819696   18.996939 C.3        1 MOL1         0.0138
      81    H38     19.734341   22.088252   18.949082 H          1 MOL1         0.0794
      82    H39     21.237604   22.584605   18.172805 H          1 MOL1         0.0794
      83    O20     20.019190   24.140537   18.831241 O.3        1 MOL1        -0.5486
      84    H40     19.309430   24.256992   19.503580 H          1 MOL1         0.3769
      85    C25     25.036985   17.560566   20.897315 C.3        1 MOL1         0.2972
      86    H41     25.658191   16.716796   20.569962 H          1 MOL1         0.0751
      87    O21     23.772116   17.121344   21.424804 O.3        1 MOL1        -0.3740
      88    C26     25.750195   18.389775   21.995976 C.3        1 MOL1         0.1003
      89    H42     26.683904   18.772088   21.563470 H          1 MOL1         0.0783
      90    O22     26.059313   17.578875   23.141046 O.3        1 MOL1        -0.5519
      91    H43     25.226637   17.112673   23.408148 H          1 MOL1         0.3769
      92    C27     24.883090   19.604625   22.411752 C.3        1 MOL1         0.1053
      93    H44     23.984064   19.226323   22.918173 H          1 MOL1         0.0783
      94    O23     25.627446   20.437246   23.307743 O.3        1 MOL1        -0.5519
      95    H45     26.026022   19.820300   23.960823 H          1 MOL1         0.3769
      96    C28     24.432500   20.430347   21.179240 C.3        1 MOL1         0.1018
      97    H46     25.305349   20.975491   20.796910 H          1 MOL1         0.0783
      98    C29     23.844882   19.527858   20.053885 C.3        1 MOL1         0.1043
      99    H47     22.892358   19.113747   20.406393 H          1 MOL1         0.0783
     100    O24     24.767789   18.443064   19.787154 O.3        1 MOL1        -0.3740
     101    C30     23.548776   20.239693   18.709482 C.3        1 MOL1         0.0138
     102    H48     22.527710   20.637296   18.743799 H          1 MOL1         0.0794
     103    H49     23.567089   19.489849   17.907347 H          1 MOL1         0.0794
     104    O25     24.467149   21.296478   18.411574 O.3        1 MOL1        -0.5486
     105    H50     24.116386   22.102929   18.854192 H          1 MOL1         0.3769
     106    C31     21.348633   13.894815   22.078527 C.3        1 MOL1         0.2972
     107    H51     20.876651   12.919346   22.253760 H          1 MOL1         0.0751
     108    O26     20.367655   14.931847   21.872459 O.3        1 MOL1        -0.3740
     109    C32     22.220637   14.276794   23.297139 C.3        1 MOL1         0.1003
     110    H52     23.006504   13.516586   23.395289 H          1 MOL1         0.0783
     111    O27     21.428384   14.301472   24.495473 O.3        1 MOL1        -0.5519
     112    H53     20.483205   14.378282   24.214034 H          1 MOL1         0.3769
     113    C33     22.900962   15.644621   23.071510 C.3        1 MOL1         0.1053
     114    H54     22.116167   16.407848   23.075957 H          1 MOL1         0.0783
     115    O28     23.823670   15.903329   24.134341 O.3        1 MOL1        -0.5519
     116    H55     23.328846   15.683834   24.955273 H          1 MOL1         0.3769
     117    C34     23.630456   15.717568   21.707282 C.3        1 MOL1         0.1018
     118    H56     24.600534   15.211445   21.800361 H          1 MOL1         0.0783
     119    C35     22.808597   15.109578   20.533733 C.3        1 MOL1         0.1043
     120    H57     22.015641   15.825380   20.285262 H          1 MOL1         0.0783
     121    O29     22.200102   13.848782   20.915691 O.3        1 MOL1        -0.3740
     122    C36     23.636839   14.884433   19.246294 C.3        1 MOL1         0.0138
     123    H58     23.875917   15.863269   18.809035 H          1 MOL1         0.0794
     124    H59     23.014898   14.346097   18.518399 H          1 MOL1         0.0794
     125    O30     24.845248   14.158572   19.502911 O.3        1 MOL1        -0.5486
     126    H60     25.278522   13.985746   18.638582 H          1 MOL1         0.3769
     127    C1      20.711190   18.669908   22.317697 C.3        1 MOL1        -0.1693
     128    H1      20.985739   17.886822   21.602310 H          1 MOL1         0.0829
     129    H2      21.499715   19.432103   22.331221 H          1 MOL1         0.0829
     130    C2      20.265908   18.186095   23.737364 C.3        1 MOL1        -0.1768
     131    H3      19.774486   17.208090   23.753979 H          1 MOL1         0.0829
     132    H4      21.040545   18.199724   24.511877 H          1 MOL1         0.0829
     133    C3      19.288327   19.400403   23.741871 C.3        1 MOL1         0.1211
     134    H5      18.328762   19.212202   24.239919 H          1 MOL1         0.0786
     135    C4      19.263281   19.239875   22.187623 C.3        1 MOL1        -0.1768
     136    H6      19.168383   20.161109   21.604000 H          1 MOL1         0.0829
     137    H7      18.522204   18.517025   21.829039 H          1 MOL1         0.0829
     138    O1      19.858693   20.598617   24.227936 O.3        1 MOL1        -0.5515
     139    H8      19.192742   21.317967   24.155972 H          1 MOL1         0.3773
@<TRIPOS>BOND
    1     1     2    1
    2     1     3    1
    3     1     4    1
    4     4     5    1
    5     4     6    1
    6     6     7    1
    7     4     8    1
    8     8     9    1
    9     8    10    1
   10    10    11    1
   11     8    12    1
   12    12    13    1
   13    12    14    1
   14    14    15    1
   15     1    16    1
   16    14    16    1
   17    14    17    1
   18    17    18    1
   19    17    19    1
   20    17    20    1
   21    20    21    1
   22    22    23    1
   23    22    24    1
   24    22    25    1
   25    25    26    1
   26    25    27    1
   27    27    28    1
   28    25    29    1
   29    29    30    1
   30    29    31    1
   31    31    32    1
   32     3    33    1
   33    29    33    1
   34    33    34    1
   35    33    35    1
   36    35    36    1
   37    22    37    1
   38    35    37    1
   39    35    38    1
   40    38    39    1
   41    38    40    1
   42    38    41    1
   43    41    42    1
   44    43    44    1
   45    43    45    1
   46    43    46    1
   47    46    47    1
   48    46    48    1
   49    48    49    1
   50    46    50    1
   51    50    51    1
   52    50    52    1
   53    52    53    1
   54    24    54    1
   55    50    54    1
   56    54    55    1
   57    54    56    1
   58    56    57    1
   59    43    58    1
   60    56    58    1
   61    56    59    1
   62    59    60    1
   63    59    61    1
   64    59    62    1
   65    62    63    1
   66    64    65    1
   67    64    66    1
   68    64    67    1
   69    67    68    1
   70    67    69    1
   71    69    70    1
   72    67    71    1
   73    71    72    1
   74    71    73    1
   75    73    74    1
   76    45    75    1
   77    71    75    1
   78    75    76    1
   79    75    77    1
   80    77    78    1
   81    64    79    1
   82    77    79    1
   83    77    80    1
   84    80    81    1
   85    80    82    1
   86    80    83    1
   87    83    84    1
   88    85    86    1
   89    85    87    1
   90    85    88    1
   91    88    89    1
   92    88    90    1
   93    90    91    1
   94    88    92    1
   95    92    93    1
   96    92    94    1
   97    94    95    1
   98    66    96    1
   99    92    96    1
  100    96    97    1
  101    96    98    1
  102    98    99    1
  103    85   100    1
  104    98   100    1
  105    98   101    1
  106   101   102    1
  107   101   103    1
  108   101   104    1
  109   104   105    1
  110   106   107    1
  111    12   108    1
  112   106   108    1
  113   106   109    1
  114   109   110    1
  115   109   111    1
  116   111   112    1
  117   109   113    1
  118   113   114    1
  119   113   115    1
  120   115   116    1
  121    87   117    1
  122   113   117    1
  123   117   118    1
  124   117   119    1
  125   119   120    1
  126   106   121    1
  127   119   121    1
  128   119   122    1
  129   122   123    1
  130   122   124    1
  131   122   125    1
  132   125   126    1
  133   127   128    1
  134   127   129    1
  135   127   130    1
  136   130   131    1
  137   130   132    1
  138   130   133    1
  139   133   134    1
  140   127   135    1
  141   133   135    1
  142   135   136    1
  143   135   137    1
  144   133   138    1
  145   138   139    1
@<TRIPOS>SUBSTRUCTURE
       1 MOL1            1 RESIDUE      1      MOL     
       2 MOL1          139 RESIDUE      1      MOL     
@<SCITEGIC>MOL_PROPERTY
feprocess Rank
SciTegic.value.IntegerValue
143

@<SCITEGIC>MOL_PROPERTY
Conf_Id
SciTegic.value.IntegerValue
98

@<SCITEGIC>MOL_PROPERTY
Probability
SciTegic.value.DoubleValue
0.01

@<SCITEGIC>MOL_PROPERTY
G
SciTegic.value.DoubleValue
549.745

@<SCITEGIC>MOL_PROPERTY
E
SciTegic.value.DoubleValue
371.588

@<SCITEGIC>MOL_PROPERTY
-TS
SciTegic.value.DoubleValue
178.157

@<SCITEGIC>MOL_PROPERTY
U+W
SciTegic.value.DoubleValue
249.077

@<SCITEGIC>MOL_PROPERTY
U
SciTegic.value.DoubleValue
286.194

@<SCITEGIC>MOL_PROPERTY
W
SciTegic.value.DoubleValue
-37.117

@<SCITEGIC>MOL_PROPERTY
W(PB)
SciTegic.value.DoubleValue
-43.035

@<SCITEGIC>MOL_PROPERTY
W(SA)
SciTegic.value.DoubleValue
5.918

@<SCITEGIC>MOL_PROPERTY
Valence
SciTegic.value.DoubleValue
154.815

@<SCITEGIC>MOL_PROPERTY
Coulomb
SciTegic.value.DoubleValue
152.248

@<SCITEGIC>MOL_PROPERTY
VdW
SciTegic.value.DoubleValue
-20.869

@<SCITEGIC>MOL_PROPERTY
VdW6
SciTegic.value.DoubleValue
-168.414

@<SCITEGIC>MOL_PROPERTY
VdW12
SciTegic.value.DoubleValue
147.546

@<SCITEGIC>MOL_PROPERTY
Bond
SciTegic.value.DoubleValue
4.526

@<SCITEGIC>MOL_PROPERTY
Angle
SciTegic.value.DoubleValue
11.811

@<SCITEGIC>MOL_PROPERTY
Pdih
SciTegic.value.DoubleValue
138.478

@<SCITEGIC>MOL_PROPERTY
Idih
SciTegic.value.DoubleValue
0.000

@<SCITEGIC>MOL_PROPERTY
Tether
SciTegic.value.DoubleValue
0.000

@<TRIPOS>MOLECULE
CD_guest-s16_fast_vm2_rndm.mol2 : feprocess host+ligand conformer 144
         139         145           2
SMALL
USER_CHARGES
 
@<TRIPOS>ATOM
       1    C1      16.235113   15.184523   21.691729 C.3        1 MOL1         0.2972
       2    H1      15.165606   15.055277   21.903188 H          1 MOL1         0.0751
       3    O1      16.583159   16.573133   21.526869 O.3        1 MOL1        -0.3740
       4    C2      17.075313   14.606311   22.853378 C.3        1 MOL1         0.1003
       5    H2      16.867314   13.529843   22.909623 H          1 MOL1         0.0783
       6    O2      16.719098   15.225583   24.100386 O.3        1 MOL1        -0.5519
       7    H3      16.122922   15.985400   23.887513 H          1 MOL1         0.3769
       8    C3      18.582078   14.792435   22.571144 C.3        1 MOL1         0.1053
       9    H4      18.794693   15.867238   22.587617 H          1 MOL1         0.0783
      10    O3      19.335387   14.140038   23.597187 O.3        1 MOL1        -0.5519
      11    H5      18.897497   14.411350   24.435373 H          1 MOL1         0.3769
      12    C4      18.982680   14.253856   21.174101 C.3        1 MOL1         0.1018
      13    H6      19.075462   13.160930   21.226483 H          1 MOL1         0.0783
      14    C5      17.980936   14.661605   20.053539 C.3        1 MOL1         0.1043
      15    H7      18.149708   15.722766   19.831897 H          1 MOL1         0.0783
      16    O4      16.605614   14.488152   20.484149 O.3        1 MOL1        -0.3740
      17    C6      18.183960   13.885176   18.730798 C.3        1 MOL1         0.0138
      18    H8      19.123656   14.219881   18.270909 H          1 MOL1         0.0794
      19    H9      17.371256   14.148888   18.040581 H          1 MOL1         0.0794
      20    O5      18.222408   12.467920   18.937940 O.3        1 MOL1        -0.5486
      21    H10     18.271852   12.038776   18.055807 H          1 MOL1         0.3769
      22    C7      14.716729   20.287830   21.211586 C.3        1 MOL1         0.2972
      23    H11     13.999582   21.095622   21.018136 H          1 MOL1         0.0751
      24    O6      15.993883   20.798249   21.637113 O.3        1 MOL1        -0.3740
      25    C8      14.193752   19.379602   22.352763 C.3        1 MOL1         0.1003
      26    H12     13.226773   18.967360   22.036334 H          1 MOL1         0.0783
      27    O7      14.017404   20.145334   23.555661 O.3        1 MOL1        -0.5519
      28    H13     14.737853   20.822738   23.571469 H          1 MOL1         0.3769
      29    C9      15.163637   18.199840   22.603662 C.3        1 MOL1         0.1053
      30    H14     16.100359   18.609748   23.002798 H          1 MOL1         0.0783
      31    O8      14.588397   17.296284   23.552778 O.3        1 MOL1        -0.5519
      32    H15     14.218057   17.871741   24.259495 H          1 MOL1         0.3769
      33    C10     15.480244   17.460829   21.280620 C.3        1 MOL1         0.1018
      34    H16     14.582540   16.920008   20.952668 H          1 MOL1         0.0783
      35    C11     15.916830   18.438290   20.157746 C.3        1 MOL1         0.1043
      36    H17     16.876424   18.886397   20.446057 H          1 MOL1         0.0783
      37    O9      14.918352   19.481978   20.028266 O.3        1 MOL1        -0.3740
      38    C12     16.133210   17.765866   18.776185 C.3        1 MOL1         0.0138
      39    H18     17.178226   17.436809   18.712441 H          1 MOL1         0.0794
      40    H19     15.989172   18.519943   17.991061 H          1 MOL1         0.0794
      41    O10     15.267627   16.646610   18.547707 O.3        1 MOL1        -0.5486
      42    H20     15.564607   15.920476   19.143334 H          1 MOL1         0.3769
      43    C13     18.469417   24.128827   21.322471 C.3        1 MOL1         0.2972
      44    H21     18.855652   25.142876   21.157989 H          1 MOL1         0.0751
      45    O11     19.530604   23.209657   21.658573 O.3        1 MOL1        -0.3740
      46    C14     17.455271   24.150942   22.493129 C.3        1 MOL1         0.1003
      47    H22     16.661010   24.860907   22.228164 H          1 MOL1         0.0783
      48    O12     18.100603   24.588317   23.699307 O.3        1 MOL1        -0.5519
      49    H23     19.032183   24.263046   23.656261 H          1 MOL1         0.3769
      50    C15     16.803686   22.763812   22.701035 C.3        1 MOL1         0.1053
      51    H24     17.571454   22.081578   23.085331 H          1 MOL1         0.0783
      52    O13     15.739553   22.868448   23.653199 O.3        1 MOL1        -0.5519
      53    H25     16.119262   23.373280   24.406270 H          1 MOL1         0.3769
      54    C16     16.260482   22.186420   21.371594 C.3        1 MOL1         0.1018
      55    H26     15.351961   22.739929   21.100236 H          1 MOL1         0.0783
      56    C17     17.303216   22.282333   20.221972 C.3        1 MOL1         0.1043
      57    H27     18.134478   21.607286   20.461754 H          1 MOL1         0.0783
      58    O14     17.800950   23.641234   20.139737 O.3        1 MOL1        -0.3740
      59    C18     16.780785   21.871604   18.821339 C.3        1 MOL1         0.0138
      60    H28     16.883666   20.784517   18.714904 H          1 MOL1         0.0794
      61    H29     17.426947   22.327366   18.059384 H          1 MOL1         0.0794
      62    O15     15.419145   22.248765   18.593343 O.3        1 MOL1        -0.5486
      63    H30     14.864929   21.490346   18.883208 H          1 MOL1         0.3769
      64    C19     23.622261   22.634327   21.028450 C.3        1 MOL1         0.2972
      65    H31     24.674753   22.731012   20.732257 H          1 MOL1         0.0751
      66    O16     23.323298   21.313818   21.513625 O.3        1 MOL1        -0.3740
      67    C20     23.254208   23.654470   22.138030 C.3        1 MOL1         0.1003
      68    H32     23.437236   24.658363   21.733461 H          1 MOL1         0.0783
      69    O17     24.063473   23.462430   23.309587 O.3        1 MOL1        -0.5519
      70    H33     23.959680   22.516583   23.586750 H          1 MOL1         0.3769
      71    C21     21.752094   23.550201   22.502070 C.3        1 MOL1         0.1053
      72    H34     21.595813   22.583963   22.998882 H          1 MOL1         0.0783
      73    O18     21.398175   24.613002   23.393311 O.3        1 MOL1        -0.5519
      74    H35     22.097752   24.614959   24.083410 H          1 MOL1         0.3769
      75    C22     20.853707   23.607144   21.239145 C.3        1 MOL1         0.1018
      76    H36     20.873178   24.636907   20.858722 H          1 MOL1         0.0783
      77    C23     21.348204   22.641943   20.123583 C.3        1 MOL1         0.1043
      78    H37     21.199222   21.610069   20.467574 H          1 MOL1         0.0783
      79    O19     22.759729   22.878571   19.897157 O.3        1 MOL1        -0.3740
      80    C24     20.620266   22.767093   18.760994 C.3        1 MOL1         0.0138
      81    H38     19.740635   22.112904   18.774249 H          1 MOL1         0.0794
      82    H39     21.285228   22.384093   17.975395 H          1 MOL1         0.0794
      83    O20     20.219646   24.106258   18.451996 O.3        1 MOL1        -0.5486
      84    H40     19.350561   24.248313   18.893252 H          1 MOL1         0.3769
      85    C25     24.863204   17.587127   22.219053 C.3        1 MOL1         0.2972
      86    H41     25.465284   16.696216   22.441049 H          1 MOL1         0.0751
      87    O21     23.522267   17.226002   21.830259 O.3        1 MOL1        -0.3740
      88    C26     24.786184   18.490538   23.473467 C.3        1 MOL1         0.1003
      89    H42     25.809359   18.796212   23.728021 H          1 MOL1         0.0783
      90    O22     24.216652   17.765109   24.572917 O.3        1 MOL1        -0.5519
      91    H43     23.567719   17.139285   24.179270 H          1 MOL1         0.3769
      92    C27     23.960943   19.764903   23.187697 C.3        1 MOL1         0.1053
      93    H44     22.916360   19.464731   23.038697 H          1 MOL1         0.0783
      94    O23     24.050652   20.656004   24.304694 O.3        1 MOL1        -0.5519
      95    H45     23.853810   20.099399   25.090479 H          1 MOL1         0.3769
      96    C28     24.433755   20.488263   21.905015 C.3        1 MOL1         0.1018
      97    H46     25.330913   21.077250   22.138013 H          1 MOL1         0.0783
      98    C29     24.705028   19.519586   20.719623 C.3        1 MOL1         0.1043
      99    H47     23.727513   19.195987   20.346964 H          1 MOL1         0.0783
     100    O24     25.453666   18.352309   21.147493 O.3        1 MOL1        -0.3740
     101    C30     25.453681   20.176182   19.534738 C.3        1 MOL1         0.0138
     102    H48     24.770963   20.875691   19.033799 H          1 MOL1         0.0794
     103    H49     25.711699   19.397082   18.804939 H          1 MOL1         0.0794
     104    O25     26.633167   20.868570   19.961115 O.3        1 MOL1        -0.5486
     105    H50     27.100786   21.184623   19.157257 H          1 MOL1         0.3769
     106    C31     21.293891   14.065130   20.335960 C.3        1 MOL1         0.2972
     107    H51     20.903781   13.173055   19.829103 H          1 MOL1         0.0751
     108    O26     20.231209   14.893783   20.849329 O.3        1 MOL1        -0.3740
     109    C32     22.255019   13.685565   21.493114 C.3        1 MOL1         0.1003
     110    H52     23.109823   13.162837   21.044471 H          1 MOL1         0.0783
     111    O27     21.628472   12.813961   22.445946 O.3        1 MOL1        -0.5519
     112    H53     20.850674   13.300447   22.819632 H          1 MOL1         0.3769
     113    C33     22.789933   14.961654   22.188222 C.3        1 MOL1         0.1053
     114    H54     21.945556   15.455527   22.685563 H          1 MOL1         0.0783
     115    O28     23.776658   14.597217   23.158046 O.3        1 MOL1        -0.5519
     116    H55     23.391812   13.835803   23.645933 H          1 MOL1         0.3769
     117    C34     23.396009   15.954735   21.161577 C.3        1 MOL1         0.1018
     118    H56     24.369669   15.563263   20.839036 H          1 MOL1         0.0783
     119    C35     22.490196   16.158803   19.911098 C.3        1 MOL1         0.1043
     120    H57     21.611794   16.742421   20.215025 H          1 MOL1         0.0783
     121    O29     22.057686   14.868401   19.411366 O.3        1 MOL1        -0.3740
     122    C36     23.154766   16.927240   18.737925 C.3        1 MOL1         0.0138
     123    H58     22.912933   17.992028   18.834512 H          1 MOL1         0.0794
     124    H59     22.696017   16.591963   17.798072 H          1 MOL1         0.0794
     125    O30     24.576377   16.753858   18.673393 O.3        1 MOL1        -0.5486
     126    H60     24.965026   17.191219   19.466512 H          1 MOL1         0.3769
     127    C1      20.403828   18.025813   23.624341 C.3        1 MOL1        -0.1693
     128    H1      20.585050   16.951779   23.734310 H          1 MOL1         0.0829
     129    H2      21.170116   18.568677   24.191059 H          1 MOL1         0.0829
     130    C2      18.943087   18.506032   23.907209 C.3        1 MOL1        -0.1768
     131    H3      18.166517   17.773664   23.663449 H          1 MOL1         0.0829
     132    H4      18.752281   18.894299   24.913441 H          1 MOL1         0.0829
     133    C3      19.185482   19.581325   22.804113 C.3        1 MOL1         0.1211
     134    H5      18.302742   19.814189   22.198670 H          1 MOL1         0.0786
     135    C4      20.167061   18.548682   22.167207 C.3        1 MOL1        -0.1768
     136    H6      21.041419   18.969508   21.659436 H          1 MOL1         0.0829
     137    H7      19.686172   17.825615   21.497868 H          1 MOL1         0.0829
     138    O1      19.784426   20.772401   23.271746 O.3        1 MOL1        -0.5515
     139    H8      19.773235   21.433534   22.548029 H          1 MOL1         0.3773
@<TRIPOS>BOND
    1     1     2    1
    2     1     3    1
    3     1     4    1
    4     4     5    1
    5     4     6    1
    6     6     7    1
    7     4     8    1
    8     8     9    1
    9     8    10    1
   10    10    11    1
   11     8    12    1
   12    12    13    1
   13    12    14    1
   14    14    15    1
   15     1    16    1
   16    14    16    1
   17    14    17    1
   18    17    18    1
   19    17    19    1
   20    17    20    1
   21    20    21    1
   22    22    23    1
   23    22    24    1
   24    22    25    1
   25    25    26    1
   26    25    27    1
   27    27    28    1
   28    25    29    1
   29    29    30    1
   30    29    31    1
   31    31    32    1
   32     3    33    1
   33    29    33    1
   34    33    34    1
   35    33    35    1
   36    35    36    1
   37    22    37    1
   38    35    37    1
   39    35    38    1
   40    38    39    1
   41    38    40    1
   42    38    41    1
   43    41    42    1
   44    43    44    1
   45    43    45    1
   46    43    46    1
   47    46    47    1
   48    46    48    1
   49    48    49    1
   50    46    50    1
   51    50    51    1
   52    50    52    1
   53    52    53    1
   54    24    54    1
   55    50    54    1
   56    54    55    1
   57    54    56    1
   58    56    57    1
   59    43    58    1
   60    56    58    1
   61    56    59    1
   62    59    60    1
   63    59    61    1
   64    59    62    1
   65    62    63    1
   66    64    65    1
   67    64    66    1
   68    64    67    1
   69    67    68    1
   70    67    69    1
   71    69    70    1
   72    67    71    1
   73    71    72    1
   74    71    73    1
   75    73    74    1
   76    45    75    1
   77    71    75    1
   78    75    76    1
   79    75    77    1
   80    77    78    1
   81    64    79    1
   82    77    79    1
   83    77    80    1
   84    80    81    1
   85    80    82    1
   86    80    83    1
   87    83    84    1
   88    85    86    1
   89    85    87    1
   90    85    88    1
   91    88    89    1
   92    88    90    1
   93    90    91    1
   94    88    92    1
   95    92    93    1
   96    92    94    1
   97    94    95    1
   98    66    96    1
   99    92    96    1
  100    96    97    1
  101    96    98    1
  102    98    99    1
  103    85   100    1
  104    98   100    1
  105    98   101    1
  106   101   102    1
  107   101   103    1
  108   101   104    1
  109   104   105    1
  110   106   107    1
  111    12   108    1
  112   106   108    1
  113   106   109    1
  114   109   110    1
  115   109   111    1
  116   111   112    1
  117   109   113    1
  118   113   114    1
  119   113   115    1
  120   115   116    1
  121    87   117    1
  122   113   117    1
  123   117   118    1
  124   117   119    1
  125   119   120    1
  126   106   121    1
  127   119   121    1
  128   119   122    1
  129   122   123    1
  130   122   124    1
  131   122   125    1
  132   125   126    1
  133   127   128    1
  134   127   129    1
  135   127   130    1
  136   130   131    1
  137   130   132    1
  138   130   133    1
  139   133   134    1
  140   127   135    1
  141   133   135    1
  142   135   136    1
  143   135   137    1
  144   133   138    1
  145   138   139    1
@<TRIPOS>SUBSTRUCTURE
       1 MOL1            1 RESIDUE      1      MOL     
       2 MOL1          139 RESIDUE      1      MOL     
@<SCITEGIC>MOL_PROPERTY
feprocess Rank
SciTegic.value.IntegerValue
144

@<SCITEGIC>MOL_PROPERTY
Conf_Id
SciTegic.value.IntegerValue
218

@<SCITEGIC>MOL_PROPERTY
Probability
SciTegic.value.DoubleValue
0.01

@<SCITEGIC>MOL_PROPERTY
G
SciTegic.value.DoubleValue
549.763

@<SCITEGIC>MOL_PROPERTY
E
SciTegic.value.DoubleValue
372.586

@<SCITEGIC>MOL_PROPERTY
-TS
SciTegic.value.DoubleValue
177.178

@<SCITEGIC>MOL_PROPERTY
U+W
SciTegic.value.DoubleValue
250.075

@<SCITEGIC>MOL_PROPERTY
U
SciTegic.value.DoubleValue
287.685

@<SCITEGIC>MOL_PROPERTY
W
SciTegic.value.DoubleValue
-37.610

@<SCITEGIC>MOL_PROPERTY
W(PB)
SciTegic.value.DoubleValue
-43.554

@<SCITEGIC>MOL_PROPERTY
W(SA)
SciTegic.value.DoubleValue
5.944

@<SCITEGIC>MOL_PROPERTY
Valence
SciTegic.value.DoubleValue
153.877

@<SCITEGIC>MOL_PROPERTY
Coulomb
SciTegic.value.DoubleValue
155.418

@<SCITEGIC>MOL_PROPERTY
VdW
SciTegic.value.DoubleValue
-21.610

@<SCITEGIC>MOL_PROPERTY
VdW6
SciTegic.value.DoubleValue
-168.566

@<SCITEGIC>MOL_PROPERTY
VdW12
SciTegic.value.DoubleValue
146.956

@<SCITEGIC>MOL_PROPERTY
Bond
SciTegic.value.DoubleValue
4.461

@<SCITEGIC>MOL_PROPERTY
Angle
SciTegic.value.DoubleValue
11.776

@<SCITEGIC>MOL_PROPERTY
Pdih
SciTegic.value.DoubleValue
137.640

@<SCITEGIC>MOL_PROPERTY
Idih
SciTegic.value.DoubleValue
0.000

@<SCITEGIC>MOL_PROPERTY
Tether
SciTegic.value.DoubleValue
0.000

@<TRIPOS>MOLECULE
CD_guest-s16_fast_vm2_rndm.mol2 : feprocess host+ligand conformer 145
         139         145           2
SMALL
USER_CHARGES
 
@<TRIPOS>ATOM
       1    C1      16.291109   15.153331   21.940737 C.3        1 MOL1         0.2972
       2    H1      15.227615   15.061154   22.196259 H          1 MOL1         0.0751
       3    O1      16.682046   16.530369   21.763451 O.3        1 MOL1        -0.3740
       4    C2      17.153277   14.540090   23.067560 C.3        1 MOL1         0.1003
       5    H2      16.905098   13.472688   23.132769 H          1 MOL1         0.0783
       6    O2      16.868408   15.172807   24.325646 O.3        1 MOL1        -0.5519
       7    H3      16.472827   16.057047   24.122768 H          1 MOL1         0.3769
       8    C3      18.654845   14.663636   22.729725 C.3        1 MOL1         0.1053
       9    H4      18.913085   15.726980   22.760238 H          1 MOL1         0.0783
      10    O3      19.418180   13.961575   23.714763 O.3        1 MOL1        -0.5519
      11    H5      19.028328   14.236735   24.574944 H          1 MOL1         0.3769
      12    C4      18.983387   14.132660   21.310023 C.3        1 MOL1         0.1018
      13    H6      19.055827   13.037610   21.347859 H          1 MOL1         0.0783
      14    C5      17.947650   14.573317   20.233794 C.3        1 MOL1         0.1043
      15    H7      18.140720   15.629225   20.006471 H          1 MOL1         0.0783
      16    O4      16.586888   14.442841   20.721354 O.3        1 MOL1        -0.3740
      17    C6      18.070329   13.794318   18.902743 C.3        1 MOL1         0.0138
      18    H8      19.000676   14.099390   18.404782 H          1 MOL1         0.0794
      19    H9      17.238687   14.086232   18.247312 H          1 MOL1         0.0794
      20    O5      18.070770   12.376026   19.106140 O.3        1 MOL1        -0.5486
      21    H10     18.070942   11.947900   18.222153 H          1 MOL1         0.3769
      22    C7      14.899548   20.293113   21.268369 C.3        1 MOL1         0.2972
      23    H11     14.159196   21.083873   21.091789 H          1 MOL1         0.0751
      24    O6      16.224344   20.836644   21.414748 O.3        1 MOL1        -0.3740
      25    C8      14.557411   19.542687   22.581015 C.3        1 MOL1         0.1003
      26    H12     13.545681   19.130214   22.474768 H          1 MOL1         0.0783
      27    O7      14.586817   20.449860   23.693655 O.3        1 MOL1        -0.5519
      28    H13     15.296001   21.108867   23.497551 H          1 MOL1         0.3769
      29    C9      15.533279   18.365968   22.818496 C.3        1 MOL1         0.1053
      30    H14     16.532272   18.783131   23.003348 H          1 MOL1         0.0783
      31    O8      15.103835   17.605800   23.952716 O.3        1 MOL1        -0.5519
      32    H15     14.896799   18.275573   24.642359 H          1 MOL1         0.3769
      33    C10     15.602548   17.461298   21.565805 C.3        1 MOL1         0.1018
      34    H16     14.636781   16.952848   21.445007 H          1 MOL1         0.0783
      35    C11     15.899339   18.286085   20.285544 C.3        1 MOL1         0.1043
      36    H17     16.900282   18.723948   20.386819 H          1 MOL1         0.0783
      37    O9      14.916746   19.348218   20.173313 O.3        1 MOL1        -0.3740
      38    C12     15.895021   17.461464   18.971545 C.3        1 MOL1         0.0138
      39    H18     16.905475   17.067701   18.805209 H          1 MOL1         0.0794
      40    H19     15.676322   18.137179   18.133937 H          1 MOL1         0.0794
      41    O10     14.957340   16.378479   18.985418 O.3        1 MOL1        -0.5486
      42    H20     15.342888   15.668500   19.549932 H          1 MOL1         0.3769
      43    C13     18.633837   24.046422   20.329088 C.3        1 MOL1         0.2972
      44    H21     19.061375   24.964578   19.907749 H          1 MOL1         0.0751
      45    O11     19.651141   23.207176   20.913112 O.3        1 MOL1        -0.3740
      46    C14     17.536742   24.364257   21.380367 C.3        1 MOL1         0.1003
      47    H22     16.731908   24.891315   20.851485 H          1 MOL1         0.0783
      48    O12     18.024826   25.213619   22.428581 O.3        1 MOL1        -0.5519
      49    H23     18.715485   24.700955   22.919521 H          1 MOL1         0.3769
      50    C15     16.942428   23.053744   21.953889 C.3        1 MOL1         0.1053
      51    H24     17.728876   22.530327   22.516977 H          1 MOL1         0.0783
      52    O13     15.846635   23.364089   22.821599 O.3        1 MOL1        -0.5519
      53    H25     16.172530   24.086034   23.402848 H          1 MOL1         0.3769
      54    C16     16.456928   22.123680   20.812563 C.3        1 MOL1         0.1018
      55    H26     15.539670   22.553256   20.389136 H          1 MOL1         0.0783
      56    C17     17.519626   21.962528   19.686103 C.3        1 MOL1         0.1043
      57    H27     18.357810   21.380023   20.087065 H          1 MOL1         0.0783
      58    O14     17.997932   23.273302   19.287537 O.3        1 MOL1        -0.3740
      59    C18     17.031182   21.215665   18.418141 C.3        1 MOL1         0.0138
      60    H28     17.211284   20.142682   18.555429 H          1 MOL1         0.0794
      61    H29     17.649400   21.532334   17.567528 H          1 MOL1         0.0794
      62    O15     15.646836   21.435244   18.125948 O.3        1 MOL1        -0.5486
      63    H30     15.135630   20.823758   18.705100 H          1 MOL1         0.3769
      64    C19     23.388390   22.714438   22.417049 C.3        1 MOL1         0.2972
      65    H31     24.406010   22.758777   22.826616 H          1 MOL1         0.0751
      66    O16     23.026918   21.372261   22.032216 O.3        1 MOL1        -0.3740
      67    C20     22.379453   23.215351   23.473752 C.3        1 MOL1         0.1003
      68    H32     22.623264   24.262695   23.694353 H          1 MOL1         0.0783
      69    O17     22.482128   22.438442   24.678728 O.3        1 MOL1        -0.5519
      70    H33     23.051806   21.656985   24.471937 H          1 MOL1         0.3769
      71    C21     20.939291   23.163552   22.918910 C.3        1 MOL1         0.1053
      72    H34     20.666983   22.109045   22.813261 H          1 MOL1         0.0783
      73    O18     20.056694   23.789545   23.853248 O.3        1 MOL1        -0.5519
      74    H35     20.214889   23.315049   24.699873 H          1 MOL1         0.3769
      75    C22     20.804382   23.823117   21.520124 C.3        1 MOL1         0.1018
      76    H36     20.684100   24.906573   21.644736 H          1 MOL1         0.0783
      77    C23     21.995039   23.509152   20.566069 C.3        1 MOL1         0.1043
      78    H37     21.845596   22.490943   20.186200 H          1 MOL1         0.0783
      79    O19     23.268857   23.561646   21.257331 O.3        1 MOL1        -0.3740
      80    C24     22.067608   24.442353   19.333326 C.3        1 MOL1         0.0138
      81    H38     21.179120   24.275206   18.709551 H          1 MOL1         0.0794
      82    H39     22.940888   24.154634   18.732714 H          1 MOL1         0.0794
      83    O20     22.161899   25.826230   19.695984 O.3        1 MOL1        -0.5486
      84    H40     21.309504   26.102147   20.091940 H          1 MOL1         0.3769
      85    C25     24.920156   17.663620   21.530559 C.3        1 MOL1         0.2972
      86    H41     25.686825   16.896858   21.360452 H          1 MOL1         0.0751
      87    O21     23.608088   17.080823   21.632260 O.3        1 MOL1        -0.3740
      88    C26     25.200619   18.395192   22.868548 C.3        1 MOL1         0.1003
      89    H42     26.204804   18.833977   22.803461 H          1 MOL1         0.0783
      90    O22     25.158016   17.463743   23.961041 O.3        1 MOL1        -0.5519
      91    H43     24.522187   16.754569   23.699903 H          1 MOL1         0.3769
      92    C27     24.188647   19.543623   23.099755 C.3        1 MOL1         0.1053
      93    H44     23.193557   19.103176   23.248234 H          1 MOL1         0.0783
      94    O23     24.566930   20.289711   24.261036 O.3        1 MOL1        -0.5519
      95    H45     24.797412   19.610887   24.934650 H          1 MOL1         0.3769
      96    C28     24.133045   20.468547   21.861089 C.3        1 MOL1         0.1018
      97    H46     25.088489   21.003185   21.774745 H          1 MOL1         0.0783
      98    C29     23.894386   19.661967   20.558258 C.3        1 MOL1         0.1043
      99    H47     22.902827   19.195393   20.620307 H          1 MOL1         0.0783
     100    O24     24.908590   18.629762   20.454317 O.3        1 MOL1        -0.3740
     101    C30     23.915958   20.518714   19.264878 C.3        1 MOL1         0.0138
     102    H48     22.898958   20.883968   19.074632 H          1 MOL1         0.0794
     103    H49     24.183583   19.871950   18.418701 H          1 MOL1         0.0794
     104    O25     24.817984   21.630275   19.336777 O.3        1 MOL1        -0.5486
     105    H50     24.433598   22.280983   19.969015 H          1 MOL1         0.3769
     106    C31     21.252464   13.910618   20.366312 C.3        1 MOL1         0.2972
     107    H51     20.828214   13.005782   19.912218 H          1 MOL1         0.0751
     108    O26     20.230393   14.750248   20.939260 O.3        1 MOL1        -0.3740
     109    C32     22.291147   13.561949   21.464753 C.3        1 MOL1         0.1003
     110    H52     23.113051   13.023434   20.975227 H          1 MOL1         0.0783
     111    O27     21.728443   12.722137   22.483894 O.3        1 MOL1        -0.5519
     112    H53     20.955594   13.206322   22.870838 H          1 MOL1         0.3769
     113    C33     22.871861   14.858050   22.082268 C.3        1 MOL1         0.1053
     114    H54     22.062163   15.376461   22.614863 H          1 MOL1         0.0783
     115    O28     23.918843   14.528434   23.001306 O.3        1 MOL1        -0.5519
     116    H55     23.567343   13.781991   23.535600 H          1 MOL1         0.3769
     117    C34     23.417420   15.808242   20.985459 C.3        1 MOL1         0.1018
     118    H56     24.359730   15.389456   20.608808 H          1 MOL1         0.0783
     119    C35     22.417862   15.991832   19.804618 C.3        1 MOL1         0.1043
     120    H57     21.565976   16.580350   20.165185 H          1 MOL1         0.0783
     121    O29     21.944733   14.692324   19.368004 O.3        1 MOL1        -0.3740
     122    C36     22.978883   16.743063   18.569688 C.3        1 MOL1         0.0138
     123    H58     22.790505   17.815431   18.699535 H          1 MOL1         0.0794
     124    H59     22.411020   16.429398   17.683572 H          1 MOL1         0.0794
     125    O30     24.377639   16.524727   18.356695 O.3        1 MOL1        -0.5486
     126    H60     24.853566   17.147281   18.953481 H          1 MOL1         0.3769
     127    C1      20.173882   18.163031   22.141629 C.3        1 MOL1        -0.1693
     128    H1      21.264003   18.079767   22.085048 H          1 MOL1         0.0829
     129    H2      19.725774   17.438008   21.453558 H          1 MOL1         0.0829
     130    C2      19.626528   19.620192   22.036923 C.3        1 MOL1        -0.1768
     131    H3      20.202350   20.307591   21.408636 H          1 MOL1         0.0829
     132    H4      18.568850   19.691404   21.766067 H          1 MOL1         0.0829
     133    C3      19.894491   19.708966   23.568478 C.3        1 MOL1         0.1211
     134    H5      20.930502   19.970797   23.822644 H          1 MOL1         0.0786
     135    C4      19.603259   18.179821   23.597348 C.3        1 MOL1        -0.1768
     136    H6      20.163429   17.600400   24.339051 H          1 MOL1         0.0829
     137    H7      18.541643   17.920270   23.678079 H          1 MOL1         0.0829
     138    O1      18.984463   20.510432   24.284962 O.3        1 MOL1        -0.5515
     139    H8      19.146201   20.354386   25.236613 H          1 MOL1         0.3773
@<TRIPOS>BOND
    1     1     2    1
    2     1     3    1
    3     1     4    1
    4     4     5    1
    5     4     6    1
    6     6     7    1
    7     4     8    1
    8     8     9    1
    9     8    10    1
   10    10    11    1
   11     8    12    1
   12    12    13    1
   13    12    14    1
   14    14    15    1
   15     1    16    1
   16    14    16    1
   17    14    17    1
   18    17    18    1
   19    17    19    1
   20    17    20    1
   21    20    21    1
   22    22    23    1
   23    22    24    1
   24    22    25    1
   25    25    26    1
   26    25    27    1
   27    27    28    1
   28    25    29    1
   29    29    30    1
   30    29    31    1
   31    31    32    1
   32     3    33    1
   33    29    33    1
   34    33    34    1
   35    33    35    1
   36    35    36    1
   37    22    37    1
   38    35    37    1
   39    35    38    1
   40    38    39    1
   41    38    40    1
   42    38    41    1
   43    41    42    1
   44    43    44    1
   45    43    45    1
   46    43    46    1
   47    46    47    1
   48    46    48    1
   49    48    49    1
   50    46    50    1
   51    50    51    1
   52    50    52    1
   53    52    53    1
   54    24    54    1
   55    50    54    1
   56    54    55    1
   57    54    56    1
   58    56    57    1
   59    43    58    1
   60    56    58    1
   61    56    59    1
   62    59    60    1
   63    59    61    1
   64    59    62    1
   65    62    63    1
   66    64    65    1
   67    64    66    1
   68    64    67    1
   69    67    68    1
   70    67    69    1
   71    69    70    1
   72    67    71    1
   73    71    72    1
   74    71    73    1
   75    73    74    1
   76    45    75    1
   77    71    75    1
   78    75    76    1
   79    75    77    1
   80    77    78    1
   81    64    79    1
   82    77    79    1
   83    77    80    1
   84    80    81    1
   85    80    82    1
   86    80    83    1
   87    83    84    1
   88    85    86    1
   89    85    87    1
   90    85    88    1
   91    88    89    1
   92    88    90    1
   93    90    91    1
   94    88    92    1
   95    92    93    1
   96    92    94    1
   97    94    95    1
   98    66    96    1
   99    92    96    1
  100    96    97    1
  101    96    98    1
  102    98    99    1
  103    85   100    1
  104    98   100    1
  105    98   101    1
  106   101   102    1
  107   101   103    1
  108   101   104    1
  109   104   105    1
  110   106   107    1
  111    12   108    1
  112   106   108    1
  113   106   109    1
  114   109   110    1
  115   109   111    1
  116   111   112    1
  117   109   113    1
  118   113   114    1
  119   113   115    1
  120   115   116    1
  121    87   117    1
  122   113   117    1
  123   117   118    1
  124   117   119    1
  125   119   120    1
  126   106   121    1
  127   119   121    1
  128   119   122    1
  129   122   123    1
  130   122   124    1
  131   122   125    1
  132   125   126    1
  133   127   128    1
  134   127   129    1
  135   127   130    1
  136   130   131    1
  137   130   132    1
  138   130   133    1
  139   133   134    1
  140   127   135    1
  141   133   135    1
  142   135   136    1
  143   135   137    1
  144   133   138    1
  145   138   139    1
@<TRIPOS>SUBSTRUCTURE
       1 MOL1            1 RESIDUE      1      MOL     
       2 MOL1          139 RESIDUE      1      MOL     
@<SCITEGIC>MOL_PROPERTY
feprocess Rank
SciTegic.value.IntegerValue
145

@<SCITEGIC>MOL_PROPERTY
Conf_Id
SciTegic.value.IntegerValue
156

@<SCITEGIC>MOL_PROPERTY
Probability
SciTegic.value.DoubleValue
0.01

@<SCITEGIC>MOL_PROPERTY
G
SciTegic.value.DoubleValue
549.772

@<SCITEGIC>MOL_PROPERTY
E
SciTegic.value.DoubleValue
372.644

@<SCITEGIC>MOL_PROPERTY
-TS
SciTegic.value.DoubleValue
177.128

@<SCITEGIC>MOL_PROPERTY
U+W
SciTegic.value.DoubleValue
250.133

@<SCITEGIC>MOL_PROPERTY
U
SciTegic.value.DoubleValue
288.784

@<SCITEGIC>MOL_PROPERTY
W
SciTegic.value.DoubleValue
-38.651

@<SCITEGIC>MOL_PROPERTY
W(PB)
SciTegic.value.DoubleValue
-44.592

@<SCITEGIC>MOL_PROPERTY
W(SA)
SciTegic.value.DoubleValue
5.942

@<SCITEGIC>MOL_PROPERTY
Valence
SciTegic.value.DoubleValue
155.906

@<SCITEGIC>MOL_PROPERTY
Coulomb
SciTegic.value.DoubleValue
154.984

@<SCITEGIC>MOL_PROPERTY
VdW
SciTegic.value.DoubleValue
-22.106

@<SCITEGIC>MOL_PROPERTY
VdW6
SciTegic.value.DoubleValue
-168.981

@<SCITEGIC>MOL_PROPERTY
VdW12
SciTegic.value.DoubleValue
146.875

@<SCITEGIC>MOL_PROPERTY
Bond
SciTegic.value.DoubleValue
4.595

@<SCITEGIC>MOL_PROPERTY
Angle
SciTegic.value.DoubleValue
12.808

@<SCITEGIC>MOL_PROPERTY
Pdih
SciTegic.value.DoubleValue
138.502

@<SCITEGIC>MOL_PROPERTY
Idih
SciTegic.value.DoubleValue
0.000

@<SCITEGIC>MOL_PROPERTY
Tether
SciTegic.value.DoubleValue
0.000

@<TRIPOS>MOLECULE
CD_guest-s16_fast_vm2_rndm.mol2 : feprocess host+ligand conformer 146
         139         145           2
SMALL
USER_CHARGES
 
@<TRIPOS>ATOM
       1    C1      16.184475   15.190859   21.190796 C.3        1 MOL1         0.2972
       2    H1      15.128435   14.972174   20.988163 H          1 MOL1         0.0751
       3    O1      16.384026   16.582622   21.507315 O.3        1 MOL1        -0.3740
       4    C2      16.660060   14.357788   22.408010 C.3        1 MOL1         0.1003
       5    H2      16.483612   13.299898   22.173937 H          1 MOL1         0.0783
       6    O2      15.910078   14.716458   23.580107 O.3        1 MOL1        -0.5519
       7    H3      15.677776   15.673777   23.489646 H          1 MOL1         0.3769
       8    C3      18.175672   14.544296   22.657937 C.3        1 MOL1         0.1053
       9    H4      18.344866   15.579951   22.983511 H          1 MOL1         0.0783
      10    O3      18.610094   13.636693   23.677165 O.3        1 MOL1        -0.5519
      11    H5      17.944337   13.722547   24.395316 H          1 MOL1         0.3769
      12    C4      18.984303   14.305700   21.360823 C.3        1 MOL1         0.1018
      13    H6      18.938402   13.237310   21.111991 H          1 MOL1         0.0783
      14    C5      18.415134   15.145926   20.183343 C.3        1 MOL1         0.1043
      15    H7      18.548060   16.206023   20.428082 H          1 MOL1         0.0783
      16    O4      16.999710   14.860704   20.044480 O.3        1 MOL1        -0.3740
      17    C6      19.099066   14.913401   18.812563 C.3        1 MOL1         0.0138
      18    H8      19.978705   15.566430   18.748363 H          1 MOL1         0.0794
      19    H9      18.409281   15.230537   18.019347 H          1 MOL1         0.0794
      20    O5      19.494535   13.553848   18.602617 O.3        1 MOL1        -0.5486
      21    H10     20.410902   13.473129   18.951522 H          1 MOL1         0.3769
      22    C7      14.688474   20.340655   20.890223 C.3        1 MOL1         0.2972
      23    H11     14.044780   21.188458   20.622237 H          1 MOL1         0.0751
      24    O6      16.005153   20.771132   21.287574 O.3        1 MOL1        -0.3740
      25    C8      14.082201   19.519270   22.058110 C.3        1 MOL1         0.1003
      26    H12     13.116672   19.125332   21.715136 H          1 MOL1         0.0783
      27    O7      13.868534   20.337735   23.218726 O.3        1 MOL1        -0.5519
      28    H13     14.718512   20.810227   23.409470 H          1 MOL1         0.3769
      29    C9      14.994908   18.315217   22.402213 C.3        1 MOL1         0.1053
      30    H14     15.940019   18.706048   22.802249 H          1 MOL1         0.0783
      31    O8      14.358091   17.491027   23.384674 O.3        1 MOL1        -0.5519
      32    H15     14.011791   18.116945   24.058964 H          1 MOL1         0.3769
      33    C10     15.311952   17.474634   21.140211 C.3        1 MOL1         0.1018
      34    H16     14.400313   16.931059   20.859859 H          1 MOL1         0.0783
      35    C11     15.774043   18.358801   19.946095 C.3        1 MOL1         0.1043
      36    H17     16.754321   18.779417   20.188700 H          1 MOL1         0.0783
      37    O9      14.834107   19.446769   19.763443 O.3        1 MOL1        -0.3740
      38    C12     15.938750   17.613074   18.597904 C.3        1 MOL1         0.0138
      39    H18     16.943885   17.173698   18.565673 H          1 MOL1         0.0794
      40    H19     15.887085   18.348806   17.784317 H          1 MOL1         0.0794
      41    O10     14.961397   16.586739   18.395399 O.3        1 MOL1        -0.5486
      42    H20     15.339928   15.761270   18.773034 H          1 MOL1         0.3769
      43    C13     18.504124   23.990215   21.776809 C.3        1 MOL1         0.2972
      44    H21     18.980407   24.969802   21.914351 H          1 MOL1         0.0751
      45    O11     19.479351   22.955975   21.535712 O.3        1 MOL1        -0.3740
      46    C14     17.699486   23.620246   23.044346 C.3        1 MOL1         0.1003
      47    H22     16.918570   24.380618   23.175521 H          1 MOL1         0.0783
      48    O12     18.554107   23.609788   24.199644 O.3        1 MOL1        -0.5519
      49    H23     19.484644   23.656950   23.868748 H          1 MOL1         0.3769
      50    C15     17.012041   22.248345   22.869243 C.3        1 MOL1         0.1053
      51    H24     17.799478   21.487295   22.829097 H          1 MOL1         0.0783
      52    O13     16.161994   21.996024   23.991922 O.3        1 MOL1        -0.5519
      53    H25     16.705988   22.234230   24.775965 H          1 MOL1         0.3769
      54    C16     16.196083   22.173141   21.553345 C.3        1 MOL1         0.1018
      55    H26     15.244524   22.701493   21.698790 H          1 MOL1         0.0783
      56    C17     16.959492   22.755894   20.328207 C.3        1 MOL1         0.1043
      57    H27     17.734582   22.032668   20.047323 H          1 MOL1         0.0783
      58    O14     17.595261   24.018364   20.656813 O.3        1 MOL1        -0.3740
      59    C18     16.062522   22.965969   19.085129 C.3        1 MOL1         0.0138
      60    H28     15.787018   21.981381   18.683483 H          1 MOL1         0.0794
      61    H29     16.648412   23.480888   18.311828 H          1 MOL1         0.0794
      62    O15     14.879318   23.712632   19.394664 O.3        1 MOL1        -0.5486
      63    H30     14.396793   23.868589   18.553542 H          1 MOL1         0.3769
      64    C19     23.548719   22.615610   20.630685 C.3        1 MOL1         0.2972
      65    H31     24.564786   22.790611   20.256349 H          1 MOL1         0.0751
      66    O16     23.380446   21.260304   21.092372 O.3        1 MOL1        -0.3740
      67    C20     23.197929   23.594579   21.785381 C.3        1 MOL1         0.1003
      68    H32     23.255652   24.610467   21.373244 H          1 MOL1         0.0783
      69    O17     24.124078   23.488086   22.876809 O.3        1 MOL1        -0.5519
      70    H33     24.075161   22.558861   23.216383 H          1 MOL1         0.3769
      71    C21     21.745020   23.364230   22.272555 C.3        1 MOL1         0.1053
      72    H34     21.685549   22.364636   22.723856 H          1 MOL1         0.0783
      73    O18     21.397245   24.355892   23.244744 O.3        1 MOL1        -0.5519
      74    H35     22.183304   24.427855   23.831454 H          1 MOL1         0.3769
      75    C22     20.760843   23.422948   21.077581 C.3        1 MOL1         0.1018
      76    H36     20.711475   24.459292   20.717752 H          1 MOL1         0.0783
      77    C23     21.212455   22.513362   19.903570 C.3        1 MOL1         0.1043
      78    H37     21.150323   21.467658   20.225945 H          1 MOL1         0.0783
      79    O19     22.587640   22.833305   19.571485 O.3        1 MOL1        -0.3740
      80    C24     20.338991   22.634004   18.627621 C.3        1 MOL1         0.0138
      81    H38     19.522345   21.904519   18.700127 H          1 MOL1         0.0794
      82    H39     20.945567   22.343634   17.759505 H          1 MOL1         0.0794
      83    O20     19.793569   23.945727   18.433033 O.3        1 MOL1        -0.5486
      84    H40     19.111404   24.085830   19.130112 H          1 MOL1         0.3769
      85    C25     25.052227   17.668924   22.020725 C.3        1 MOL1         0.2972
      86    H41     25.661652   16.793480   22.280011 H          1 MOL1         0.0751
      87    O21     23.721811   17.289110   21.605737 O.3        1 MOL1        -0.3740
      88    C26     24.960566   18.629528   23.231545 C.3        1 MOL1         0.1003
      89    H42     25.979919   18.969740   23.456269 H          1 MOL1         0.0783
      90    O22     24.414582   17.973525   24.387002 O.3        1 MOL1        -0.5519
      91    H43     24.293060   17.020655   24.152902 H          1 MOL1         0.3769
      92    C27     24.105437   19.865004   22.881020 C.3        1 MOL1         0.1053
      93    H44     23.072961   19.519350   22.768468 H          1 MOL1         0.0783
      94    O23     24.169719   20.803078   23.958080 O.3        1 MOL1        -0.5519
      95    H45     24.049949   20.257415   24.768260 H          1 MOL1         0.3769
      96    C28     24.540305   20.540227   21.553051 C.3        1 MOL1         0.1018
      97    H46     25.386944   21.206828   21.760164 H          1 MOL1         0.0783
      98    C29     24.906438   19.528127   20.424497 C.3        1 MOL1         0.1043
      99    H47     23.969993   19.151480   19.994656 H          1 MOL1         0.0783
     100    O24     25.663114   18.403988   20.941828 O.3        1 MOL1        -0.3740
     101    C30     25.706528   20.159387   19.259398 C.3        1 MOL1         0.0138
     102    H48     25.067793   20.891087   18.746472 H          1 MOL1         0.0794
     103    H49     25.937289   19.369514   18.532260 H          1 MOL1         0.0794
     104    O25     26.920018   20.784913   19.698287 O.3        1 MOL1        -0.5486
     105    H50     26.688438   21.583927   20.215162 H          1 MOL1         0.3769
     106    C31     21.393982   13.837654   21.290455 C.3        1 MOL1         0.2972
     107    H51     21.025263   12.819589   21.112131 H          1 MOL1         0.0751
     108    O26     20.326893   14.737161   21.647616 O.3        1 MOL1        -0.3740
     109    C32     22.401296   13.834944   22.466094 C.3        1 MOL1         0.1003
     110    H52     23.227818   13.166699   22.191320 H          1 MOL1         0.0783
     111    O27     21.770014   13.345715   23.660494 O.3        1 MOL1        -0.5519
     112    H53     20.832593   13.662417   23.639394 H          1 MOL1         0.3769
     113    C33     22.987466   15.248068   22.708744 C.3        1 MOL1         0.1053
     114    H54     22.185464   15.887278   23.098953 H          1 MOL1         0.0783
     115    O28     24.039509   15.151603   23.674232 O.3        1 MOL1        -0.5519
     116    H55     23.691907   14.543809   24.366037 H          1 MOL1         0.3769
     117    C34     23.513235   15.876689   21.390664 C.3        1 MOL1         0.1018
     118    H56     24.445004   15.371344   21.105076 H          1 MOL1         0.0783
     119    C35     22.493707   15.734953   20.226159 C.3        1 MOL1         0.1043
     120    H57     21.620763   16.357509   20.452136 H          1 MOL1         0.0783
     121    O29     22.062425   14.355368   20.119363 O.3        1 MOL1        -0.3740
     122    C36     23.036461   16.208261   18.853804 C.3        1 MOL1         0.0138
     123    H58     22.962571   17.303066   18.810529 H          1 MOL1         0.0794
     124    H59     22.385328   15.811965   18.063612 H          1 MOL1         0.0794
     125    O30     24.392785   15.809783   18.620804 O.3        1 MOL1        -0.5486
     126    H60     24.962744   16.364375   19.197470 H          1 MOL1         0.3769
     127    C1      19.001948   18.865020   23.101720 C.3        1 MOL1        -0.1693
     128    H1      19.014664   19.744724   23.757725 H          1 MOL1         0.0829
     129    H2      18.185784   18.203786   23.414631 H          1 MOL1         0.0829
     130    C2      20.393882   18.183558   22.901802 C.3        1 MOL1        -0.1768
     131    H3      20.341002   17.152948   22.538901 H          1 MOL1         0.0829
     132    H4      21.081479   18.225716   23.753634 H          1 MOL1         0.0829
     133    C3      20.618866   19.249941   21.789740 C.3        1 MOL1         0.1211
     134    H5      20.967868   20.219280   22.168018 H          1 MOL1         0.0786
     135    C4      19.084955   19.178147   21.571415 C.3        1 MOL1        -0.1768
     136    H6      18.772291   18.359334   20.917451 H          1 MOL1         0.0829
     137    H7      18.616799   20.104217   21.228740 H          1 MOL1         0.0829
     138    O1      21.389633   18.828576   20.691097 O.3        1 MOL1        -0.5515
     139    H8      22.246768   18.514787   21.050339 H          1 MOL1         0.3773
@<TRIPOS>BOND
    1     1     2    1
    2     1     3    1
    3     1     4    1
    4     4     5    1
    5     4     6    1
    6     6     7    1
    7     4     8    1
    8     8     9    1
    9     8    10    1
   10    10    11    1
   11     8    12    1
   12    12    13    1
   13    12    14    1
   14    14    15    1
   15     1    16    1
   16    14    16    1
   17    14    17    1
   18    17    18    1
   19    17    19    1
   20    17    20    1
   21    20    21    1
   22    22    23    1
   23    22    24    1
   24    22    25    1
   25    25    26    1
   26    25    27    1
   27    27    28    1
   28    25    29    1
   29    29    30    1
   30    29    31    1
   31    31    32    1
   32     3    33    1
   33    29    33    1
   34    33    34    1
   35    33    35    1
   36    35    36    1
   37    22    37    1
   38    35    37    1
   39    35    38    1
   40    38    39    1
   41    38    40    1
   42    38    41    1
   43    41    42    1
   44    43    44    1
   45    43    45    1
   46    43    46    1
   47    46    47    1
   48    46    48    1
   49    48    49    1
   50    46    50    1
   51    50    51    1
   52    50    52    1
   53    52    53    1
   54    24    54    1
   55    50    54    1
   56    54    55    1
   57    54    56    1
   58    56    57    1
   59    43    58    1
   60    56    58    1
   61    56    59    1
   62    59    60    1
   63    59    61    1
   64    59    62    1
   65    62    63    1
   66    64    65    1
   67    64    66    1
   68    64    67    1
   69    67    68    1
   70    67    69    1
   71    69    70    1
   72    67    71    1
   73    71    72    1
   74    71    73    1
   75    73    74    1
   76    45    75    1
   77    71    75    1
   78    75    76    1
   79    75    77    1
   80    77    78    1
   81    64    79    1
   82    77    79    1
   83    77    80    1
   84    80    81    1
   85    80    82    1
   86    80    83    1
   87    83    84    1
   88    85    86    1
   89    85    87    1
   90    85    88    1
   91    88    89    1
   92    88    90    1
   93    90    91    1
   94    88    92    1
   95    92    93    1
   96    92    94    1
   97    94    95    1
   98    66    96    1
   99    92    96    1
  100    96    97    1
  101    96    98    1
  102    98    99    1
  103    85   100    1
  104    98   100    1
  105    98   101    1
  106   101   102    1
  107   101   103    1
  108   101   104    1
  109   104   105    1
  110   106   107    1
  111    12   108    1
  112   106   108    1
  113   106   109    1
  114   109   110    1
  115   109   111    1
  116   111   112    1
  117   109   113    1
  118   113   114    1
  119   113   115    1
  120   115   116    1
  121    87   117    1
  122   113   117    1
  123   117   118    1
  124   117   119    1
  125   119   120    1
  126   106   121    1
  127   119   121    1
  128   119   122    1
  129   122   123    1
  130   122   124    1
  131   122   125    1
  132   125   126    1
  133   127   128    1
  134   127   129    1
  135   127   130    1
  136   130   131    1
  137   130   132    1
  138   130   133    1
  139   133   134    1
  140   127   135    1
  141   133   135    1
  142   135   136    1
  143   135   137    1
  144   133   138    1
  145   138   139    1
@<TRIPOS>SUBSTRUCTURE
       1 MOL1            1 RESIDUE      1      MOL     
       2 MOL1          139 RESIDUE      1      MOL     
@<SCITEGIC>MOL_PROPERTY
feprocess Rank
SciTegic.value.IntegerValue
146

@<SCITEGIC>MOL_PROPERTY
Conf_Id
SciTegic.value.IntegerValue
857

@<SCITEGIC>MOL_PROPERTY
Probability
SciTegic.value.DoubleValue
0.01

@<SCITEGIC>MOL_PROPERTY
G
SciTegic.value.DoubleValue
549.805

@<SCITEGIC>MOL_PROPERTY
E
SciTegic.value.DoubleValue
372.197

@<SCITEGIC>MOL_PROPERTY
-TS
SciTegic.value.DoubleValue
177.608

@<SCITEGIC>MOL_PROPERTY
U+W
SciTegic.value.DoubleValue
249.685

@<SCITEGIC>MOL_PROPERTY
U
SciTegic.value.DoubleValue
286.487

@<SCITEGIC>MOL_PROPERTY
W
SciTegic.value.DoubleValue
-36.801

@<SCITEGIC>MOL_PROPERTY
W(PB)
SciTegic.value.DoubleValue
-42.767

@<SCITEGIC>MOL_PROPERTY
W(SA)
SciTegic.value.DoubleValue
5.966

@<SCITEGIC>MOL_PROPERTY
Valence
SciTegic.value.DoubleValue
155.653

@<SCITEGIC>MOL_PROPERTY
Coulomb
SciTegic.value.DoubleValue
153.350

@<SCITEGIC>MOL_PROPERTY
VdW
SciTegic.value.DoubleValue
-22.517

@<SCITEGIC>MOL_PROPERTY
VdW6
SciTegic.value.DoubleValue
-171.121

@<SCITEGIC>MOL_PROPERTY
VdW12
SciTegic.value.DoubleValue
148.605

@<SCITEGIC>MOL_PROPERTY
Bond
SciTegic.value.DoubleValue
4.693

@<SCITEGIC>MOL_PROPERTY
Angle
SciTegic.value.DoubleValue
12.393

@<SCITEGIC>MOL_PROPERTY
Pdih
SciTegic.value.DoubleValue
138.567

@<SCITEGIC>MOL_PROPERTY
Idih
SciTegic.value.DoubleValue
0.000

@<SCITEGIC>MOL_PROPERTY
Tether
SciTegic.value.DoubleValue
0.000

@<TRIPOS>MOLECULE
CD_guest-s16_fast_vm2_rndm.mol2 : feprocess host+ligand conformer 147
         139         145           2
SMALL
USER_CHARGES
 
@<TRIPOS>ATOM
       1    C1      16.258205   15.236093   20.814247 C.3        1 MOL1         0.2972
       2    H1      15.237882   15.067477   20.446672 H          1 MOL1         0.0751
       3    O1      16.423465   16.572615   21.331239 O.3        1 MOL1        -0.3740
       4    C2      16.584995   14.246136   21.962239 C.3        1 MOL1         0.1003
       5    H2      16.437342   13.230623   21.572407 H          1 MOL1         0.0783
       6    O2      15.703339   14.458357   23.077481 O.3        1 MOL1        -0.5519
       7    H3      15.558973   15.434802   23.155191 H          1 MOL1         0.3769
       8    C3      18.062952   14.373111   22.411328 C.3        1 MOL1         0.1053
       9    H4      18.190458   15.351424   22.893772 H          1 MOL1         0.0783
      10    O3      18.371851   13.331480   23.343816 O.3        1 MOL1        -0.5519
      11    H5      17.623214   13.327719   23.980894 H          1 MOL1         0.3769
      12    C4      19.029598   14.301299   21.202952 C.3        1 MOL1         0.1018
      13    H6      19.027150   13.274059   20.815224 H          1 MOL1         0.0783
      14    C5      18.595727   15.285288   20.080569 C.3        1 MOL1         0.1043
      15    H7      18.692684   16.306524   20.465238 H          1 MOL1         0.0783
      16    O4      17.211232   15.029007   19.750290 O.3        1 MOL1        -0.3740
      17    C6      19.415340   15.211190   18.767496 C.3        1 MOL1         0.0138
      18    H8      20.279163   15.880301   18.855112 H          1 MOL1         0.0794
      19    H9      18.796507   15.602738   17.949134 H          1 MOL1         0.0794
      20    O5      19.859896   13.887562   18.452435 O.3        1 MOL1        -0.5486
      21    H10     20.697986   13.747033   18.950238 H          1 MOL1         0.3769
      22    C7      14.689837   20.349506   21.170141 C.3        1 MOL1         0.2972
      23    H11     14.023042   21.210716   21.033883 H          1 MOL1         0.0751
      24    O6      16.040127   20.758656   21.465948 O.3        1 MOL1        -0.3740
      25    C8      14.198517   19.449703   22.332671 C.3        1 MOL1         0.1003
      26    H12     13.195839   19.088588   22.069312 H          1 MOL1         0.0783
      27    O7      14.126091   20.188089   23.563299 O.3        1 MOL1        -0.5519
      28    H13     14.961011   20.714217   23.647218 H          1 MOL1         0.3769
      29    C9      15.123639   18.218503   22.492438 C.3        1 MOL1         0.1053
      30    H14     16.105058   18.577640   22.821345 H          1 MOL1         0.0783
      31    O8      14.583065   17.329298   23.475314 O.3        1 MOL1        -0.5519
      32    H15     14.318201   17.906983   24.225492 H          1 MOL1         0.3769
      33    C10     15.304152   17.465934   21.150987 C.3        1 MOL1         0.1018
      34    H16     14.373853   16.920650   20.944426 H          1 MOL1         0.0783
      35    C11     15.625580   18.423112   19.967383 C.3        1 MOL1         0.1043
      36    H17     16.649940   18.795050   20.092106 H          1 MOL1         0.0783
      37    O9      14.710087   19.546078   19.972351 O.3        1 MOL1        -0.3740
      38    C12     15.541310   17.748368   18.576976 C.3        1 MOL1         0.0138
      39    H18     16.405866   17.083581   18.456143 H          1 MOL1         0.0794
      40    H19     15.622168   18.525941   17.805710 H          1 MOL1         0.0794
      41    O10     14.327177   17.005308   18.407832 O.3        1 MOL1        -0.5486
      42    H20     14.328492   16.637048   17.497612 H          1 MOL1         0.3769
      43    C13     18.510815   24.057436   21.686038 C.3        1 MOL1         0.2972
      44    H21     18.976249   25.049182   21.757160 H          1 MOL1         0.0751
      45    O11     19.484443   23.025369   21.434901 O.3        1 MOL1        -0.3740
      46    C14     17.779360   23.714190   23.006302 C.3        1 MOL1         0.1003
      47    H22     16.963766   24.436806   23.139477 H          1 MOL1         0.0783
      48    O12     18.679256   23.797118   24.122965 O.3        1 MOL1        -0.5519
      49    H23     19.595458   23.816701   23.752614 H          1 MOL1         0.3769
      50    C15     17.166754   22.300341   22.905775 C.3        1 MOL1         0.1053
      51    H24     17.998645   21.597882   22.795749 H          1 MOL1         0.0783
      52    O13     16.433296   21.989790   24.094146 O.3        1 MOL1        -0.5519
      53    H25     17.011298   22.295167   24.829956 H          1 MOL1         0.3769
      54    C16     16.253679   22.171036   21.662929 C.3        1 MOL1         0.1018
      55    H26     15.316919   22.706118   21.867695 H          1 MOL1         0.0783
      56    C17     16.918786   22.728137   20.369566 C.3        1 MOL1         0.1043
      57    H27     17.691221   22.014296   20.058884 H          1 MOL1         0.0783
      58    O14     17.542342   24.017445   20.616005 O.3        1 MOL1        -0.3740
      59    C18     15.934078   22.880304   19.185881 C.3        1 MOL1         0.0138
      60    H28     15.656239   21.878542   18.831494 H          1 MOL1         0.0794
      61    H29     16.452839   23.385470   18.360056 H          1 MOL1         0.0794
      62    O15     14.756598   23.608803   19.555423 O.3        1 MOL1        -0.5486
      63    H30     14.209376   23.719694   18.747481 H          1 MOL1         0.3769
      64    C19     23.527039   22.543352   20.568146 C.3        1 MOL1         0.2972
      65    H31     24.550289   22.652049   20.185975 H          1 MOL1         0.0751
      66    O16     23.312149   21.242057   21.151022 O.3        1 MOL1        -0.3740
      67    C20     23.209635   23.619767   21.641768 C.3        1 MOL1         0.1003
      68    H32     23.304109   24.599816   21.156285 H          1 MOL1         0.0783
      69    O17     24.128355   23.556597   22.743314 O.3        1 MOL1        -0.5519
      70    H33     24.105496   22.630508   23.095200 H          1 MOL1         0.3769
      71    C21     21.750016   23.475357   22.141851 C.3        1 MOL1         0.1053
      72    H34     21.661623   22.518099   22.673392 H          1 MOL1         0.0783
      73    O18     21.436174   24.551519   23.031416 O.3        1 MOL1        -0.5519
      74    H35     22.226757   24.644641   23.609289 H          1 MOL1         0.3769
      75    C22     20.762305   23.463889   20.947818 C.3        1 MOL1         0.1018
      76    H36     20.712793   24.472726   20.517304 H          1 MOL1         0.0783
      77    C23     21.190530   22.460963   19.843776 C.3        1 MOL1         0.1043
      78    H37     21.096062   21.445376   20.245632 H          1 MOL1         0.0783
      79    O19     22.574308   22.707469   19.491609 O.3        1 MOL1        -0.3740
      80    C24     20.317284   22.510666   18.562417 C.3        1 MOL1         0.0138
      81    H38     19.485787   21.805035   18.685734 H          1 MOL1         0.0794
      82    H39     20.915927   22.150466   17.715192 H          1 MOL1         0.0794
      83    O20     19.795583   23.815553   18.279555 O.3        1 MOL1        -0.5486
      84    H40     19.122065   24.016305   18.969241 H          1 MOL1         0.3769
      85    C25     25.085366   17.659317   22.111002 C.3        1 MOL1         0.2972
      86    H41     25.745382   16.817461   22.357557 H          1 MOL1         0.0751
      87    O21     23.722730   17.231520   21.925272 O.3        1 MOL1        -0.3740
      88    C26     25.109911   18.699476   23.254790 C.3        1 MOL1         0.1003
      89    H42     26.136617   19.079124   23.338054 H          1 MOL1         0.0783
      90    O22     24.724941   18.088761   24.497133 O.3        1 MOL1        -0.5519
      91    H43     24.250012   17.252434   24.269461 H          1 MOL1         0.3769
      92    C27     24.181203   19.890271   22.925509 C.3        1 MOL1         0.1053
      93    H44     23.148836   19.519937   22.933062 H          1 MOL1         0.0783
      94    O23     24.333569   20.899006   23.928501 O.3        1 MOL1        -0.5519
      95    H45     24.293177   20.411635   24.781862 H          1 MOL1         0.3769
      96    C28     24.478854   20.482312   21.523091 C.3        1 MOL1         0.1018
      97    H46     25.376808   21.110782   21.591251 H          1 MOL1         0.0783
      98    C29     24.665505   19.390710   20.428688 C.3        1 MOL1         0.1043
      99    H47     23.673367   18.983829   20.198563 H          1 MOL1         0.0783
     100    O24     25.516603   18.313044   20.899665 O.3        1 MOL1        -0.3740
     101    C30     25.251689   19.934683   19.104091 C.3        1 MOL1         0.0138
     102    H48     24.489119   20.554787   18.613625 H          1 MOL1         0.0794
     103    H49     25.459763   19.086643   18.437801 H          1 MOL1         0.0794
     104    O25     26.440952   20.704990   19.317147 O.3        1 MOL1        -0.5486
     105    H50     26.799977   20.949012   18.436133 H          1 MOL1         0.3769
     106    C31     21.426102   13.804369   21.408820 C.3        1 MOL1         0.2972
     107    H51     21.077851   12.785115   21.198244 H          1 MOL1         0.0751
     108    O26     20.325134   14.688043   21.702776 O.3        1 MOL1        -0.3740
     109    C32     22.355679   13.792724   22.648739 C.3        1 MOL1         0.1003
     110    H52     23.199525   13.126726   22.426257 H          1 MOL1         0.0783
     111    O27     21.644438   13.297215   23.794072 O.3        1 MOL1        -0.5519
     112    H53     20.704166   13.581666   23.686676 H          1 MOL1         0.3769
     113    C33     22.920308   15.205206   22.935397 C.3        1 MOL1         0.1053
     114    H54     22.090155   15.840235   23.266911 H          1 MOL1         0.0783
     115    O28     23.904828   15.133513   23.971390 O.3        1 MOL1        -0.5519
     116    H55     23.507344   14.558205   24.662830 H          1 MOL1         0.3769
     117    C34     23.536642   15.830900   21.660003 C.3        1 MOL1         0.1018
     118    H56     24.483604   15.320788   21.439324 H          1 MOL1         0.0783
     119    C35     22.597248   15.714666   20.429470 C.3        1 MOL1         0.1043
     120    H57     21.722805   16.352094   20.607660 H          1 MOL1         0.0783
     121    O29     22.163169   14.338617   20.285991 O.3        1 MOL1        -0.3740
     122    C36     23.226518   16.186766   19.091541 C.3        1 MOL1         0.0138
     123    H58     23.002837   17.252853   18.960467 H          1 MOL1         0.0794
     124    H59     22.733944   15.656870   18.265325 H          1 MOL1         0.0794
     125    O30     24.643645   15.986039   19.025857 O.3        1 MOL1        -0.5486
     126    H60     25.060595   16.653302   19.619230 H          1 MOL1         0.3769
     127    C1      20.619964   19.360141   21.986609 C.3        1 MOL1        -0.1693
     128    H1      21.393580   19.249897   21.219147 H          1 MOL1         0.0829
     129    H2      20.804516   20.284491   22.548324 H          1 MOL1         0.0829
     130    C2      20.361893   18.104050   22.878093 C.3        1 MOL1        -0.1768
     131    H3      20.527009   17.151276   22.372176 H          1 MOL1         0.0829
     132    H4      20.875235   18.086079   23.845638 H          1 MOL1         0.0829
     133    C3      18.868689   18.542270   22.907489 C.3        1 MOL1         0.1211
     134    H5      18.157835   17.708358   22.903711 H          1 MOL1         0.0786
     135    C4      19.146025   19.178799   21.506836 C.3        1 MOL1        -0.1768
     136    H6      18.608080   20.100114   21.272827 H          1 MOL1         0.0829
     137    H7      19.029818   18.490439   20.664057 H          1 MOL1         0.0829
     138    O1      18.545769   19.444383   23.945935 O.3        1 MOL1        -0.5515
     139    H8      17.689542   19.866544   23.729538 H          1 MOL1         0.3773
@<TRIPOS>BOND
    1     1     2    1
    2     1     3    1
    3     1     4    1
    4     4     5    1
    5     4     6    1
    6     6     7    1
    7     4     8    1
    8     8     9    1
    9     8    10    1
   10    10    11    1
   11     8    12    1
   12    12    13    1
   13    12    14    1
   14    14    15    1
   15     1    16    1
   16    14    16    1
   17    14    17    1
   18    17    18    1
   19    17    19    1
   20    17    20    1
   21    20    21    1
   22    22    23    1
   23    22    24    1
   24    22    25    1
   25    25    26    1
   26    25    27    1
   27    27    28    1
   28    25    29    1
   29    29    30    1
   30    29    31    1
   31    31    32    1
   32     3    33    1
   33    29    33    1
   34    33    34    1
   35    33    35    1
   36    35    36    1
   37    22    37    1
   38    35    37    1
   39    35    38    1
   40    38    39    1
   41    38    40    1
   42    38    41    1
   43    41    42    1
   44    43    44    1
   45    43    45    1
   46    43    46    1
   47    46    47    1
   48    46    48    1
   49    48    49    1
   50    46    50    1
   51    50    51    1
   52    50    52    1
   53    52    53    1
   54    24    54    1
   55    50    54    1
   56    54    55    1
   57    54    56    1
   58    56    57    1
   59    43    58    1
   60    56    58    1
   61    56    59    1
   62    59    60    1
   63    59    61    1
   64    59    62    1
   65    62    63    1
   66    64    65    1
   67    64    66    1
   68    64    67    1
   69    67    68    1
   70    67    69    1
   71    69    70    1
   72    67    71    1
   73    71    72    1
   74    71    73    1
   75    73    74    1
   76    45    75    1
   77    71    75    1
   78    75    76    1
   79    75    77    1
   80    77    78    1
   81    64    79    1
   82    77    79    1
   83    77    80    1
   84    80    81    1
   85    80    82    1
   86    80    83    1
   87    83    84    1
   88    85    86    1
   89    85    87    1
   90    85    88    1
   91    88    89    1
   92    88    90    1
   93    90    91    1
   94    88    92    1
   95    92    93    1
   96    92    94    1
   97    94    95    1
   98    66    96    1
   99    92    96    1
  100    96    97    1
  101    96    98    1
  102    98    99    1
  103    85   100    1
  104    98   100    1
  105    98   101    1
  106   101   102    1
  107   101   103    1
  108   101   104    1
  109   104   105    1
  110   106   107    1
  111    12   108    1
  112   106   108    1
  113   106   109    1
  114   109   110    1
  115   109   111    1
  116   111   112    1
  117   109   113    1
  118   113   114    1
  119   113   115    1
  120   115   116    1
  121    87   117    1
  122   113   117    1
  123   117   118    1
  124   117   119    1
  125   119   120    1
  126   106   121    1
  127   119   121    1
  128   119   122    1
  129   122   123    1
  130   122   124    1
  131   122   125    1
  132   125   126    1
  133   127   128    1
  134   127   129    1
  135   127   130    1
  136   130   131    1
  137   130   132    1
  138   130   133    1
  139   133   134    1
  140   127   135    1
  141   133   135    1
  142   135   136    1
  143   135   137    1
  144   133   138    1
  145   138   139    1
@<TRIPOS>SUBSTRUCTURE
       1 MOL1            1 RESIDUE      1      MOL     
       2 MOL1          139 RESIDUE      1      MOL     
@<SCITEGIC>MOL_PROPERTY
feprocess Rank
SciTegic.value.IntegerValue
147

@<SCITEGIC>MOL_PROPERTY
Conf_Id
SciTegic.value.IntegerValue
693

@<SCITEGIC>MOL_PROPERTY
Probability
SciTegic.value.DoubleValue
0.01

@<SCITEGIC>MOL_PROPERTY
G
SciTegic.value.DoubleValue
549.807

@<SCITEGIC>MOL_PROPERTY
E
SciTegic.value.DoubleValue
371.330

@<SCITEGIC>MOL_PROPERTY
-TS
SciTegic.value.DoubleValue
178.476

@<SCITEGIC>MOL_PROPERTY
U+W
SciTegic.value.DoubleValue
248.819

@<SCITEGIC>MOL_PROPERTY
U
SciTegic.value.DoubleValue
286.401

@<SCITEGIC>MOL_PROPERTY
W
SciTegic.value.DoubleValue
-37.582

@<SCITEGIC>MOL_PROPERTY
W(PB)
SciTegic.value.DoubleValue
-43.566

@<SCITEGIC>MOL_PROPERTY
W(SA)
SciTegic.value.DoubleValue
5.984

@<SCITEGIC>MOL_PROPERTY
Valence
SciTegic.value.DoubleValue
154.215

@<SCITEGIC>MOL_PROPERTY
Coulomb
SciTegic.value.DoubleValue
154.162

@<SCITEGIC>MOL_PROPERTY
VdW
SciTegic.value.DoubleValue
-21.975

@<SCITEGIC>MOL_PROPERTY
VdW6
SciTegic.value.DoubleValue
-168.699

@<SCITEGIC>MOL_PROPERTY
VdW12
SciTegic.value.DoubleValue
146.724

@<SCITEGIC>MOL_PROPERTY
Bond
SciTegic.value.DoubleValue
4.556

@<SCITEGIC>MOL_PROPERTY
Angle
SciTegic.value.DoubleValue
11.029

@<SCITEGIC>MOL_PROPERTY
Pdih
SciTegic.value.DoubleValue
138.630

@<SCITEGIC>MOL_PROPERTY
Idih
SciTegic.value.DoubleValue
0.000

@<SCITEGIC>MOL_PROPERTY
Tether
SciTegic.value.DoubleValue
0.000

@<TRIPOS>MOLECULE
CD_guest-s16_fast_vm2_rndm.mol2 : feprocess host+ligand conformer 148
         139         145           2
SMALL
USER_CHARGES
 
@<TRIPOS>ATOM
       1    C1      16.477713   15.523894   20.054692 C.3        1 MOL1         0.2972
       2    H1      15.529812   15.435396   19.508529 H          1 MOL1         0.0751
       3    O1      16.605842   16.815045   20.681101 O.3        1 MOL1        -0.3740
       4    C2      16.624509   14.402330   21.122914 C.3        1 MOL1         0.1003
       5    H2      16.622226   13.446120   20.583624 H          1 MOL1         0.0783
       6    O2      15.539386   14.400048   22.061930 O.3        1 MOL1        -0.5519
       7    H3      15.581066   15.258139   22.554495 H          1 MOL1         0.3769
       8    C3      17.982146   14.526180   21.858533 C.3        1 MOL1         0.1053
       9    H4      17.982664   15.465588   22.428013 H          1 MOL1         0.0783
      10    O3      18.155834   13.418334   22.748789 O.3        1 MOL1        -0.5519
      11    H5      17.287974   13.310287   23.198180 H          1 MOL1         0.3769
      12    C4      19.144889   14.572078   20.837349 C.3        1 MOL1         0.1018
      13    H6      19.233395   13.583204   20.367964 H          1 MOL1         0.0783
      14    C5      18.902923   15.627351   19.724612 C.3        1 MOL1         0.1043
      15    H7      18.930980   16.625560   20.180160 H          1 MOL1         0.0783
      16    O4      17.593610   15.394646   19.143028 O.3        1 MOL1        -0.3740
      17    C6      19.961453   15.623318   18.590758 C.3        1 MOL1         0.0138
      18    H8      20.770538   16.309503   18.869623 H          1 MOL1         0.0794
      19    H9      19.501222   16.032667   17.681590 H          1 MOL1         0.0794
      20    O5      20.504257   14.323717   18.324293 O.3        1 MOL1        -0.5486
      21    H10     21.062591   14.074179   19.097105 H          1 MOL1         0.3769
      22    C7      14.835225   20.248997   21.981440 C.3        1 MOL1         0.2972
      23    H11     14.196916   21.070941   22.330785 H          1 MOL1         0.0751
      24    O6      16.177486   20.701877   21.719541 O.3        1 MOL1        -0.3740
      25    C8      14.881358   19.130087   23.049531 C.3        1 MOL1         0.1003
      26    H12     13.856968   18.758563   23.181869 H          1 MOL1         0.0783
      27    O7      15.370967   19.634688   24.300711 O.3        1 MOL1        -0.5519
      28    H13     16.264366   20.017496   24.117098 H          1 MOL1         0.3769
      29    C9      15.765586   17.955007   22.582652 C.3        1 MOL1         0.1053
      30    H14     16.800717   18.309686   22.558281 H          1 MOL1         0.0783
      31    O8      15.656338   16.882395   23.523241 O.3        1 MOL1        -0.5519
      32    H15     15.700455   17.314069   24.405880 H          1 MOL1         0.3769
      33    C10     15.412164   17.467334   21.156172 C.3        1 MOL1         0.1018
      34    H16     14.551922   16.787101   21.207761 H          1 MOL1         0.0783
      35    C11     15.130042   18.630318   20.161021 C.3        1 MOL1         0.1043
      36    H17     16.100433   19.057980   19.886793 H          1 MOL1         0.0783
      37    O9      14.316937   19.672312   20.763306 O.3        1 MOL1        -0.3740
      38    C12     14.452429   18.170220   18.848492 C.3        1 MOL1         0.0138
      39    H18     15.179802   17.588975   18.265863 H          1 MOL1         0.0794
      40    H19     14.195262   19.057966   18.255047 H          1 MOL1         0.0794
      41    O10     13.283448   17.379428   19.094289 O.3        1 MOL1        -0.5486
      42    H20     12.862521   17.191037   18.227030 H          1 MOL1         0.3769
      43    C13     18.392333   24.165688   21.201448 C.3        1 MOL1         0.2972
      44    H21     18.760200   25.170975   20.960201 H          1 MOL1         0.0751
      45    O11     19.449881   23.311201   21.677845 O.3        1 MOL1        -0.3740
      46    C14     17.332969   24.250463   22.325117 C.3        1 MOL1         0.1003
      47    H22     16.516664   24.888549   21.962327 H          1 MOL1         0.0783
      48    O12     17.910993   24.837369   23.502619 O.3        1 MOL1        -0.5519
      49    H23     18.836685   24.495870   23.564610 H          1 MOL1         0.3769
      50    C15     16.742593   22.856237   22.651570 C.3        1 MOL1         0.1053
      51    H24     17.518788   22.265204   23.155109 H          1 MOL1         0.0783
      52    O13     15.620647   23.026263   23.522940 O.3        1 MOL1        -0.5519
      53    H25     15.947059   23.588262   24.259186 H          1 MOL1         0.3769
      54    C16     16.310927   22.093595   21.370644 C.3        1 MOL1         0.1018
      55    H26     15.363938   22.518465   21.013100 H          1 MOL1         0.0783
      56    C17     17.368170   22.175670   20.233637 C.3        1 MOL1         0.1043
      57    H27     18.238138   21.580771   20.535643 H          1 MOL1         0.0783
      58    O14     17.779250   23.552194   20.048322 O.3        1 MOL1        -0.3740
      59    C18     16.894900   21.611723   18.867630 C.3        1 MOL1         0.0138
      60    H28     17.182012   20.554715   18.810718 H          1 MOL1         0.0794
      61    H29     17.441382   22.126857   18.066448 H          1 MOL1         0.0794
      62    O15     15.483059   21.741025   18.655746 O.3        1 MOL1        -0.5486
      63    H30     15.030155   21.177937   19.325084 H          1 MOL1         0.3769
      64    C19     23.560451   22.714300   21.343272 C.3        1 MOL1         0.2972
      65    H31     24.636170   22.848971   21.171170 H          1 MOL1         0.0751
      66    O16     23.247244   21.352333   21.696758 O.3        1 MOL1        -0.3740
      67    C20     23.102083   23.635818   22.500102 C.3        1 MOL1         0.1003
      68    H32     23.330688   24.669668   22.210243 H          1 MOL1         0.0783
      69    O17     23.810063   23.313394   23.707965 O.3        1 MOL1        -0.5519
      70    H33     24.154376   22.392207   23.601253 H          1 MOL1         0.3769
      71    C21     21.576041   23.527448   22.721635 C.3        1 MOL1         0.1053
      72    H34     21.362084   22.519417   23.100434 H          1 MOL1         0.0783
      73    O18     21.158183   24.503457   23.682276 O.3        1 MOL1        -0.5519
      74    H35     21.804782   24.427622   24.418937 H          1 MOL1         0.3769
      75    C22     20.799136   23.726764   21.397189 C.3        1 MOL1         0.1018
      76    H36     20.856360   24.787073   21.118087 H          1 MOL1         0.0783
      77    C23     21.374102   22.843131   20.253348 C.3        1 MOL1         0.1043
      78    H37     21.176228   21.797128   20.512895 H          1 MOL1         0.0783
      79    O19     22.806897   23.047404   20.157933 O.3        1 MOL1        -0.3740
      80    C24     20.759080   23.083193   18.851708 C.3        1 MOL1         0.0138
      81    H38     19.841039   22.489264   18.765021 H          1 MOL1         0.0794
      82    H39     21.455900   22.699498   18.094453 H          1 MOL1         0.0794
      83    O20     20.467908   24.460658   18.594663 O.3        1 MOL1        -0.5486
      84    H40     19.531995   24.605195   18.856810 H          1 MOL1         0.3769
      85    C25     25.000448   17.537615   21.396703 C.3        1 MOL1         0.2972
      86    H41     25.689663   16.728978   21.121278 H          1 MOL1         0.0751
      87    O21     23.862147   17.031564   22.119102 O.3        1 MOL1        -0.3740
      88    C26     25.719110   18.559297   22.318171 C.3        1 MOL1         0.1003
      89    H42     26.611844   18.914151   21.786929 H          1 MOL1         0.0783
      90    O22     26.111738   17.927494   23.546086 O.3        1 MOL1        -0.5519
      91    H43     25.331499   17.404105   23.844624 H          1 MOL1         0.3769
      92    C27     24.818738   19.783559   22.619583 C.3        1 MOL1         0.1053
      93    H44     23.984234   19.446399   23.248935 H          1 MOL1         0.0783
      94    O23     25.575920   20.781191   23.313172 O.3        1 MOL1        -0.5519
      95    H45     26.063297   20.294460   24.014673 H          1 MOL1         0.3769
      96    C28     24.233896   20.375278   21.315815 C.3        1 MOL1         0.1018
      97    H46     25.051971   20.820845   20.734204 H          1 MOL1         0.0783
      98    C29     23.551320   19.277062   20.459846 C.3        1 MOL1         0.1043
      99    H47     22.702759   18.869958   21.022588 H          1 MOL1         0.0783
     100    O24     24.520950   18.230235   20.221294 O.3        1 MOL1        -0.3740
     101    C30     23.003255   19.759140   19.092379 C.3        1 MOL1         0.0138
     102    H48     21.985822   20.141145   19.239016 H          1 MOL1         0.0794
     103    H49     22.922357   18.891577   18.424060 H          1 MOL1         0.0794
     104    O25     23.813366   20.772028   18.484970 O.3        1 MOL1        -0.5486
     105    H50     23.632427   21.614308   18.963647 H          1 MOL1         0.3769
     106    C31     21.258989   13.847670   21.775487 C.3        1 MOL1         0.2972
     107    H51     20.753517   12.874703   21.718480 H          1 MOL1         0.0751
     108    O26     20.339428   14.933394   21.554375 O.3        1 MOL1        -0.3740
     109    C32     21.907779   14.010682   23.166965 C.3        1 MOL1         0.1003
     110    H52     22.642218   13.203324   23.285227 H          1 MOL1         0.0783
     111    O27     20.912143   13.904205   24.197572 O.3        1 MOL1        -0.5519
     112    H53     20.033240   13.992358   23.754347 H          1 MOL1         0.3769
     113    C33     22.655345   15.357655   23.273024 C.3        1 MOL1         0.1053
     114    H54     21.901454   16.154946   23.278654 H          1 MOL1         0.0783
     115    O28     23.389100   15.388384   24.501984 O.3        1 MOL1        -0.5519
     116    H55     22.747323   15.098312   25.187445 H          1 MOL1         0.3769
     117    C34     23.614952   15.607299   22.078060 C.3        1 MOL1         0.1018
     118    H56     24.538163   15.040932   22.256423 H          1 MOL1         0.0783
     119    C35     22.998233   15.207274   20.696009 C.3        1 MOL1         0.1043
     120    H57     22.287896   15.992104   20.411235 H          1 MOL1         0.0783
     121    O29     22.297484   13.939259   20.784761 O.3        1 MOL1        -0.3740
     122    C36     24.017623   15.050696   19.537955 C.3        1 MOL1         0.0138
     123    H58     24.308456   16.039987   19.168075 H          1 MOL1         0.0794
     124    H59     23.517576   14.542053   18.702553 H          1 MOL1         0.0794
     125    O30     25.180580   14.314086   19.934924 O.3        1 MOL1        -0.5486
     126    H60     25.732029   14.173453   19.134436 H          1 MOL1         0.3769
     127    C1      20.127873   18.149859   22.395831 C.3        1 MOL1        -0.1693
     128    H1      20.853490   17.611406   21.777287 H          1 MOL1         0.0829
     129    H2      19.453048   17.417389   22.855981 H          1 MOL1         0.0829
     130    C2      19.415402   19.357691   21.708154 C.3        1 MOL1        -0.1768
     131    H3      20.024222   19.866240   20.953812 H          1 MOL1         0.0829
     132    H4      18.430272   19.155498   21.276836 H          1 MOL1         0.0829
     133    C3      19.429252   20.045199   23.110497 C.3        1 MOL1         0.1211
     134    H5      19.575505   21.130514   23.088088 H          1 MOL1         0.0786
     135    C4      20.719152   19.212605   23.381179 C.3        1 MOL1        -0.1768
     136    H6      21.638294   19.695386   23.035471 H          1 MOL1         0.0829
     137    H7      20.869921   18.881350   24.414488 H          1 MOL1         0.0829
     138    O1      18.346622   19.727350   23.956874 O.3        1 MOL1        -0.5515
     139    H8      18.415654   18.767539   24.126191 H          1 MOL1         0.3773
@<TRIPOS>BOND
    1     1     2    1
    2     1     3    1
    3     1     4    1
    4     4     5    1
    5     4     6    1
    6     6     7    1
    7     4     8    1
    8     8     9    1
    9     8    10    1
   10    10    11    1
   11     8    12    1
   12    12    13    1
   13    12    14    1
   14    14    15    1
   15     1    16    1
   16    14    16    1
   17    14    17    1
   18    17    18    1
   19    17    19    1
   20    17    20    1
   21    20    21    1
   22    22    23    1
   23    22    24    1
   24    22    25    1
   25    25    26    1
   26    25    27    1
   27    27    28    1
   28    25    29    1
   29    29    30    1
   30    29    31    1
   31    31    32    1
   32     3    33    1
   33    29    33    1
   34    33    34    1
   35    33    35    1
   36    35    36    1
   37    22    37    1
   38    35    37    1
   39    35    38    1
   40    38    39    1
   41    38    40    1
   42    38    41    1
   43    41    42    1
   44    43    44    1
   45    43    45    1
   46    43    46    1
   47    46    47    1
   48    46    48    1
   49    48    49    1
   50    46    50    1
   51    50    51    1
   52    50    52    1
   53    52    53    1
   54    24    54    1
   55    50    54    1
   56    54    55    1
   57    54    56    1
   58    56    57    1
   59    43    58    1
   60    56    58    1
   61    56    59    1
   62    59    60    1
   63    59    61    1
   64    59    62    1
   65    62    63    1
   66    64    65    1
   67    64    66    1
   68    64    67    1
   69    67    68    1
   70    67    69    1
   71    69    70    1
   72    67    71    1
   73    71    72    1
   74    71    73    1
   75    73    74    1
   76    45    75    1
   77    71    75    1
   78    75    76    1
   79    75    77    1
   80    77    78    1
   81    64    79    1
   82    77    79    1
   83    77    80    1
   84    80    81    1
   85    80    82    1
   86    80    83    1
   87    83    84    1
   88    85    86    1
   89    85    87    1
   90    85    88    1
   91    88    89    1
   92    88    90    1
   93    90    91    1
   94    88    92    1
   95    92    93    1
   96    92    94    1
   97    94    95    1
   98    66    96    1
   99    92    96    1
  100    96    97    1
  101    96    98    1
  102    98    99    1
  103    85   100    1
  104    98   100    1
  105    98   101    1
  106   101   102    1
  107   101   103    1
  108   101   104    1
  109   104   105    1
  110   106   107    1
  111    12   108    1
  112   106   108    1
  113   106   109    1
  114   109   110    1
  115   109   111    1
  116   111   112    1
  117   109   113    1
  118   113   114    1
  119   113   115    1
  120   115   116    1
  121    87   117    1
  122   113   117    1
  123   117   118    1
  124   117   119    1
  125   119   120    1
  126   106   121    1
  127   119   121    1
  128   119   122    1
  129   122   123    1
  130   122   124    1
  131   122   125    1
  132   125   126    1
  133   127   128    1
  134   127   129    1
  135   127   130    1
  136   130   131    1
  137   130   132    1
  138   130   133    1
  139   133   134    1
  140   127   135    1
  141   133   135    1
  142   135   136    1
  143   135   137    1
  144   133   138    1
  145   138   139    1
@<TRIPOS>SUBSTRUCTURE
       1 MOL1            1 RESIDUE      1      MOL     
       2 MOL1          139 RESIDUE      1      MOL     
@<SCITEGIC>MOL_PROPERTY
feprocess Rank
SciTegic.value.IntegerValue
148

@<SCITEGIC>MOL_PROPERTY
Conf_Id
SciTegic.value.IntegerValue
970

@<SCITEGIC>MOL_PROPERTY
Probability
SciTegic.value.DoubleValue
0.01

@<SCITEGIC>MOL_PROPERTY
G
SciTegic.value.DoubleValue
549.842

@<SCITEGIC>MOL_PROPERTY
E
SciTegic.value.DoubleValue
371.811

@<SCITEGIC>MOL_PROPERTY
-TS
SciTegic.value.DoubleValue
178.031

@<SCITEGIC>MOL_PROPERTY
U+W
SciTegic.value.DoubleValue
249.300

@<SCITEGIC>MOL_PROPERTY
U
SciTegic.value.DoubleValue
287.356

@<SCITEGIC>MOL_PROPERTY
W
SciTegic.value.DoubleValue
-38.056

@<SCITEGIC>MOL_PROPERTY
W(PB)
SciTegic.value.DoubleValue
-43.984

@<SCITEGIC>MOL_PROPERTY
W(SA)
SciTegic.value.DoubleValue
5.929

@<SCITEGIC>MOL_PROPERTY
Valence
SciTegic.value.DoubleValue
153.873

@<SCITEGIC>MOL_PROPERTY
Coulomb
SciTegic.value.DoubleValue
156.561

@<SCITEGIC>MOL_PROPERTY
VdW
SciTegic.value.DoubleValue
-23.079

@<SCITEGIC>MOL_PROPERTY
VdW6
SciTegic.value.DoubleValue
-170.960

@<SCITEGIC>MOL_PROPERTY
VdW12
SciTegic.value.DoubleValue
147.881

@<SCITEGIC>MOL_PROPERTY
Bond
SciTegic.value.DoubleValue
4.577

@<SCITEGIC>MOL_PROPERTY
Angle
SciTegic.value.DoubleValue
12.669

@<SCITEGIC>MOL_PROPERTY
Pdih
SciTegic.value.DoubleValue
136.628

@<SCITEGIC>MOL_PROPERTY
Idih
SciTegic.value.DoubleValue
0.000

@<SCITEGIC>MOL_PROPERTY
Tether
SciTegic.value.DoubleValue
0.000

@<TRIPOS>MOLECULE
CD_guest-s16_fast_vm2_rndm.mol2 : feprocess host+ligand conformer 149
         139         145           2
SMALL
USER_CHARGES
 
@<TRIPOS>ATOM
       1    C1      16.236931   15.235662   20.923477 C.3        1 MOL1         0.2972
       2    H1      15.208028   15.017515   20.610623 H          1 MOL1         0.0751
       3    O1      16.378067   16.596179   21.380203 O.3        1 MOL1        -0.3740
       4    C2      16.634130   14.304630   22.097735 C.3        1 MOL1         0.1003
       5    H2      16.531918   13.269033   21.748104 H          1 MOL1         0.0783
       6    O2      15.762333   14.515239   23.220313 O.3        1 MOL1        -0.5519
       7    H3      15.513944   15.473325   23.219110 H          1 MOL1         0.3769
       8    C3      18.109213   14.526250   22.511196 C.3        1 MOL1         0.1053
       9    H4      18.188982   15.525801   22.955438 H          1 MOL1         0.0783
      10    O3      18.490541   13.543164   23.477939 O.3        1 MOL1        -0.5519
      11    H5      17.740413   13.504983   24.112977 H          1 MOL1         0.3769
      12    C4      19.043243   14.457005   21.276725 C.3        1 MOL1         0.1018
      13    H6      19.091647   13.417418   20.926162 H          1 MOL1         0.0783
      14    C5      18.538581   15.354311   20.116018 C.3        1 MOL1         0.1043
      15    H7      18.598685   16.398960   20.440628 H          1 MOL1         0.0783
      16    O4      17.156967   15.024194   19.828823 O.3        1 MOL1        -0.3740
      17    C6      19.372345   15.241443   18.812948 C.3        1 MOL1         0.0138
      18    H8      20.185408   15.977077   18.859229 H          1 MOL1         0.0794
      19    H9      18.737107   15.523655   17.962844 H          1 MOL1         0.0794
      20    O5      19.922565   13.934486   18.604177 O.3        1 MOL1        -0.5486
      21    H10     20.610749   13.791267   19.294121 H          1 MOL1         0.3769
      22    C7      14.574212   20.343519   21.043900 C.3        1 MOL1         0.2972
      23    H11     13.884293   21.173233   20.844899 H          1 MOL1         0.0751
      24    O6      15.841958   20.810473   21.540555 O.3        1 MOL1        -0.3740
      25    C8      13.983606   19.409006   22.129581 C.3        1 MOL1         0.1003
      26    H12     13.022891   19.030082   21.757403 H          1 MOL1         0.0783
      27    O7      13.770662   20.138904   23.348990 O.3        1 MOL1        -0.5519
      28    H13     14.515381   20.785178   23.429359 H          1 MOL1         0.3769
      29    C9      14.914399   18.197139   22.384103 C.3        1 MOL1         0.1053
      30    H14     15.835935   18.566022   22.853637 H          1 MOL1         0.0783
      31    O8      14.268176   17.267469   23.260319 O.3        1 MOL1        -0.5519
      32    H15     13.902424   17.815243   23.990192 H          1 MOL1         0.3769
      33    C10     15.294999   17.491616   21.060067 C.3        1 MOL1         0.1018
      34    H16     14.410191   16.957327   20.689901 H          1 MOL1         0.0783
      35    C11     15.782176   18.501981   19.983735 C.3        1 MOL1         0.1043
      36    H17     16.729235   18.931009   20.327565 H          1 MOL1         0.0783
      37    O9      14.807550   19.567148   19.848363 O.3        1 MOL1        -0.3740
      38    C12     16.049896   17.891262   18.585024 C.3        1 MOL1         0.0138
      39    H18     17.060945   17.464154   18.579010 H          1 MOL1         0.0794
      40    H19     16.040679   18.700472   17.842928 H          1 MOL1         0.0794
      41    O10     15.102493   16.882017   18.220740 O.3        1 MOL1        -0.5486
      42    H20     15.476101   16.022911   18.518042 H          1 MOL1         0.3769
      43    C13     18.417658   24.078591   21.492441 C.3        1 MOL1         0.2972
      44    H21     18.844392   25.085409   21.401741 H          1 MOL1         0.0751
      45    O11     19.430847   23.093112   21.781977 O.3        1 MOL1        -0.3740
      46    C14     17.378783   24.055516   22.641149 C.3        1 MOL1         0.1003
      47    H22     16.604833   24.796361   22.401946 H          1 MOL1         0.0783
      48    O12     17.999659   24.404347   23.888980 O.3        1 MOL1        -0.5519
      49    H23     18.923509   24.047603   23.865312 H          1 MOL1         0.3769
      50    C15     16.697477   22.671197   22.744456 C.3        1 MOL1         0.1053
      51    H24     17.453165   21.947532   23.076809 H          1 MOL1         0.0783
      52    O13     15.632032   22.727121   23.699577 O.3        1 MOL1        -0.5519
      53    H25     16.012176   23.191402   24.478329 H          1 MOL1         0.3769
      54    C16     16.148807   22.206325   21.373217 C.3        1 MOL1         0.1018
      55    H26     15.257437   22.801160   21.134777 H          1 MOL1         0.0783
      56    C17     17.209660   22.356012   20.244989 C.3        1 MOL1         0.1043
      57    H27     18.015115   21.640814   20.444699 H          1 MOL1         0.0783
      58    O14     17.755415   23.699446   20.266900 O.3        1 MOL1        -0.3740
      59    C18     16.694377   22.061439   18.814408 C.3        1 MOL1         0.0138
      60    H28     16.713096   20.976489   18.652174 H          1 MOL1         0.0794
      61    H29     17.396025   22.502818   18.094198 H          1 MOL1         0.0794
      62    O15     15.373599   22.561240   18.580050 O.3        1 MOL1        -0.5486
      63    H30     14.751932   21.828112   18.781242 H          1 MOL1         0.3769
      64    C19     23.614312   22.700239   21.554641 C.3        1 MOL1         0.2972
      65    H31     24.676539   22.951195   21.440269 H          1 MOL1         0.0751
      66    O16     23.424131   21.282463   21.723110 O.3        1 MOL1        -0.3740
      67    C20     23.049515   23.399165   22.818279 C.3        1 MOL1         0.1003
      68    H32     23.217288   24.477786   22.701935 H          1 MOL1         0.0783
      69    O17     23.738061   22.936075   23.991026 O.3        1 MOL1        -0.5519
      70    H33     24.007124   22.002314   23.810481 H          1 MOL1         0.3769
      71    C21     21.525184   23.165980   22.957984 C.3        1 MOL1         0.1053
      72    H34     21.354704   22.100388   23.165386 H          1 MOL1         0.0783
      73    O18     21.016721   23.961568   24.034317 O.3        1 MOL1        -0.5519
      74    H35     21.640803   23.810875   24.778919 H          1 MOL1         0.3769
      75    C22     20.797476   23.530740   21.643246 C.3        1 MOL1         0.1018
      76    H36     20.869257   24.616951   21.499884 H          1 MOL1         0.0783
      77    C23     21.445419   22.808667   20.430759 C.3        1 MOL1         0.1043
      78    H37     21.326954   21.728618   20.575125 H          1 MOL1         0.0783
      79    O19     22.860066   23.127185   20.397412 O.3        1 MOL1        -0.3740
      80    C24     20.822907   23.155952   19.054573 C.3        1 MOL1         0.0138
      81    H38     19.938196   22.523755   18.904026 H          1 MOL1         0.0794
      82    H39     21.542406   22.893425   18.267884 H          1 MOL1         0.0794
      83    O20     20.450034   24.532876   18.937012 O.3        1 MOL1        -0.5486
      84    H40     19.518434   24.598910   19.246033 H          1 MOL1         0.3769
      85    C25     25.088052   17.587286   20.811846 C.3        1 MOL1         0.2972
      86    H41     25.706182   16.746613   20.471140 H          1 MOL1         0.0751
      87    O21     23.773833   17.153355   21.218216 O.3        1 MOL1        -0.3740
      88    C26     25.754645   18.338602   21.994223 C.3        1 MOL1         0.1003
      89    H42     26.698499   18.757390   21.621496 H          1 MOL1         0.0783
      90    O22     26.040507   17.459345   23.092021 O.3        1 MOL1        -0.5519
      91    H43     25.184804   17.040569   23.364312 H          1 MOL1         0.3769
      92    C27     24.859621   19.516991   22.452065 C.3        1 MOL1         0.1053
      93    H44     23.929989   19.102990   22.867575 H          1 MOL1         0.0783
      94    O23     25.540252   20.277995   23.455860 O.3        1 MOL1        -0.5519
      95    H45     25.914702   19.611739   24.074055 H          1 MOL1         0.3769
      96    C28     24.494487   20.436253   21.258623 C.3        1 MOL1         0.1018
      97    H46     25.389874   21.012224   20.990947 H          1 MOL1         0.0783
      98    C29     24.002789   19.635876   20.015733 C.3        1 MOL1         0.1043
      99    H47     23.018669   19.214803   20.243024 H          1 MOL1         0.0783
     100    O24     24.923303   18.548673   19.744785 O.3        1 MOL1        -0.3740
     101    C30     23.827122   20.468650   18.720404 C.3        1 MOL1         0.0138
     102    H48     22.810762   20.881265   18.710010 H          1 MOL1         0.0794
     103    H49     23.903256   19.792715   17.858257 H          1 MOL1         0.0794
     104    O25     24.775987   21.533197   18.594877 O.3        1 MOL1        -0.5486
     105    H50     24.400185   22.302198   19.081091 H          1 MOL1         0.3769
     106    C31     21.323905   13.939217   21.954403 C.3        1 MOL1         0.2972
     107    H51     20.858293   12.965792   22.156909 H          1 MOL1         0.0751
     108    O26     20.336594   14.950065   21.668698 O.3        1 MOL1        -0.3740
     109    C32     22.147801   14.391534   23.182028 C.3        1 MOL1         0.1003
     110    H52     22.944935   13.652574   23.335837 H          1 MOL1         0.0783
     111    O27     21.319073   14.444417   24.354225 O.3        1 MOL1        -0.5519
     112    H53     20.382670   14.436064   24.041006 H          1 MOL1         0.3769
     113    C33     22.810726   15.762561   22.918496 C.3        1 MOL1         0.1053
     114    H54     22.014593   16.513918   22.851619 H          1 MOL1         0.0783
     115    O28     23.674131   16.081427   24.013228 O.3        1 MOL1        -0.5519
     116    H55     23.118362   15.945187   24.813362 H          1 MOL1         0.3769
     117    C34     23.606491   15.769819   21.585775 C.3        1 MOL1         0.1018
     118    H56     24.568598   15.265698   21.747097 H          1 MOL1         0.0783
     119    C35     22.835354   15.098356   20.410901 C.3        1 MOL1         0.1043
     120    H57     22.048445   15.792307   20.093181 H          1 MOL1         0.0783
     121    O29     22.216494   13.852600   20.824492 O.3        1 MOL1        -0.3740
     122    C36     23.719755   14.820565   19.172138 C.3        1 MOL1         0.0138
     123    H58     23.978005   15.781083   18.705895 H          1 MOL1         0.0794
     124    H59     23.130898   14.251005   18.440513 H          1 MOL1         0.0794
     125    O30     24.915896   14.108865   19.512531 O.3        1 MOL1        -0.5486
     126    H60     25.387503   13.901257   18.676362 H          1 MOL1         0.3769
     127    C1      19.539842   19.311235   20.839160 C.3        1 MOL1        -0.1693
     128    H1      18.925519   18.628588   20.242832 H          1 MOL1         0.0829
     129    H2      19.781859   20.182805   20.224452 H          1 MOL1         0.0829
     130    C2      20.740244   18.628665   21.565779 C.3        1 MOL1        -0.1768
     131    H3      21.192667   17.780943   21.044962 H          1 MOL1         0.0829
     132    H4      21.529844   19.309412   21.903407 H          1 MOL1         0.0829
     133    C3      19.713220   18.270224   22.676336 C.3        1 MOL1         0.1211
     134    H5      19.120930   17.375329   22.458471 H          1 MOL1         0.0786
     135    C4      19.009807   19.600369   22.282785 C.3        1 MOL1        -0.1768
     136    H6      17.925479   19.609686   22.413236 H          1 MOL1         0.0829
     137    H7      19.432014   20.494166   22.757754 H          1 MOL1         0.0829
     138    O1      20.232028   18.221528   23.983811 O.3        1 MOL1        -0.5515
     139    H8      19.473524   18.165510   24.598641 H          1 MOL1         0.3773
@<TRIPOS>BOND
    1     1     2    1
    2     1     3    1
    3     1     4    1
    4     4     5    1
    5     4     6    1
    6     6     7    1
    7     4     8    1
    8     8     9    1
    9     8    10    1
   10    10    11    1
   11     8    12    1
   12    12    13    1
   13    12    14    1
   14    14    15    1
   15     1    16    1
   16    14    16    1
   17    14    17    1
   18    17    18    1
   19    17    19    1
   20    17    20    1
   21    20    21    1
   22    22    23    1
   23    22    24    1
   24    22    25    1
   25    25    26    1
   26    25    27    1
   27    27    28    1
   28    25    29    1
   29    29    30    1
   30    29    31    1
   31    31    32    1
   32     3    33    1
   33    29    33    1
   34    33    34    1
   35    33    35    1
   36    35    36    1
   37    22    37    1
   38    35    37    1
   39    35    38    1
   40    38    39    1
   41    38    40    1
   42    38    41    1
   43    41    42    1
   44    43    44    1
   45    43    45    1
   46    43    46    1
   47    46    47    1
   48    46    48    1
   49    48    49    1
   50    46    50    1
   51    50    51    1
   52    50    52    1
   53    52    53    1
   54    24    54    1
   55    50    54    1
   56    54    55    1
   57    54    56    1
   58    56    57    1
   59    43    58    1
   60    56    58    1
   61    56    59    1
   62    59    60    1
   63    59    61    1
   64    59    62    1
   65    62    63    1
   66    64    65    1
   67    64    66    1
   68    64    67    1
   69    67    68    1
   70    67    69    1
   71    69    70    1
   72    67    71    1
   73    71    72    1
   74    71    73    1
   75    73    74    1
   76    45    75    1
   77    71    75    1
   78    75    76    1
   79    75    77    1
   80    77    78    1
   81    64    79    1
   82    77    79    1
   83    77    80    1
   84    80    81    1
   85    80    82    1
   86    80    83    1
   87    83    84    1
   88    85    86    1
   89    85    87    1
   90    85    88    1
   91    88    89    1
   92    88    90    1
   93    90    91    1
   94    88    92    1
   95    92    93    1
   96    92    94    1
   97    94    95    1
   98    66    96    1
   99    92    96    1
  100    96    97    1
  101    96    98    1
  102    98    99    1
  103    85   100    1
  104    98   100    1
  105    98   101    1
  106   101   102    1
  107   101   103    1
  108   101   104    1
  109   104   105    1
  110   106   107    1
  111    12   108    1
  112   106   108    1
  113   106   109    1
  114   109   110    1
  115   109   111    1
  116   111   112    1
  117   109   113    1
  118   113   114    1
  119   113   115    1
  120   115   116    1
  121    87   117    1
  122   113   117    1
  123   117   118    1
  124   117   119    1
  125   119   120    1
  126   106   121    1
  127   119   121    1
  128   119   122    1
  129   122   123    1
  130   122   124    1
  131   122   125    1
  132   125   126    1
  133   127   128    1
  134   127   129    1
  135   127   130    1
  136   130   131    1
  137   130   132    1
  138   130   133    1
  139   133   134    1
  140   127   135    1
  141   133   135    1
  142   135   136    1
  143   135   137    1
  144   133   138    1
  145   138   139    1
@<TRIPOS>SUBSTRUCTURE
       1 MOL1            1 RESIDUE      1      MOL     
       2 MOL1          139 RESIDUE      1      MOL     
@<SCITEGIC>MOL_PROPERTY
feprocess Rank
SciTegic.value.IntegerValue
149

@<SCITEGIC>MOL_PROPERTY
Conf_Id
SciTegic.value.IntegerValue
841

@<SCITEGIC>MOL_PROPERTY
Probability
SciTegic.value.DoubleValue
0.01

@<SCITEGIC>MOL_PROPERTY
G
SciTegic.value.DoubleValue
549.846

@<SCITEGIC>MOL_PROPERTY
E
SciTegic.value.DoubleValue
373.612

@<SCITEGIC>MOL_PROPERTY
-TS
SciTegic.value.DoubleValue
176.234

@<SCITEGIC>MOL_PROPERTY
U+W
SciTegic.value.DoubleValue
251.101

@<SCITEGIC>MOL_PROPERTY
U
SciTegic.value.DoubleValue
290.831

@<SCITEGIC>MOL_PROPERTY
W
SciTegic.value.DoubleValue
-39.730

@<SCITEGIC>MOL_PROPERTY
W(PB)
SciTegic.value.DoubleValue
-45.623

@<SCITEGIC>MOL_PROPERTY
W(SA)
SciTegic.value.DoubleValue
5.892

@<SCITEGIC>MOL_PROPERTY
Valence
SciTegic.value.DoubleValue
156.403

@<SCITEGIC>MOL_PROPERTY
Coulomb
SciTegic.value.DoubleValue
157.933

@<SCITEGIC>MOL_PROPERTY
VdW
SciTegic.value.DoubleValue
-23.505

@<SCITEGIC>MOL_PROPERTY
VdW6
SciTegic.value.DoubleValue
-169.205

@<SCITEGIC>MOL_PROPERTY
VdW12
SciTegic.value.DoubleValue
145.700

@<SCITEGIC>MOL_PROPERTY
Bond
SciTegic.value.DoubleValue
4.559

@<SCITEGIC>MOL_PROPERTY
Angle
SciTegic.value.DoubleValue
11.811

@<SCITEGIC>MOL_PROPERTY
Pdih
SciTegic.value.DoubleValue
140.033

@<SCITEGIC>MOL_PROPERTY
Idih
SciTegic.value.DoubleValue
0.000

@<SCITEGIC>MOL_PROPERTY
Tether
SciTegic.value.DoubleValue
0.000

@<TRIPOS>MOLECULE
CD_guest-s16_fast_vm2_rndm.mol2 : feprocess host+ligand conformer 150
         139         145           2
SMALL
USER_CHARGES
 
@<TRIPOS>ATOM
       1    C1      16.186669   15.307016   20.244577 C.3        1 MOL1         0.2972
       2    H1      15.191630   15.227174   19.788138 H          1 MOL1         0.0751
       3    O1      16.396438   16.602521   20.840284 O.3        1 MOL1        -0.3740
       4    C2      16.411177   14.206978   21.316107 C.3        1 MOL1         0.1003
       5    H2      16.366833   13.239952   20.798377 H          1 MOL1         0.0783
       6    O2      15.397317   14.231134   22.331420 O.3        1 MOL1        -0.5519
       7    H3      15.442262   15.119173   22.768295 H          1 MOL1         0.3769
       8    C3      17.821976   14.344620   21.940939 C.3        1 MOL1         0.1053
       9    H4      17.863992   15.291203   22.499451 H          1 MOL1         0.0783
      10    O3      18.062331   13.246847   22.828152 O.3        1 MOL1        -0.5519
      11    H5      17.250268   13.176405   23.376954 H          1 MOL1         0.3769
      12    C4      18.915502   14.377163   20.842394 C.3        1 MOL1         0.1018
      13    H6      19.021854   13.362597   20.436844 H          1 MOL1         0.0783
      14    C5      18.571205   15.364250   19.687985 C.3        1 MOL1         0.1043
      15    H7      18.647073   16.386398   20.077204 H          1 MOL1         0.0783
      16    O4      17.211416   15.126793   19.241925 O.3        1 MOL1        -0.3740
      17    C6      19.508181   15.293750   18.454596 C.3        1 MOL1         0.0138
      18    H8      20.342061   15.988508   18.611307 H          1 MOL1         0.0794
      19    H9      18.956748   15.656723   17.576990 H          1 MOL1         0.0794
      20    O5      20.020256   13.980737   18.202437 O.3        1 MOL1        -0.5486
      21    H10     20.789284   13.857714   18.805635 H          1 MOL1         0.3769
      22    C7      14.821985   20.155962   22.051225 C.3        1 MOL1         0.2972
      23    H11     14.228627   21.023894   22.366919 H          1 MOL1         0.0751
      24    O6      16.202475   20.507693   21.823786 O.3        1 MOL1        -0.3740
      25    C8      14.764992   19.063271   23.142172 C.3        1 MOL1         0.1003
      26    H12     13.717035   18.753712   23.247265 H          1 MOL1         0.0783
      27    O7      15.237311   19.579151   24.397736 O.3        1 MOL1        -0.5519
      28    H13     15.734341   20.411355   24.200732 H          1 MOL1         0.3769
      29    C9      15.589340   17.827494   22.720128 C.3        1 MOL1         0.1053
      30    H14     16.644617   18.117662   22.725347 H          1 MOL1         0.0783
      31    O8      15.380598   16.778260   23.669198 O.3        1 MOL1        -0.5519
      32    H15     15.588325   17.185089   24.539819 H          1 MOL1         0.3769
      33    C10     15.242825   17.338740   21.289193 C.3        1 MOL1         0.1018
      34    H16     14.339911   16.715388   21.332287 H          1 MOL1         0.0783
      35    C11     15.058003   18.497978   20.266241 C.3        1 MOL1         0.1043
      36    H17     16.058326   18.864580   20.005007 H          1 MOL1         0.0783
      37    O9      14.294983   19.594328   20.832558 O.3        1 MOL1        -0.3740
      38    C12     14.381327   18.055431   18.947283 C.3        1 MOL1         0.0138
      39    H18     15.082340   17.416463   18.393345 H          1 MOL1         0.0794
      40    H19     14.195754   18.946077   18.331831 H          1 MOL1         0.0794
      41    O10     13.158167   17.346655   19.180267 O.3        1 MOL1        -0.5486
      42    H20     12.747001   17.165894   18.306746 H          1 MOL1         0.3769
      43    C13     18.531585   23.968576   21.393785 C.3        1 MOL1         0.2972
      44    H21     18.832100   25.011356   21.229669 H          1 MOL1         0.0751
      45    O11     19.676449   23.110383   21.551470 O.3        1 MOL1        -0.3740
      46    C14     17.696824   23.865187   22.696038 C.3        1 MOL1         0.1003
      47    H22     16.827347   24.526466   22.587125 H          1 MOL1         0.0783
      48    O12     18.480397   24.290490   23.822234 O.3        1 MOL1        -0.5519
      49    H23     19.421889   24.088686   23.601643 H          1 MOL1         0.3769
      50    C15     17.179033   22.422895   22.913197 C.3        1 MOL1         0.1053
      51    H24     18.042220   21.771750   23.105499 H          1 MOL1         0.0783
      52    O13     16.290662   22.394824   24.034803 O.3        1 MOL1        -0.5519
      53    H25     16.740699   22.927282   24.728622 H          1 MOL1         0.3769
      54    C16     16.455763   21.912726   21.644899 C.3        1 MOL1         0.1018
      55    H26     15.527370   22.484523   21.513802 H          1 MOL1         0.0783
      56    C17     17.334444   22.089663   20.378738 C.3        1 MOL1         0.1043
      57    H27     18.222160   21.453274   20.485796 H          1 MOL1         0.0783
      58    O14     17.744014   23.478339   20.284360 O.3        1 MOL1        -0.3740
      59    C18     16.639169   21.683375   19.052577 C.3        1 MOL1         0.0138
      60    H28     16.825109   20.616710   18.875674 H          1 MOL1         0.0794
      61    H29     17.113680   22.228634   18.225839 H          1 MOL1         0.0794
      62    O15     15.227430   21.928811   19.054500 O.3        1 MOL1        -0.5486
      63    H30     14.813755   21.252001   19.639496 H          1 MOL1         0.3769
      64    C19     23.659996   22.649480   20.471824 C.3        1 MOL1         0.2972
      65    H31     24.672722   22.743603   20.060942 H          1 MOL1         0.0751
      66    O16     23.429071   21.337198   21.024569 O.3        1 MOL1        -0.3740
      67    C20     23.387162   23.726651   21.555022 C.3        1 MOL1         0.1003
      68    H32     23.454399   24.704644   21.060765 H          1 MOL1         0.0783
      69    O17     24.355014   23.678973   22.613413 O.3        1 MOL1        -0.5519
      70    H33     24.270587   22.793071   23.048093 H          1 MOL1         0.3769
      71    C21     21.949874   23.574879   22.110948 C.3        1 MOL1         0.1053
      72    H34     21.884807   22.613581   22.639811 H          1 MOL1         0.0783
      73    O18     21.666096   24.645674   23.017847 O.3        1 MOL1        -0.5519
      74    H35     22.463442   24.720767   23.587615 H          1 MOL1         0.3769
      75    C22     20.907664   23.571024   20.963467 C.3        1 MOL1         0.1018
      76    H36     20.823506   24.594665   20.575714 H          1 MOL1         0.0783
      77    C23     21.302724   22.606891   19.805625 C.3        1 MOL1         0.1043
      78    H37     21.206503   21.576874   20.169240 H          1 MOL1         0.0783
      79    O19     22.682086   22.850394   19.428146 O.3        1 MOL1        -0.3740
      80    C24     20.426017   22.706779   18.530759 C.3        1 MOL1         0.0138
      81    H38     19.583272   22.012642   18.632707 H          1 MOL1         0.0794
      82    H39     21.017550   22.359449   17.673147 H          1 MOL1         0.0794
      83    O20     19.931746   24.027120   18.281724 O.3        1 MOL1        -0.5486
      84    H40     19.129481   24.137735   18.842479 H          1 MOL1         0.3769
      85    C25     24.930803   17.772896   22.303823 C.3        1 MOL1         0.2972
      86    H41     25.501199   16.900972   22.649469 H          1 MOL1         0.0751
      87    O21     23.570529   17.425688   21.973646 O.3        1 MOL1        -0.3740
      88    C26     24.911168   18.854941   23.406487 C.3        1 MOL1         0.1003
      89    H42     25.947940   19.171775   23.579393 H          1 MOL1         0.0783
      90    O22     24.365030   18.328670   24.626696 O.3        1 MOL1        -0.5519
      91    H43     23.878476   17.499558   24.392390 H          1 MOL1         0.3769
      92    C27     24.103417   20.085872   22.942198 C.3        1 MOL1         0.1053
      93    H44     23.055254   19.780364   22.866245 H          1 MOL1         0.0783
      94    O23     24.225558   21.120491   23.921469 O.3        1 MOL1        -0.5519
      95    H45     24.086164   20.664903   24.782290 H          1 MOL1         0.3769
      96    C28     24.551383   20.599859   21.547875 C.3        1 MOL1         0.1018
      97    H46     25.443517   21.227152   21.669385 H          1 MOL1         0.0783
      98    C29     24.821065   19.455150   20.525934 C.3        1 MOL1         0.1043
      99    H47     23.844862   19.090221   20.182938 H          1 MOL1         0.0783
     100    O24     25.541229   18.351663   21.133276 O.3        1 MOL1        -0.3740
     101    C30     25.598450   19.912513   19.268018 C.3        1 MOL1         0.0138
     102    H48     24.977628   20.623588   18.706379 H          1 MOL1         0.0794
     103    H49     25.752557   19.039014   18.620431 H          1 MOL1         0.0794
     104    O25     26.862467   20.508041   19.589200 O.3        1 MOL1        -0.5486
     105    H50     26.698144   21.365208   20.033465 H          1 MOL1         0.3769
     106    C31     21.266860   13.970271   21.387477 C.3        1 MOL1         0.2972
     107    H51     20.973245   12.930063   21.196850 H          1 MOL1         0.0751
     108    O26     20.117643   14.830119   21.492633 O.3        1 MOL1        -0.3740
     109    C32     22.033464   14.058320   22.732175 C.3        1 MOL1         0.1003
     110    H52     22.909472   13.400750   22.659656 H          1 MOL1         0.0783
     111    O27     21.195197   13.616634   23.811164 O.3        1 MOL1        -0.5519
     112    H53     20.273906   13.884499   23.576387 H          1 MOL1         0.3769
     113    C33     22.534466   15.498968   22.993129 C.3        1 MOL1         0.1053
     114    H54     21.658522   16.144343   23.143949 H          1 MOL1         0.0783
     115    O28     23.360582   15.516114   24.161854 O.3        1 MOL1        -0.5519
     116    H55     22.867051   14.987228   24.828194 H          1 MOL1         0.3769
     117    C34     23.325466   16.022340   21.771104 C.3        1 MOL1         0.1018
     118    H56     24.259470   15.451382   21.683745 H          1 MOL1         0.0783
     119    C35     22.516133   15.858814   20.457987 C.3        1 MOL1         0.1043
     120    H57     21.623983   16.494312   20.524912 H          1 MOL1         0.0783
     121    O29     22.112422   14.471172   20.326102 O.3        1 MOL1        -0.3740
     122    C36     23.281513   16.281602   19.176420 C.3        1 MOL1         0.0138
     123    H58     23.104516   17.350537   19.003694 H          1 MOL1         0.0794
     124    H59     22.852568   15.746862   18.318493 H          1 MOL1         0.0794
     125    O30     24.691461   16.036759   19.251782 O.3        1 MOL1        -0.5486
     126    H60     25.071600   16.703033   19.870550 H          1 MOL1         0.3769
     127    C1      20.375633   19.585789   22.117207 C.3        1 MOL1        -0.1693
     128    H1      19.921303   20.574204   21.994982 H          1 MOL1         0.0829
     129    H2      21.255944   19.516850   21.468438 H          1 MOL1         0.0829
     130    C2      19.372971   18.393913   22.026090 C.3        1 MOL1        -0.1768
     131    H3      18.520298   18.530623   21.353069 H          1 MOL1         0.0829
     132    H4      19.835732   17.423363   21.823300 H          1 MOL1         0.0829
     133    C3      19.098238   18.658564   23.535713 C.3        1 MOL1         0.1211
     134    H5      18.357156   19.448009   23.719650 H          1 MOL1         0.0786
     135    C4      20.574890   19.146983   23.604980 C.3        1 MOL1        -0.1768
     136    H6      20.779580   19.951458   24.319564 H          1 MOL1         0.0829
     137    H7      21.311194   18.348886   23.754100 H          1 MOL1         0.0829
     138    O1      18.806028   17.509701   24.296119 O.3        1 MOL1        -0.5515
     139    H8      18.821793   17.771940   25.238092 H          1 MOL1         0.3773
@<TRIPOS>BOND
    1     1     2    1
    2     1     3    1
    3     1     4    1
    4     4     5    1
    5     4     6    1
    6     6     7    1
    7     4     8    1
    8     8     9    1
    9     8    10    1
   10    10    11    1
   11     8    12    1
   12    12    13    1
   13    12    14    1
   14    14    15    1
   15     1    16    1
   16    14    16    1
   17    14    17    1
   18    17    18    1
   19    17    19    1
   20    17    20    1
   21    20    21    1
   22    22    23    1
   23    22    24    1
   24    22    25    1
   25    25    26    1
   26    25    27    1
   27    27    28    1
   28    25    29    1
   29    29    30    1
   30    29    31    1
   31    31    32    1
   32     3    33    1
   33    29    33    1
   34    33    34    1
   35    33    35    1
   36    35    36    1
   37    22    37    1
   38    35    37    1
   39    35    38    1
   40    38    39    1
   41    38    40    1
   42    38    41    1
   43    41    42    1
   44    43    44    1
   45    43    45    1
   46    43    46    1
   47    46    47    1
   48    46    48    1
   49    48    49    1
   50    46    50    1
   51    50    51    1
   52    50    52    1
   53    52    53    1
   54    24    54    1
   55    50    54    1
   56    54    55    1
   57    54    56    1
   58    56    57    1
   59    43    58    1
   60    56    58    1
   61    56    59    1
   62    59    60    1
   63    59    61    1
   64    59    62    1
   65    62    63    1
   66    64    65    1
   67    64    66    1
   68    64    67    1
   69    67    68    1
   70    67    69    1
   71    69    70    1
   72    67    71    1
   73    71    72    1
   74    71    73    1
   75    73    74    1
   76    45    75    1
   77    71    75    1
   78    75    76    1
   79    75    77    1
   80    77    78    1
   81    64    79    1
   82    77    79    1
   83    77    80    1
   84    80    81    1
   85    80    82    1
   86    80    83    1
   87    83    84    1
   88    85    86    1
   89    85    87    1
   90    85    88    1
   91    88    89    1
   92    88    90    1
   93    90    91    1
   94    88    92    1
   95    92    93    1
   96    92    94    1
   97    94    95    1
   98    66    96    1
   99    92    96    1
  100    96    97    1
  101    96    98    1
  102    98    99    1
  103    85   100    1
  104    98   100    1
  105    98   101    1
  106   101   102    1
  107   101   103    1
  108   101   104    1
  109   104   105    1
  110   106   107    1
  111    12   108    1
  112   106   108    1
  113   106   109    1
  114   109   110    1
  115   109   111    1
  116   111   112    1
  117   109   113    1
  118   113   114    1
  119   113   115    1
  120   115   116    1
  121    87   117    1
  122   113   117    1
  123   117   118    1
  124   117   119    1
  125   119   120    1
  126   106   121    1
  127   119   121    1
  128   119   122    1
  129   122   123    1
  130   122   124    1
  131   122   125    1
  132   125   126    1
  133   127   128    1
  134   127   129    1
  135   127   130    1
  136   130   131    1
  137   130   132    1
  138   130   133    1
  139   133   134    1
  140   127   135    1
  141   133   135    1
  142   135   136    1
  143   135   137    1
  144   133   138    1
  145   138   139    1
@<TRIPOS>SUBSTRUCTURE
       1 MOL1            1 RESIDUE      1      MOL     
       2 MOL1          139 RESIDUE      1      MOL     
@<SCITEGIC>MOL_PROPERTY
feprocess Rank
SciTegic.value.IntegerValue
150

@<SCITEGIC>MOL_PROPERTY
Conf_Id
SciTegic.value.IntegerValue
831

@<SCITEGIC>MOL_PROPERTY
Probability
SciTegic.value.DoubleValue
0.01

@<SCITEGIC>MOL_PROPERTY
G
SciTegic.value.DoubleValue
549.856

@<SCITEGIC>MOL_PROPERTY
E
SciTegic.value.DoubleValue
372.654

@<SCITEGIC>MOL_PROPERTY
-TS
SciTegic.value.DoubleValue
177.202

@<SCITEGIC>MOL_PROPERTY
U+W
SciTegic.value.DoubleValue
250.143

@<SCITEGIC>MOL_PROPERTY
U
SciTegic.value.DoubleValue
289.214

@<SCITEGIC>MOL_PROPERTY
W
SciTegic.value.DoubleValue
-39.072

@<SCITEGIC>MOL_PROPERTY
W(PB)
SciTegic.value.DoubleValue
-45.010

@<SCITEGIC>MOL_PROPERTY
W(SA)
SciTegic.value.DoubleValue
5.938

@<SCITEGIC>MOL_PROPERTY
Valence
SciTegic.value.DoubleValue
155.944

@<SCITEGIC>MOL_PROPERTY
Coulomb
SciTegic.value.DoubleValue
155.305

@<SCITEGIC>MOL_PROPERTY
VdW
SciTegic.value.DoubleValue
-22.035

@<SCITEGIC>MOL_PROPERTY
VdW6
SciTegic.value.DoubleValue
-168.715

@<SCITEGIC>MOL_PROPERTY
VdW12
SciTegic.value.DoubleValue
146.680

@<SCITEGIC>MOL_PROPERTY
Bond
SciTegic.value.DoubleValue
4.596

@<SCITEGIC>MOL_PROPERTY
Angle
SciTegic.value.DoubleValue
12.762

@<SCITEGIC>MOL_PROPERTY
Pdih
SciTegic.value.DoubleValue
138.586

@<SCITEGIC>MOL_PROPERTY
Idih
SciTegic.value.DoubleValue
0.000

@<SCITEGIC>MOL_PROPERTY
Tether
SciTegic.value.DoubleValue
0.000

@<TRIPOS>MOLECULE
CD_guest-s16_fast_vm2_rndm.mol2 : feprocess host+ligand conformer 151
         139         145           2
SMALL
USER_CHARGES
 
@<TRIPOS>ATOM
       1    C1      16.071558   15.003038   21.847622 C.3        1 MOL1         0.2972
       2    H1      15.008291   14.830526   22.058191 H          1 MOL1         0.0751
       3    O1      16.398868   16.405119   21.856410 O.3        1 MOL1        -0.3740
       4    C2      16.940822   14.319527   22.927615 C.3        1 MOL1         0.1003
       5    H2      16.755340   13.238778   22.874972 H          1 MOL1         0.0783
       6    O2      16.583641   14.806569   24.231293 O.3        1 MOL1        -0.5519
       7    H3      16.273071   15.737121   24.111863 H          1 MOL1         0.3769
       8    C3      18.441695   14.568220   22.651559 C.3        1 MOL1         0.1053
       9    H4      18.640390   15.635030   22.810411 H          1 MOL1         0.0783
      10    O3      19.230451   13.797832   23.563951 O.3        1 MOL1        -0.5519
      11    H5      18.818373   13.947230   24.444263 H          1 MOL1         0.3769
      12    C4      18.832028   14.222658   21.192470 C.3        1 MOL1         0.1018
      13    H6      18.964420   13.135406   21.112735 H          1 MOL1         0.0783
      14    C5      17.801079   14.724211   20.139003 C.3        1 MOL1         0.1043
      15    H7      17.935213   15.809058   20.040965 H          1 MOL1         0.0783
      16    O4      16.440032   14.456202   20.565638 O.3        1 MOL1        -0.3740
      17    C6      18.001348   14.112927   18.731521 C.3        1 MOL1         0.0138
      18    H8      18.914474   14.537378   18.292733 H          1 MOL1         0.0794
      19    H9      17.161269   14.418682   18.093508 H          1 MOL1         0.0794
      20    O5      18.100200   12.684182   18.772841 O.3        1 MOL1        -0.5486
      21    H10     18.140126   12.360812   17.846270 H          1 MOL1         0.3769
      22    C7      14.823888   20.204252   21.374131 C.3        1 MOL1         0.2972
      23    H11     14.176901   21.076537   21.213000 H          1 MOL1         0.0751
      24    O6      16.207762   20.588639   21.492546 O.3        1 MOL1        -0.3740
      25    C8      14.411964   19.480653   22.679261 C.3        1 MOL1         0.1003
      26    H12     13.370206   19.154004   22.564743 H          1 MOL1         0.0783
      27    O7      14.511220   20.374982   23.798810 O.3        1 MOL1        -0.5519
      28    H13     15.071805   21.132518   23.503839 H          1 MOL1         0.3769
      29    C9      15.288063   18.227832   22.907207 C.3        1 MOL1         0.1053
      30    H14     16.312867   18.566616   23.105992 H          1 MOL1         0.0783
      31    O8      14.800537   17.491918   24.034033 O.3        1 MOL1        -0.5519
      32    H15     14.645104   18.168865   24.729950 H          1 MOL1         0.3769
      33    C10     15.309582   17.320814   21.652408 C.3        1 MOL1         0.1018
      34    H16     14.341146   16.809753   21.573187 H          1 MOL1         0.0783
      35    C11     15.592152   18.118957   20.347430 C.3        1 MOL1         0.1043
      36    H17     16.630771   18.462803   20.391451 H          1 MOL1         0.0783
      37    O9      14.713897   19.271359   20.276445 O.3        1 MOL1        -0.3740
      38    C12     15.447192   17.309948   19.031512 C.3        1 MOL1         0.0138
      39    H18     16.421705   16.875174   18.778639 H          1 MOL1         0.0794
      40    H19     15.194284   18.004413   18.219111 H          1 MOL1         0.0794
      41    O10     14.465892   16.270304   19.108593 O.3        1 MOL1        -0.5486
      42    H20     14.894337   15.507972   19.562466 H          1 MOL1         0.3769
      43    C13     18.652552   23.883511   20.637726 C.3        1 MOL1         0.2972
      44    H21     19.050593   24.809017   20.202260 H          1 MOL1         0.0751
      45    O11     19.605243   23.259708   21.517999 O.3        1 MOL1        -0.3740
      46    C14     17.386672   24.184452   21.482707 C.3        1 MOL1         0.1003
      47    H22     16.662163   24.686811   20.828721 H          1 MOL1         0.0783
      48    O12     17.720057   25.045732   22.583176 O.3        1 MOL1        -0.5519
      49    H23     18.550840   24.684218   22.976414 H          1 MOL1         0.3769
      50    C15     16.737961   22.879941   22.012031 C.3        1 MOL1         0.1053
      51    H24     17.409710   22.449306   22.764925 H          1 MOL1         0.0783
      52    O13     15.474741   23.179006   22.615392 O.3        1 MOL1        -0.5519
      53    H25     15.639767   23.962761   23.185432 H          1 MOL1         0.3769
      54    C16     16.555081   21.841765   20.877666 C.3        1 MOL1         0.1018
      55    H26     15.768248   22.195448   20.198116 H          1 MOL1         0.0783
      56    C17     17.863003   21.641929   20.066407 C.3        1 MOL1         0.1043
      57    H27     18.627762   21.207768   20.723267 H          1 MOL1         0.0783
      58    O14     18.301389   22.939564   19.601434 O.3        1 MOL1        -0.3740
      59    C18     17.733103   20.698084   18.843360 C.3        1 MOL1         0.0138
      60    H28     17.952668   19.674663   19.171127 H          1 MOL1         0.0794
      61    H29     18.508167   20.965216   18.112780 H          1 MOL1         0.0794
      62    O15     16.439594   20.743471   18.226971 O.3        1 MOL1        -0.5486
      63    H30     15.796898   20.351494   18.862516 H          1 MOL1         0.3769
      64    C19     23.716091   22.864494   21.900343 C.3        1 MOL1         0.2972
      65    H31     24.800655   23.023958   21.951924 H          1 MOL1         0.0751
      66    O16     23.373417   21.467378   22.007380 O.3        1 MOL1        -0.3740
      67    C20     23.010787   23.615596   23.054494 C.3        1 MOL1         0.1003
      68    H32     23.246532   24.682363   22.947180 H          1 MOL1         0.0783
      69    O17     23.486013   23.150326   24.328929 O.3        1 MOL1        -0.5519
      70    H33     23.639033   22.175265   24.250686 H          1 MOL1         0.3769
      71    C21     21.475097   23.454793   22.957714 C.3        1 MOL1         0.1053
      72    H34     21.230351   22.404138   23.158994 H          1 MOL1         0.0783
      73    O18     20.847603   24.292220   23.935809 O.3        1 MOL1        -0.5519
      74    H35     21.338338   24.121853   24.769940 H          1 MOL1         0.3769
      75    C22     20.938320   23.806651   21.547545 C.3        1 MOL1         0.1018
      76    H36     20.925775   24.899953   21.448547 H          1 MOL1         0.0783
      77    C23     21.788486   23.171464   20.403740 C.3        1 MOL1         0.1043
      78    H37     21.581405   22.094907   20.375478 H          1 MOL1         0.0783
      79    O19     23.199035   23.379007   20.658430 O.3        1 MOL1        -0.3740
      80    C24     21.500054   23.736447   18.990630 C.3        1 MOL1         0.0138
      81    H38     20.558008   23.313983   18.621584 H          1 MOL1         0.0794
      82    H39     22.289678   23.388677   18.311147 H          1 MOL1         0.0794
      83    O20     21.434657   25.168383   18.979086 O.3        1 MOL1        -0.5486
      84    H40     21.330036   25.453698   18.045283 H          1 MOL1         0.3769
      85    C25     24.918009   17.656668   21.740609 C.3        1 MOL1         0.2972
      86    H41     25.528192   16.745791   21.682636 H          1 MOL1         0.0751
      87    O21     23.519263   17.372396   21.550779 O.3        1 MOL1        -0.3740
      88    C26     25.089049   18.318333   23.128248 C.3        1 MOL1         0.1003
      89    H42     26.142676   18.607445   23.235183 H          1 MOL1         0.0783
      90    O22     24.735975   17.395246   24.171216 O.3        1 MOL1        -0.5519
      91    H43     24.274898   16.636972   23.736351 H          1 MOL1         0.3769
      92    C27     24.222628   19.593540   23.219888 C.3        1 MOL1         0.1053
      93    H44     23.174337   19.279556   23.185883 H          1 MOL1         0.0783
      94    O23     24.477042   20.270513   24.454266 O.3        1 MOL1        -0.5519
      95    H45     24.475211   19.561363   25.135503 H          1 MOL1         0.3769
      96    C28     24.485413   20.548496   22.030082 C.3        1 MOL1         0.1018
      97    H46     25.442560   21.056430   22.207113 H          1 MOL1         0.0783
      98    C29     24.522660   19.820351   20.655363 C.3        1 MOL1         0.1043
      99    H47     23.492494   19.556878   20.390547 H          1 MOL1         0.0783
     100    O24     25.316315   18.607175   20.731423 O.3        1 MOL1        -0.3740
     101    C30     25.082381   20.693612   19.507379 C.3        1 MOL1         0.0138
     102    H48     24.353173   21.481859   19.279407 H          1 MOL1         0.0794
     103    H49     25.179001   20.071487   18.607429 H          1 MOL1         0.0794
     104    O25     26.345193   21.281207   19.844729 O.3        1 MOL1        -0.5486
     105    H50     26.654028   21.790936   19.064356 H          1 MOL1         0.3769
     106    C31     21.088028   14.243881   20.222574 C.3        1 MOL1         0.2972
     107    H51     20.694806   13.362759   19.699174 H          1 MOL1         0.0751
     108    O26     20.054746   14.939984   20.944049 O.3        1 MOL1        -0.3740
     109    C32     22.197876   13.847618   21.234460 C.3        1 MOL1         0.1003
     110    H52     23.002783   13.366743   20.663533 H          1 MOL1         0.0783
     111    O27     21.706853   12.924346   22.219272 O.3        1 MOL1        -0.5519
     112    H53     20.902144   13.329699   22.631439 H          1 MOL1         0.3769
     113    C33     22.785423   15.106695   21.920349 C.3        1 MOL1         0.1053
     114    H54     21.999426   15.559508   22.540448 H          1 MOL1         0.0783
     115    O28     23.896674   14.736376   22.743487 O.3        1 MOL1        -0.5519
     116    H55     23.604963   13.926112   23.218532 H          1 MOL1         0.3769
     117    C34     23.227281   16.146496   20.861080 C.3        1 MOL1         0.1018
     118    H56     24.105616   15.758328   20.328301 H          1 MOL1         0.0783
     119    C35     22.103227   16.435981   19.830526 C.3        1 MOL1         0.1043
     120    H57     21.267475   16.923141   20.349118 H          1 MOL1         0.0783
     121    O29     21.657561   15.174613   19.273400 O.3        1 MOL1        -0.3740
     122    C36     22.517946   17.380371   18.672413 C.3        1 MOL1         0.0138
     123    H58     22.298321   18.412182   18.974948 H          1 MOL1         0.0794
     124    H59     21.883762   17.166550   17.801880 H          1 MOL1         0.0794
     125    O30     23.901631   17.266036   18.314142 O.3        1 MOL1        -0.5486
     126    H60     24.429382   17.623311   19.065712 H          1 MOL1         0.3769
     127    C1      19.087111   20.020181   23.529445 C.3        1 MOL1        -0.1693
     128    H1      18.355092   20.048572   24.344688 H          1 MOL1         0.0829
     129    H2      19.070789   20.982845   23.007665 H          1 MOL1         0.0829
     130    C2      19.030238   18.766602   22.595334 C.3        1 MOL1        -0.1768
     131    H3      18.703708   17.848730   23.095000 H          1 MOL1         0.0829
     132    H4      18.466091   18.881704   21.666200 H          1 MOL1         0.0829
     133    C3      20.575146   18.914295   22.465002 C.3        1 MOL1         0.1211
     134    H5      21.121726   17.966727   22.396614 H          1 MOL1         0.0786
     135    C4      20.521086   19.524209   23.901607 C.3        1 MOL1        -0.1768
     136    H6      21.255677   20.303758   24.127822 H          1 MOL1         0.0829
     137    H7      20.548722   18.778413   24.705117 H          1 MOL1         0.0829
     138    O1      20.994909   19.794774   21.441291 O.3        1 MOL1        -0.5515
     139    H8      21.797873   20.257253   21.762677 H          1 MOL1         0.3773
@<TRIPOS>BOND
    1     1     2    1
    2     1     3    1
    3     1     4    1
    4     4     5    1
    5     4     6    1
    6     6     7    1
    7     4     8    1
    8     8     9    1
    9     8    10    1
   10    10    11    1
   11     8    12    1
   12    12    13    1
   13    12    14    1
   14    14    15    1
   15     1    16    1
   16    14    16    1
   17    14    17    1
   18    17    18    1
   19    17    19    1
   20    17    20    1
   21    20    21    1
   22    22    23    1
   23    22    24    1
   24    22    25    1
   25    25    26    1
   26    25    27    1
   27    27    28    1
   28    25    29    1
   29    29    30    1
   30    29    31    1
   31    31    32    1
   32     3    33    1
   33    29    33    1
   34    33    34    1
   35    33    35    1
   36    35    36    1
   37    22    37    1
   38    35    37    1
   39    35    38    1
   40    38    39    1
   41    38    40    1
   42    38    41    1
   43    41    42    1
   44    43    44    1
   45    43    45    1
   46    43    46    1
   47    46    47    1
   48    46    48    1
   49    48    49    1
   50    46    50    1
   51    50    51    1
   52    50    52    1
   53    52    53    1
   54    24    54    1
   55    50    54    1
   56    54    55    1
   57    54    56    1
   58    56    57    1
   59    43    58    1
   60    56    58    1
   61    56    59    1
   62    59    60    1
   63    59    61    1
   64    59    62    1
   65    62    63    1
   66    64    65    1
   67    64    66    1
   68    64    67    1
   69    67    68    1
   70    67    69    1
   71    69    70    1
   72    67    71    1
   73    71    72    1
   74    71    73    1
   75    73    74    1
   76    45    75    1
   77    71    75    1
   78    75    76    1
   79    75    77    1
   80    77    78    1
   81    64    79    1
   82    77    79    1
   83    77    80    1
   84    80    81    1
   85    80    82    1
   86    80    83    1
   87    83    84    1
   88    85    86    1
   89    85    87    1
   90    85    88    1
   91    88    89    1
   92    88    90    1
   93    90    91    1
   94    88    92    1
   95    92    93    1
   96    92    94    1
   97    94    95    1
   98    66    96    1
   99    92    96    1
  100    96    97    1
  101    96    98    1
  102    98    99    1
  103    85   100    1
  104    98   100    1
  105    98   101    1
  106   101   102    1
  107   101   103    1
  108   101   104    1
  109   104   105    1
  110   106   107    1
  111    12   108    1
  112   106   108    1
  113   106   109    1
  114   109   110    1
  115   109   111    1
  116   111   112    1
  117   109   113    1
  118   113   114    1
  119   113   115    1
  120   115   116    1
  121    87   117    1
  122   113   117    1
  123   117   118    1
  124   117   119    1
  125   119   120    1
  126   106   121    1
  127   119   121    1
  128   119   122    1
  129   122   123    1
  130   122   124    1
  131   122   125    1
  132   125   126    1
  133   127   128    1
  134   127   129    1
  135   127   130    1
  136   130   131    1
  137   130   132    1
  138   130   133    1
  139   133   134    1
  140   127   135    1
  141   133   135    1
  142   135   136    1
  143   135   137    1
  144   133   138    1
  145   138   139    1
@<TRIPOS>SUBSTRUCTURE
       1 MOL1            1 RESIDUE      1      MOL     
       2 MOL1          139 RESIDUE      1      MOL     
@<SCITEGIC>MOL_PROPERTY
feprocess Rank
SciTegic.value.IntegerValue
151

@<SCITEGIC>MOL_PROPERTY
Conf_Id
SciTegic.value.IntegerValue
143

@<SCITEGIC>MOL_PROPERTY
Probability
SciTegic.value.DoubleValue
0.01

@<SCITEGIC>MOL_PROPERTY
G
SciTegic.value.DoubleValue
549.864

@<SCITEGIC>MOL_PROPERTY
E
SciTegic.value.DoubleValue
371.128

@<SCITEGIC>MOL_PROPERTY
-TS
SciTegic.value.DoubleValue
178.736

@<SCITEGIC>MOL_PROPERTY
U+W
SciTegic.value.DoubleValue
248.617

@<SCITEGIC>MOL_PROPERTY
U
SciTegic.value.DoubleValue
283.185

@<SCITEGIC>MOL_PROPERTY
W
SciTegic.value.DoubleValue
-34.568

@<SCITEGIC>MOL_PROPERTY
W(PB)
SciTegic.value.DoubleValue
-40.517

@<SCITEGIC>MOL_PROPERTY
W(SA)
SciTegic.value.DoubleValue
5.949

@<SCITEGIC>MOL_PROPERTY
Valence
SciTegic.value.DoubleValue
153.540

@<SCITEGIC>MOL_PROPERTY
Coulomb
SciTegic.value.DoubleValue
152.403

@<SCITEGIC>MOL_PROPERTY
VdW
SciTegic.value.DoubleValue
-22.758

@<SCITEGIC>MOL_PROPERTY
VdW6
SciTegic.value.DoubleValue
-169.253

@<SCITEGIC>MOL_PROPERTY
VdW12
SciTegic.value.DoubleValue
146.494

@<SCITEGIC>MOL_PROPERTY
Bond
SciTegic.value.DoubleValue
4.413

@<SCITEGIC>MOL_PROPERTY
Angle
SciTegic.value.DoubleValue
11.372

@<SCITEGIC>MOL_PROPERTY
Pdih
SciTegic.value.DoubleValue
137.756

@<SCITEGIC>MOL_PROPERTY
Idih
SciTegic.value.DoubleValue
0.000

@<SCITEGIC>MOL_PROPERTY
Tether
SciTegic.value.DoubleValue
0.000

@<TRIPOS>MOLECULE
CD_guest-s16_fast_vm2_rndm.mol2 : feprocess host+ligand conformer 152
         139         145           2
SMALL
USER_CHARGES
 
@<TRIPOS>ATOM
       1    C1      16.251437   15.286015   21.471815 C.3        1 MOL1         0.2972
       2    H1      15.163399   15.154613   21.407766 H          1 MOL1         0.0751
       3    O1      16.600660   16.684065   21.437476 O.3        1 MOL1        -0.3740
       4    C2      16.765262   14.644763   22.785448 C.3        1 MOL1         0.1003
       5    H2      16.459871   13.590581   22.762814 H          1 MOL1         0.0783
       6    O2      16.182238   15.275310   23.935474 O.3        1 MOL1        -0.5519
       7    H3      16.483293   16.217508   23.926566 H          1 MOL1         0.3769
       8    C3      18.304997   14.687840   22.896945 C.3        1 MOL1         0.1053
       9    H4      18.603200   15.729110   23.065114 H          1 MOL1         0.0783
      10    O3      18.695380   13.877072   24.009201 O.3        1 MOL1        -0.5519
      11    H5      18.040508   14.083474   24.714847 H          1 MOL1         0.3769
      12    C4      19.010072   14.208248   21.605142 C.3        1 MOL1         0.1018
      13    H6      18.995894   13.111878   21.559648 H          1 MOL1         0.0783
      14    C5      18.354906   14.790329   20.325527 C.3        1 MOL1         0.1043
      15    H7      18.601718   15.857922   20.298496 H          1 MOL1         0.0783
      16    O4      16.912614   14.636098   20.363953 O.3        1 MOL1        -0.3740
      17    C6      18.893211   14.163023   19.015083 C.3        1 MOL1         0.0138
      18    H8      19.925755   14.504258   18.861571 H          1 MOL1         0.0794
      19    H9      18.299827   14.542939   18.173203 H          1 MOL1         0.0794
      20    O5      18.855391   12.731185   19.032257 O.3        1 MOL1        -0.5486
      21    H10     19.594447   12.421797   19.598549 H          1 MOL1         0.3769
      22    C7      15.181779   20.357030   20.092226 C.3        1 MOL1         0.2972
      23    H11     14.671004   21.181051   19.577596 H          1 MOL1         0.0751
      24    O6      16.294462   20.827273   20.874163 O.3        1 MOL1        -0.3740
      25    C8      14.207960   19.588020   21.021226 C.3        1 MOL1         0.1003
      26    H12     13.402077   19.195424   20.387549 H          1 MOL1         0.0783
      27    O7      13.640136   20.453437   22.017828 O.3        1 MOL1        -0.5519
      28    H13     14.391978   20.853281   22.524079 H          1 MOL1         0.3769
      29    C9      14.910925   18.383161   21.695364 C.3        1 MOL1         0.1053
      30    H14     15.626950   18.773303   22.429125 H          1 MOL1         0.0783
      31    O8      13.922379   17.587084   22.355969 O.3        1 MOL1        -0.5519
      32    H15     13.398152   18.217268   22.896790 H          1 MOL1         0.3769
      33    C10     15.693672   17.512614   20.676073 C.3        1 MOL1         0.1018
      34    H16     14.965552   16.913267   20.114058 H          1 MOL1         0.0783
      35    C11     16.528212   18.358616   19.670885 C.3        1 MOL1         0.1043
      36    H17     17.375691   18.800100   20.210520 H          1 MOL1         0.0783
      37    O9      15.696400   19.414118   19.130565 O.3        1 MOL1        -0.3740
      38    C12     17.117982   17.567867   18.473711 C.3        1 MOL1         0.0138
      39    H18     18.115234   17.205583   18.747354 H          1 MOL1         0.0794
      40    H19     17.262027   18.263328   17.636026 H          1 MOL1         0.0794
      41    O10     16.297084   16.469756   18.056989 O.3        1 MOL1        -0.5486
      42    H20     16.356480   15.776765   18.755944 H          1 MOL1         0.3769
      43    C13     18.359201   24.105527   22.120080 C.3        1 MOL1         0.2972
      44    H21     18.765607   25.075005   22.435558 H          1 MOL1         0.0751
      45    O11     19.384613   23.100527   22.001925 O.3        1 MOL1        -0.3740
      46    C14     17.326386   23.602287   23.153566 C.3        1 MOL1         0.1003
      47    H22     16.489502   24.312630   23.168218 H          1 MOL1         0.0783
      48    O12     17.917528   23.528696   24.461205 O.3        1 MOL1        -0.5519
      49    H23     18.887715   23.379786   24.334516 H          1 MOL1         0.3769
      50    C15     16.782740   22.220470   22.729455 C.3        1 MOL1         0.1053
      51    H24     17.610153   21.504735   22.802423 H          1 MOL1         0.0783
      52    O13     15.726598   21.825828   23.611199 O.3        1 MOL1        -0.5519
      53    H25     16.062514   22.026443   24.513389 H          1 MOL1         0.3769
      54    C16     16.281013   22.212281   21.264330 C.3        1 MOL1         0.1018
      55    H26     15.271240   22.642974   21.235923 H          1 MOL1         0.0783
      56    C17     17.222682   22.965692   20.277360 C.3        1 MOL1         0.1043
      57    H27     18.087137   22.316579   20.088186 H          1 MOL1         0.0783
      58    O14     17.692277   24.215613   20.846938 O.3        1 MOL1        -0.3740
      59    C18     16.576713   23.267082   18.903996 C.3        1 MOL1         0.0138
      60    H28     16.474890   22.323726   18.350778 H          1 MOL1         0.0794
      61    H29     17.258412   23.908753   18.329603 H          1 MOL1         0.0794
      62    O15     15.295576   23.894600   19.036025 O.3        1 MOL1        -0.5486
      63    H30     14.986599   24.135037   18.135192 H          1 MOL1         0.3769
      64    C19     23.510796   22.660110   21.702254 C.3        1 MOL1         0.2972
      65    H31     24.589323   22.847917   21.622658 H          1 MOL1         0.0751
      66    O16     23.208836   21.253815   21.630113 O.3        1 MOL1        -0.3740
      67    C20     22.988526   23.185367   23.062967 C.3        1 MOL1         0.1003
      68    H32     23.195852   24.262528   23.105661 H          1 MOL1         0.0783
      69    O17     23.663256   22.527997   24.147692 O.3        1 MOL1        -0.5519
      70    H33     23.998090   21.665788   23.797362 H          1 MOL1         0.3769
      71    C21     21.459559   22.985915   23.176033 C.3        1 MOL1         0.1053
      72    H34     21.257440   21.907054   23.209545 H          1 MOL1         0.0783
      73    O18     20.975967   23.606020   24.372147 O.3        1 MOL1        -0.5519
      74    H35     21.611092   23.334024   25.071900 H          1 MOL1         0.3769
      75    C22     20.738033   23.575890   21.941739 C.3        1 MOL1         0.1018
      76    H36     20.799359   24.671244   21.986549 H          1 MOL1         0.0783
      77    C23     21.363255   23.074981   20.610683 C.3        1 MOL1         0.1043
      78    H37     21.181059   21.994912   20.539076 H          1 MOL1         0.0783
      79    O19     22.792926   23.320949   20.636008 O.3        1 MOL1        -0.3740
      80    C24     20.770663   23.715876   19.328395 C.3        1 MOL1         0.0138
      81    H38     19.916981   23.110651   18.998863 H          1 MOL1         0.0794
      82    H39     21.523160   23.662412   18.530235 H          1 MOL1         0.0794
      83    O20     20.348526   25.071453   19.515149 O.3        1 MOL1        -0.5486
      84    H40     19.466082   25.038039   19.951617 H          1 MOL1         0.3769
      85    C25     24.823588   17.622531   20.371950 C.3        1 MOL1         0.2972
      86    H41     25.442865   16.835248   19.923420 H          1 MOL1         0.0751
      87    O21     23.552748   17.098363   20.812398 O.3        1 MOL1        -0.3740
      88    C26     25.571236   18.329296   21.541302 C.3        1 MOL1         0.1003
      89    H42     26.467518   18.792468   21.108434 H          1 MOL1         0.0783
      90    O22     25.983569   17.415612   22.567895 O.3        1 MOL1        -0.5519
      91    H43     25.157023   17.094925   23.008753 H          1 MOL1         0.3769
      92    C27     24.702055   19.460354   22.141408 C.3        1 MOL1         0.1053
      93    H44     23.815864   19.007790   22.606414 H          1 MOL1         0.0783
      94    O23     25.452359   20.182180   23.124473 O.3        1 MOL1        -0.5519
      95    H45     25.900657   19.493960   23.664572 H          1 MOL1         0.3769
      96    C28     24.224248   20.428238   21.034503 C.3        1 MOL1         0.1018
      97    H46     25.086961   21.013368   20.689669 H          1 MOL1         0.0783
      98    C29     23.601875   19.675684   19.826061 C.3        1 MOL1         0.1043
      99    H47     22.663138   19.212166   20.157034 H          1 MOL1         0.0783
     100    O24     24.525596   18.642932   19.390282 O.3        1 MOL1        -0.3740
     101    C30     23.248252   20.574899   18.612682 C.3        1 MOL1         0.0138
     102    H48     22.225435   20.949310   18.744773 H          1 MOL1         0.0794
     103    H49     23.243434   19.953311   17.707375 H          1 MOL1         0.0794
     104    O25     24.142148   21.681496   18.444704 O.3        1 MOL1        -0.5486
     105    H50     23.877620   22.365175   19.103109 H          1 MOL1         0.3769
     106    C31     21.385175   13.904059   22.192946 C.3        1 MOL1         0.2972
     107    H51     20.981031   12.963296   22.588339 H          1 MOL1         0.0751
     108    O26     20.352506   14.733908   21.622807 O.3        1 MOL1        -0.3740
     109    C32     22.133273   14.688151   23.303130 C.3        1 MOL1         0.1003
     110    H52     22.982485   14.067976   23.618804 H          1 MOL1         0.0783
     111    O27     21.304875   14.959416   24.444509 O.3        1 MOL1        -0.5519
     112    H53     20.432665   14.524242   24.285087 H          1 MOL1         0.3769
     113    C33     22.692221   16.014532   22.749412 C.3        1 MOL1         0.1053
     114    H54     21.838218   16.658566   22.500870 H          1 MOL1         0.0783
     115    O28     23.485631   16.633548   23.766622 O.3        1 MOL1        -0.5519
     116    H55     22.946680   16.540449   24.584771 H          1 MOL1         0.3769
     117    C34     23.523953   15.809224   21.457893 C.3        1 MOL1         0.1018
     118    H56     24.525877   15.453576   21.729528 H          1 MOL1         0.0783
     119    C35     22.863599   14.813678   20.458615 C.3        1 MOL1         0.1043
     120    H57     22.029086   15.332362   19.968918 H          1 MOL1         0.0783
     121    O29     22.349560   13.644050   21.150880 O.3        1 MOL1        -0.3740
     122    C36     23.820279   14.341785   19.337747 C.3        1 MOL1         0.0138
     123    H58     24.007665   15.186864   18.661701 H          1 MOL1         0.0794
     124    H59     23.315453   13.561617   18.752318 H          1 MOL1         0.0794
     125    O30     25.062421   13.850167   19.856203 O.3        1 MOL1        -0.5486
     126    H60     25.583455   13.500043   19.100650 H          1 MOL1         0.3769
     127    C1      20.353343   18.899078   23.638356 C.3        1 MOL1        -0.1693
     128    H1      21.249009   19.423139   23.284072 H          1 MOL1         0.0829
     129    H2      20.663357   17.948116   24.088870 H          1 MOL1         0.0829
     130    C2      19.173253   18.789926   22.616360 C.3        1 MOL1        -0.1768
     131    H3      19.101942   19.630581   21.915645 H          1 MOL1         0.0829
     132    H4      19.112231   17.855678   22.048367 H          1 MOL1         0.0829
     133    C3      18.220630   18.906187   23.847526 C.3        1 MOL1         0.1211
     134    H5      17.294055   19.461334   23.665024 H          1 MOL1         0.0786
     135    C4      19.361847   19.739268   24.510331 C.3        1 MOL1        -0.1768
     136    H6      19.337850   20.808102   24.268376 H          1 MOL1         0.0829
     137    H7      19.464009   19.632651   25.595779 H          1 MOL1         0.0829
     138    O1      17.924562   17.688157   24.495270 O.3        1 MOL1        -0.5515
     139    H8      18.783579   17.325680   24.790462 H          1 MOL1         0.3773
@<TRIPOS>BOND
    1     1     2    1
    2     1     3    1
    3     1     4    1
    4     4     5    1
    5     4     6    1
    6     6     7    1
    7     4     8    1
    8     8     9    1
    9     8    10    1
   10    10    11    1
   11     8    12    1
   12    12    13    1
   13    12    14    1
   14    14    15    1
   15     1    16    1
   16    14    16    1
   17    14    17    1
   18    17    18    1
   19    17    19    1
   20    17    20    1
   21    20    21    1
   22    22    23    1
   23    22    24    1
   24    22    25    1
   25    25    26    1
   26    25    27    1
   27    27    28    1
   28    25    29    1
   29    29    30    1
   30    29    31    1
   31    31    32    1
   32     3    33    1
   33    29    33    1
   34    33    34    1
   35    33    35    1
   36    35    36    1
   37    22    37    1
   38    35    37    1
   39    35    38    1
   40    38    39    1
   41    38    40    1
   42    38    41    1
   43    41    42    1
   44    43    44    1
   45    43    45    1
   46    43    46    1
   47    46    47    1
   48    46    48    1
   49    48    49    1
   50    46    50    1
   51    50    51    1
   52    50    52    1
   53    52    53    1
   54    24    54    1
   55    50    54    1
   56    54    55    1
   57    54    56    1
   58    56    57    1
   59    43    58    1
   60    56    58    1
   61    56    59    1
   62    59    60    1
   63    59    61    1
   64    59    62    1
   65    62    63    1
   66    64    65    1
   67    64    66    1
   68    64    67    1
   69    67    68    1
   70    67    69    1
   71    69    70    1
   72    67    71    1
   73    71    72    1
   74    71    73    1
   75    73    74    1
   76    45    75    1
   77    71    75    1
   78    75    76    1
   79    75    77    1
   80    77    78    1
   81    64    79    1
   82    77    79    1
   83    77    80    1
   84    80    81    1
   85    80    82    1
   86    80    83    1
   87    83    84    1
   88    85    86    1
   89    85    87    1
   90    85    88    1
   91    88    89    1
   92    88    90    1
   93    90    91    1
   94    88    92    1
   95    92    93    1
   96    92    94    1
   97    94    95    1
   98    66    96    1
   99    92    96    1
  100    96    97    1
  101    96    98    1
  102    98    99    1
  103    85   100    1
  104    98   100    1
  105    98   101    1
  106   101   102    1
  107   101   103    1
  108   101   104    1
  109   104   105    1
  110   106   107    1
  111    12   108    1
  112   106   108    1
  113   106   109    1
  114   109   110    1
  115   109   111    1
  116   111   112    1
  117   109   113    1
  118   113   114    1
  119   113   115    1
  120   115   116    1
  121    87   117    1
  122   113   117    1
  123   117   118    1
  124   117   119    1
  125   119   120    1
  126   106   121    1
  127   119   121    1
  128   119   122    1
  129   122   123    1
  130   122   124    1
  131   122   125    1
  132   125   126    1
  133   127   128    1
  134   127   129    1
  135   127   130    1
  136   130   131    1
  137   130   132    1
  138   130   133    1
  139   133   134    1
  140   127   135    1
  141   133   135    1
  142   135   136    1
  143   135   137    1
  144   133   138    1
  145   138   139    1
@<TRIPOS>SUBSTRUCTURE
       1 MOL1            1 RESIDUE      1      MOL     
       2 MOL1          139 RESIDUE      1      MOL     
@<SCITEGIC>MOL_PROPERTY
feprocess Rank
SciTegic.value.IntegerValue
152

@<SCITEGIC>MOL_PROPERTY
Conf_Id
SciTegic.value.IntegerValue
180

@<SCITEGIC>MOL_PROPERTY
Probability
SciTegic.value.DoubleValue
0.01

@<SCITEGIC>MOL_PROPERTY
G
SciTegic.value.DoubleValue
549.915

@<SCITEGIC>MOL_PROPERTY
E
SciTegic.value.DoubleValue
372.407

@<SCITEGIC>MOL_PROPERTY
-TS
SciTegic.value.DoubleValue
177.508

@<SCITEGIC>MOL_PROPERTY
U+W
SciTegic.value.DoubleValue
249.896

@<SCITEGIC>MOL_PROPERTY
U
SciTegic.value.DoubleValue
288.705

@<SCITEGIC>MOL_PROPERTY
W
SciTegic.value.DoubleValue
-38.809

@<SCITEGIC>MOL_PROPERTY
W(PB)
SciTegic.value.DoubleValue
-44.826

@<SCITEGIC>MOL_PROPERTY
W(SA)
SciTegic.value.DoubleValue
6.017

@<SCITEGIC>MOL_PROPERTY
Valence
SciTegic.value.DoubleValue
154.949

@<SCITEGIC>MOL_PROPERTY
Coulomb
SciTegic.value.DoubleValue
152.451

@<SCITEGIC>MOL_PROPERTY
VdW
SciTegic.value.DoubleValue
-18.695

@<SCITEGIC>MOL_PROPERTY
VdW6
SciTegic.value.DoubleValue
-165.715

@<SCITEGIC>MOL_PROPERTY
VdW12
SciTegic.value.DoubleValue
147.020

@<SCITEGIC>MOL_PROPERTY
Bond
SciTegic.value.DoubleValue
4.632

@<SCITEGIC>MOL_PROPERTY
Angle
SciTegic.value.DoubleValue
13.115

@<SCITEGIC>MOL_PROPERTY
Pdih
SciTegic.value.DoubleValue
137.202

@<SCITEGIC>MOL_PROPERTY
Idih
SciTegic.value.DoubleValue
0.000

@<SCITEGIC>MOL_PROPERTY
Tether
SciTegic.value.DoubleValue
0.000

@<TRIPOS>MOLECULE
CD_guest-s16_fast_vm2_rndm.mol2 : feprocess host+ligand conformer 153
         139         145           2
SMALL
USER_CHARGES
 
@<TRIPOS>ATOM
       1    C1      16.112814   15.020732   21.110109 C.3        1 MOL1         0.2972
       2    H1      15.062639   14.815916   20.866262 H          1 MOL1         0.0751
       3    O1      16.301530   16.380448   21.545326 O.3        1 MOL1        -0.3740
       4    C2      16.572575   14.111327   22.277821 C.3        1 MOL1         0.1003
       5    H2      16.452131   13.068235   21.957622 H          1 MOL1         0.0783
       6    O2      15.763027   14.353479   23.439670 O.3        1 MOL1        -0.5519
       7    H3      15.561537   15.321080   23.445634 H          1 MOL1         0.3769
       8    C3      18.067395   14.347094   22.607193 C.3        1 MOL1         0.1053
       9    H4      18.169570   15.358216   23.021099 H          1 MOL1         0.0783
      10    O3      18.507031   13.388747   23.575121 O.3        1 MOL1        -0.5519
      11    H5      17.790881   13.359404   24.248672 H          1 MOL1         0.3769
      12    C4      18.937880   14.258571   21.329987 C.3        1 MOL1         0.1018
      13    H6      18.995633   13.210195   21.008852 H          1 MOL1         0.0783
      14    C5      18.363747   15.115210   20.169578 C.3        1 MOL1         0.1043
      15    H7      18.438463   16.171391   20.455888 H          1 MOL1         0.0783
      16    O4      16.967917   14.774336   19.971014 O.3        1 MOL1        -0.3740
      17    C6      19.123340   14.963660   18.825081 C.3        1 MOL1         0.0138
      18    H8      19.907853   15.730287   18.785792 H          1 MOL1         0.0794
      19    H9      18.429677   15.179291   18.001834 H          1 MOL1         0.0794
      20    O5      19.710620   13.668222   18.646461 O.3        1 MOL1        -0.5486
      21    H10     20.448722   13.592610   19.294194 H          1 MOL1         0.3769
      22    C7      14.845470   20.252448   21.026684 C.3        1 MOL1         0.2972
      23    H11     14.207641   21.114437   20.792460 H          1 MOL1         0.0751
      24    O6      16.159058   20.667595   21.456416 O.3        1 MOL1        -0.3740
      25    C8      14.193395   19.425548   22.161782 C.3        1 MOL1         0.1003
      26    H12     13.199336   19.114926   21.814680 H          1 MOL1         0.0783
      27    O7      14.053223   20.224315   23.347774 O.3        1 MOL1        -0.5519
      28    H13     14.713923   20.957830   23.280633 H          1 MOL1         0.3769
      29    C9      15.013276   18.150110   22.461353 C.3        1 MOL1         0.1053
      30    H14     15.972331   18.462121   22.896052 H          1 MOL1         0.0783
      31    O8      14.302953   17.330980   23.396673 O.3        1 MOL1        -0.5519
      32    H15     14.008328   17.948757   24.102400 H          1 MOL1         0.3769
      33    C10     15.302807   17.346093   21.169485 C.3        1 MOL1         0.1018
      34    H16     14.371213   16.870151   20.836335 H          1 MOL1         0.0783
      35    C11     15.871164   18.259114   20.044352 C.3        1 MOL1         0.1043
      36    H17     16.859022   18.604338   20.366676 H          1 MOL1         0.0783
      37    O9      15.001037   19.405986   19.867627 O.3        1 MOL1        -0.3740
      38    C12     16.062395   17.584267   18.662828 C.3        1 MOL1         0.0138
      39    H18     17.055816   17.120313   18.635421 H          1 MOL1         0.0794
      40    H19     16.058131   18.363995   17.889408 H          1 MOL1         0.0794
      41    O10     15.063334   16.601801   18.372127 O.3        1 MOL1        -0.5486
      42    H20     15.400676   15.748161   18.725611 H          1 MOL1         0.3769
      43    C13     18.599891   24.095177   21.213669 C.3        1 MOL1         0.2972
      44    H21     18.959566   25.096870   20.944906 H          1 MOL1         0.0751
      45    O11     19.595267   23.361304   21.951821 O.3        1 MOL1        -0.3740
      46    C14     17.343248   24.202466   22.118345 C.3        1 MOL1         0.1003
      47    H22     16.597277   24.801376   21.579889 H          1 MOL1         0.0783
      48    O12     17.677751   24.852325   23.354581 O.3        1 MOL1        -0.5519
      49    H23     18.527142   24.450832   23.655612 H          1 MOL1         0.3769
      50    C15     16.728026   22.808748   22.403384 C.3        1 MOL1         0.1053
      51    H24     17.427103   22.251087   23.040335 H          1 MOL1         0.0783
      52    O13     15.475402   22.963834   23.078865 O.3        1 MOL1        -0.5519
      53    H25     15.644450   23.623147   23.788286 H          1 MOL1         0.3769
      54    C16     16.525486   22.013481   21.092197 C.3        1 MOL1         0.1018
      55    H26     15.741688   22.508513   20.503542 H          1 MOL1         0.0783
      56    C17     17.829351   21.975833   20.253799 C.3        1 MOL1         0.1043
      57    H27     18.598019   21.442864   20.825307 H          1 MOL1         0.0783
      58    O14     18.257482   23.339271   20.029618 O.3        1 MOL1        -0.3740
      59    C18     17.701835   21.269928   18.879045 C.3        1 MOL1         0.0138
      60    H28     17.857047   20.193447   19.020078 H          1 MOL1         0.0794
      61    H29     18.512793   21.624435   18.229028 H          1 MOL1         0.0794
      62    O15     16.435215   21.490230   18.248166 O.3        1 MOL1        -0.5486
      63    H30     15.788708   20.885874   18.681443 H          1 MOL1         0.3769
      64    C19     23.674281   22.803070   21.927562 C.3        1 MOL1         0.2972
      65    H31     24.770099   22.868788   21.937317 H          1 MOL1         0.0751
      66    O16     23.227551   21.443220   21.769091 O.3        1 MOL1        -0.3740
      67    C20     23.109532   23.360882   23.252677 C.3        1 MOL1         0.1003
      68    H32     23.407237   24.415269   23.322351 H          1 MOL1         0.0783
      69    O17     23.652330   22.636698   24.368444 O.3        1 MOL1        -0.5519
      70    H33     23.979685   21.774219   24.014549 H          1 MOL1         0.3769
      71    C21     21.566051   23.296496   23.263779 C.3        1 MOL1         0.1053
      72    H34     21.279414   22.239075   23.321973 H          1 MOL1         0.0783
      73    O18     21.073220   23.984037   24.418842 O.3        1 MOL1        -0.5519
      74    H35     21.609539   23.640503   25.167345 H          1 MOL1         0.3769
      75    C22     20.934164   23.904182   21.982605 C.3        1 MOL1         0.1018
      76    H36     20.919224   24.996007   22.095949 H          1 MOL1         0.0783
      77    C23     21.686686   23.509756   20.669837 C.3        1 MOL1         0.1043
      78    H37     21.406243   22.478581   20.426747 H          1 MOL1         0.0783
      79    O19     23.125501   23.581037   20.848563 O.3        1 MOL1        -0.3740
      80    C24     21.353439   24.386901   19.436366 C.3        1 MOL1         0.0138
      81    H38     20.373612   24.098803   19.039123 H          1 MOL1         0.0794
      82    H39     22.086774   24.170063   18.647814 H          1 MOL1         0.0794
      83    O20     21.364543   25.785467   19.747135 O.3        1 MOL1        -0.5486
      84    H40     21.233523   26.278355   18.907787 H          1 MOL1         0.3769
      85    C25     24.666955   17.718770   20.537704 C.3        1 MOL1         0.2972
      86    H41     25.252442   16.915169   20.072766 H          1 MOL1         0.0751
      87    O21     23.422564   17.220562   21.074819 O.3        1 MOL1        -0.3740
      88    C26     25.475011   18.412652   21.669912 C.3        1 MOL1         0.1003
      89    H42     26.379151   18.831272   21.209007 H          1 MOL1         0.0783
      90    O22     25.866087   17.486673   22.695040 O.3        1 MOL1        -0.5519
      91    H43     25.038512   17.080397   23.057543 H          1 MOL1         0.3769
      92    C27     24.667946   19.585945   22.277781 C.3        1 MOL1         0.1053
      93    H44     23.788789   19.168857   22.786586 H          1 MOL1         0.0783
      94    O23     25.478730   20.296731   23.219445 O.3        1 MOL1        -0.5519
      95    H45     25.927670   19.600803   23.749481 H          1 MOL1         0.3769
      96    C28     24.181854   20.549422   21.166965 C.3        1 MOL1         0.1018
      97    H46     25.052084   21.086232   20.766478 H          1 MOL1         0.0783
      98    C29     23.480811   19.794340   20.004248 C.3        1 MOL1         0.1043
      99    H47     22.546804   19.366383   20.382665 H          1 MOL1         0.0783
     100    O24     24.347405   18.725477   19.551485 O.3        1 MOL1        -0.3740
     101    C30     23.104584   20.676405   18.785297 C.3        1 MOL1         0.0138
     102    H48     22.087464   21.058773   18.933843 H          1 MOL1         0.0794
     103    H49     23.071369   20.039416   17.891338 H          1 MOL1         0.0794
     104    O25     24.005760   21.770795   18.574790 O.3        1 MOL1        -0.5486
     105    H50     23.847262   22.423315   19.296324 H          1 MOL1         0.3769
     106    C31     21.272365   13.832218   21.895091 C.3        1 MOL1         0.2972
     107    H51     20.864938   12.836431   22.113347 H          1 MOL1         0.0751
     108    O26     20.230523   14.795561   21.653648 O.3        1 MOL1        -0.3740
     109    C32     22.116835   14.334836   23.088297 C.3        1 MOL1         0.1003
     110    H52     22.966865   13.650357   23.207258 H          1 MOL1         0.0783
     111    O27     21.335604   14.341594   24.294312 O.3        1 MOL1        -0.5519
     112    H53     20.393405   14.207697   24.026455 H          1 MOL1         0.3769
     113    C33     22.669539   15.748312   22.797491 C.3        1 MOL1         0.1053
     114    H54     21.821333   16.441136   22.770560 H          1 MOL1         0.0783
     115    O28     23.561187   16.133995   23.847223 O.3        1 MOL1        -0.5519
     116    H55     23.087201   15.899144   24.676622 H          1 MOL1         0.3769
     117    C34     23.390729   15.821725   21.427465 C.3        1 MOL1         0.1018
     118    H56     24.398770   15.401758   21.543883 H          1 MOL1         0.0783
     119    C35     22.632530   15.080818   20.284054 C.3        1 MOL1         0.1043
     120    H57     21.784812   15.706994   19.984905 H          1 MOL1         0.0783
     121    O29     22.124765   13.797023   20.732094 O.3        1 MOL1        -0.3740
     122    C36     23.487539   14.853774   19.014833 C.3        1 MOL1         0.0138
     123    H58     23.643168   15.822655   18.521295 H          1 MOL1         0.0794
     124    H59     22.919900   14.222030   18.318321 H          1 MOL1         0.0794
     125    O30     24.752440   14.251943   19.316152 O.3        1 MOL1        -0.5486
     126    H60     25.201406   14.058897   18.464179 H          1 MOL1         0.3769
     127    C1      19.341475   19.531222   23.297650 C.3        1 MOL1        -0.1693
     128    H1      18.473707   20.178311   23.121651 H          1 MOL1         0.0829
     129    H2      19.629695   19.609925   24.352410 H          1 MOL1         0.0829
     130    C2      20.497707   19.682369   22.257783 C.3        1 MOL1        -0.1768
     131    H3      20.638745   20.678815   21.831695 H          1 MOL1         0.0829
     132    H4      21.466068   19.300898   22.600841 H          1 MOL1         0.0829
     133    C3      19.675383   18.696833   21.381142 C.3        1 MOL1         0.1211
     134    H5      18.874507   19.180410   20.813071 H          1 MOL1         0.0786
     135    C4      19.196842   18.081984   22.730210 C.3        1 MOL1        -0.1768
     136    H6      19.872591   17.345631   23.177082 H          1 MOL1         0.0829
     137    H7      18.184507   17.672618   22.735050 H          1 MOL1         0.0829
     138    O1      20.430646   17.862832   20.537532 O.3        1 MOL1        -0.5515
     139    H8      21.237822   17.602712   21.027407 H          1 MOL1         0.3773
@<TRIPOS>BOND
    1     1     2    1
    2     1     3    1
    3     1     4    1
    4     4     5    1
    5     4     6    1
    6     6     7    1
    7     4     8    1
    8     8     9    1
    9     8    10    1
   10    10    11    1
   11     8    12    1
   12    12    13    1
   13    12    14    1
   14    14    15    1
   15     1    16    1
   16    14    16    1
   17    14    17    1
   18    17    18    1
   19    17    19    1
   20    17    20    1
   21    20    21    1
   22    22    23    1
   23    22    24    1
   24    22    25    1
   25    25    26    1
   26    25    27    1
   27    27    28    1
   28    25    29    1
   29    29    30    1
   30    29    31    1
   31    31    32    1
   32     3    33    1
   33    29    33    1
   34    33    34    1
   35    33    35    1
   36    35    36    1
   37    22    37    1
   38    35    37    1
   39    35    38    1
   40    38    39    1
   41    38    40    1
   42    38    41    1
   43    41    42    1
   44    43    44    1
   45    43    45    1
   46    43    46    1
   47    46    47    1
   48    46    48    1
   49    48    49    1
   50    46    50    1
   51    50    51    1
   52    50    52    1
   53    52    53    1
   54    24    54    1
   55    50    54    1
   56    54    55    1
   57    54    56    1
   58    56    57    1
   59    43    58    1
   60    56    58    1
   61    56    59    1
   62    59    60    1
   63    59    61    1
   64    59    62    1
   65    62    63    1
   66    64    65    1
   67    64    66    1
   68    64    67    1
   69    67    68    1
   70    67    69    1
   71    69    70    1
   72    67    71    1
   73    71    72    1
   74    71    73    1
   75    73    74    1
   76    45    75    1
   77    71    75    1
   78    75    76    1
   79    75    77    1
   80    77    78    1
   81    64    79    1
   82    77    79    1
   83    77    80    1
   84    80    81    1
   85    80    82    1
   86    80    83    1
   87    83    84    1
   88    85    86    1
   89    85    87    1
   90    85    88    1
   91    88    89    1
   92    88    90    1
   93    90    91    1
   94    88    92    1
   95    92    93    1
   96    92    94    1
   97    94    95    1
   98    66    96    1
   99    92    96    1
  100    96    97    1
  101    96    98    1
  102    98    99    1
  103    85   100    1
  104    98   100    1
  105    98   101    1
  106   101   102    1
  107   101   103    1
  108   101   104    1
  109   104   105    1
  110   106   107    1
  111    12   108    1
  112   106   108    1
  113   106   109    1
  114   109   110    1
  115   109   111    1
  116   111   112    1
  117   109   113    1
  118   113   114    1
  119   113   115    1
  120   115   116    1
  121    87   117    1
  122   113   117    1
  123   117   118    1
  124   117   119    1
  125   119   120    1
  126   106   121    1
  127   119   121    1
  128   119   122    1
  129   122   123    1
  130   122   124    1
  131   122   125    1
  132   125   126    1
  133   127   128    1
  134   127   129    1
  135   127   130    1
  136   130   131    1
  137   130   132    1
  138   130   133    1
  139   133   134    1
  140   127   135    1
  141   133   135    1
  142   135   136    1
  143   135   137    1
  144   133   138    1
  145   138   139    1
@<TRIPOS>SUBSTRUCTURE
       1 MOL1            1 RESIDUE      1      MOL     
       2 MOL1          139 RESIDUE      1      MOL     
@<SCITEGIC>MOL_PROPERTY
feprocess Rank
SciTegic.value.IntegerValue
153

@<SCITEGIC>MOL_PROPERTY
Conf_Id
SciTegic.value.IntegerValue
889

@<SCITEGIC>MOL_PROPERTY
Probability
SciTegic.value.DoubleValue
0.01

@<SCITEGIC>MOL_PROPERTY
G
SciTegic.value.DoubleValue
549.916

@<SCITEGIC>MOL_PROPERTY
E
SciTegic.value.DoubleValue
371.300

@<SCITEGIC>MOL_PROPERTY
-TS
SciTegic.value.DoubleValue
178.616

@<SCITEGIC>MOL_PROPERTY
U+W
SciTegic.value.DoubleValue
248.788

@<SCITEGIC>MOL_PROPERTY
U
SciTegic.value.DoubleValue
283.232

@<SCITEGIC>MOL_PROPERTY
W
SciTegic.value.DoubleValue
-34.444

@<SCITEGIC>MOL_PROPERTY
W(PB)
SciTegic.value.DoubleValue
-40.360

@<SCITEGIC>MOL_PROPERTY
W(SA)
SciTegic.value.DoubleValue
5.916

@<SCITEGIC>MOL_PROPERTY
Valence
SciTegic.value.DoubleValue
154.655

@<SCITEGIC>MOL_PROPERTY
Coulomb
SciTegic.value.DoubleValue
152.758

@<SCITEGIC>MOL_PROPERTY
VdW
SciTegic.value.DoubleValue
-24.181

@<SCITEGIC>MOL_PROPERTY
VdW6
SciTegic.value.DoubleValue
-172.470

@<SCITEGIC>MOL_PROPERTY
VdW12
SciTegic.value.DoubleValue
148.289

@<SCITEGIC>MOL_PROPERTY
Bond
SciTegic.value.DoubleValue
4.618

@<SCITEGIC>MOL_PROPERTY
Angle
SciTegic.value.DoubleValue
12.041

@<SCITEGIC>MOL_PROPERTY
Pdih
SciTegic.value.DoubleValue
137.997

@<SCITEGIC>MOL_PROPERTY
Idih
SciTegic.value.DoubleValue
0.000

@<SCITEGIC>MOL_PROPERTY
Tether
SciTegic.value.DoubleValue
0.000

@<TRIPOS>MOLECULE
CD_guest-s16_fast_vm2_rndm.mol2 : feprocess host+ligand conformer 154
         139         145           2
SMALL
USER_CHARGES
 
@<TRIPOS>ATOM
       1    C1      16.251331   15.268550   20.617627 C.3        1 MOL1         0.2972
       2    H1      15.231748   15.093516   20.252921 H          1 MOL1         0.0751
       3    O1      16.430840   16.625146   21.070768 O.3        1 MOL1        -0.3740
       4    C2      16.598368   14.310295   21.788909 C.3        1 MOL1         0.1003
       5    H2      16.522560   13.284832   21.404381 H          1 MOL1         0.0783
       6    O2      15.682971   14.467002   22.884279 O.3        1 MOL1        -0.5519
       7    H3      15.693651   15.421471   23.148566 H          1 MOL1         0.3769
       8    C3      18.056319   14.536162   22.260897 C.3        1 MOL1         0.1053
       9    H4      18.118349   15.540718   22.697471 H          1 MOL1         0.0783
      10    O3      18.404800   13.559811   23.247485 O.3        1 MOL1        -0.5519
      11    H5      17.620826   13.500810   23.838713 H          1 MOL1         0.3769
      12    C4      19.036937   14.460710   21.063063 C.3        1 MOL1         0.1018
      13    H6      19.100228   13.418324   20.723614 H          1 MOL1         0.0783
      14    C5      18.581666   15.349322   19.876103 C.3        1 MOL1         0.1043
      15    H7      18.652008   16.399770   20.184206 H          1 MOL1         0.0783
      16    O4      17.204285   15.033081   19.556048 O.3        1 MOL1        -0.3740
      17    C6      19.450105   15.201800   18.598842 C.3        1 MOL1         0.0138
      18    H8      20.268969   15.930435   18.653175 H          1 MOL1         0.0794
      19    H9      18.840939   15.474300   17.726716 H          1 MOL1         0.0794
      20    O5      19.994022   13.886213   18.429608 O.3        1 MOL1        -0.5486
      21    H10     20.674391   13.758520   19.130149 H          1 MOL1         0.3769
      22    C7      14.701495   20.275528   21.670141 C.3        1 MOL1         0.2972
      23    H11     14.082945   21.168647   21.828257 H          1 MOL1         0.0751
      24    O6      16.082898   20.611819   21.435824 O.3        1 MOL1        -0.3740
      25    C8      14.637982   19.352319   22.908966 C.3        1 MOL1         0.1003
      26    H12     13.606621   18.989750   23.008995 H          1 MOL1         0.0783
      27    O7      15.011046   20.068177   24.096617 O.3        1 MOL1        -0.5519
      28    H13     15.498924   20.876079   23.803590 H          1 MOL1         0.3769
      29    C9      15.564791   18.135810   22.696350 C.3        1 MOL1         0.1053
      30    H14     16.587431   18.517573   22.633299 H          1 MOL1         0.0783
      31    O8      15.466012   17.243959   23.810213 O.3        1 MOL1        -0.5519
      32    H15     15.378845   17.834581   24.593819 H          1 MOL1         0.3769
      33    C10     15.251523   17.396218   21.370680 C.3        1 MOL1         0.1018
      34    H16     14.367100   16.764128   21.521323 H          1 MOL1         0.0783
      35    C11     15.039621   18.364197   20.166995 C.3        1 MOL1         0.1043
      36    H17     16.031110   18.716340   19.857039 H          1 MOL1         0.0783
      37    O9      14.233858   19.514432   20.537668 O.3        1 MOL1        -0.3740
      38    C12     14.391890   17.695048   18.930585 C.3        1 MOL1         0.0138
      39    H18     15.082057   16.939041   18.532378 H          1 MOL1         0.0794
      40    H19     14.267709   18.458206   18.150681 H          1 MOL1         0.0794
      41    O10     13.123781   17.097218   19.230842 O.3        1 MOL1        -0.5486
      42    H20     13.275119   16.316175   19.801569 H          1 MOL1         0.3769
      43    C13     18.538403   23.909293   20.759528 C.3        1 MOL1         0.2972
      44    H21     18.947116   24.876411   20.439253 H          1 MOL1         0.0751
      45    O11     19.573215   23.027401   21.239713 O.3        1 MOL1        -0.3740
      46    C14     17.483428   24.090280   21.885347 C.3        1 MOL1         0.1003
      47    H22     16.672621   24.705452   21.473921 H          1 MOL1         0.0783
      48    O12     18.038116   24.757892   23.029067 O.3        1 MOL1        -0.5519
      49    H23     18.835834   24.243833   23.314394 H          1 MOL1         0.3769
      50    C15     16.881649   22.721802   22.292968 C.3        1 MOL1         0.1053
      51    H24     17.677795   22.119315   22.751654 H          1 MOL1         0.0783
      52    O13     15.822642   22.919944   23.234946 O.3        1 MOL1        -0.5519
      53    H25     16.162800   23.594558   23.864669 H          1 MOL1         0.3769
      54    C16     16.353328   21.967221   21.047070 C.3        1 MOL1         0.1018
      55    H26     15.452696   22.475234   20.677675 H          1 MOL1         0.0783
      56    C17     17.409239   21.911630   19.910421 C.3        1 MOL1         0.1043
      57    H27     18.248354   21.288500   20.246463 H          1 MOL1         0.0783
      58    O14     17.884985   23.254589   19.647800 O.3        1 MOL1        -0.3740
      59    C18     16.893483   21.288614   18.586251 C.3        1 MOL1         0.0138
      60    H28     17.097527   20.210766   18.609789 H          1 MOL1         0.0794
      61    H29     17.477530   21.702063   17.753236 H          1 MOL1         0.0794
      62    O15     15.494075   21.505020   18.362171 O.3        1 MOL1        -0.5486
      63    H30     15.004346   20.967270   19.026363 H          1 MOL1         0.3769
      64    C19     23.596311   22.715977   22.032244 C.3        1 MOL1         0.2972
      65    H31     24.663014   22.851340   22.253583 H          1 MOL1         0.0751
      66    O16     23.282364   21.341500   21.743793 O.3        1 MOL1        -0.3740
      67    C20     22.745199   23.152333   23.247223 C.3        1 MOL1         0.1003
      68    H32     22.930149   24.220987   23.417299 H          1 MOL1         0.0783
      69    O17     23.123850   22.410093   24.417788 O.3        1 MOL1        -0.5519
      70    H33     23.610101   21.609392   24.102999 H          1 MOL1         0.3769
      71    C21     21.239519   22.964494   22.951823 C.3        1 MOL1         0.1053
      72    H34     21.043347   21.889009   22.869488 H          1 MOL1         0.0783
      73    O18     20.475394   23.508149   24.032217 O.3        1 MOL1        -0.5519
      74    H35     20.909748   23.163063   24.844382 H          1 MOL1         0.3769
      75    C22     20.826566   23.631154   21.615240 C.3        1 MOL1         0.1018
      76    H36     20.733117   24.713301   21.777237 H          1 MOL1         0.0783
      77    C23     21.826201   23.341960   20.457175 C.3        1 MOL1         0.1043
      78    H37     21.677173   22.300191   20.147593 H          1 MOL1         0.0783
      79    O19     23.200235   23.510474   20.895093 O.3        1 MOL1        -0.3740
      80    C24     21.599164   24.224626   19.206756 C.3        1 MOL1         0.0138
      81    H38     20.666153   23.908292   18.720941 H          1 MOL1         0.0794
      82    H39     22.415242   24.041390   18.494825 H          1 MOL1         0.0794
      83    O20     21.527690   25.617383   19.535842 O.3        1 MOL1        -0.5486
      84    H40     21.465507   26.119782   18.694171 H          1 MOL1         0.3769
      85    C25     25.039386   17.684354   20.886539 C.3        1 MOL1         0.2972
      86    H41     25.688535   16.861829   20.559448 H          1 MOL1         0.0751
      87    O21     23.714559   17.218325   21.219073 O.3        1 MOL1        -0.3740
      88    C26     25.635430   18.423400   22.115359 C.3        1 MOL1         0.1003
      89    H42     26.587747   18.866552   21.796157 H          1 MOL1         0.0783
      90    O22     25.886849   17.529020   23.209011 O.3        1 MOL1        -0.5519
      91    H43     25.026133   17.095990   23.439209 H          1 MOL1         0.3769
      92    C27     24.697499   19.576338   22.551728 C.3        1 MOL1         0.1053
      93    H44     23.752604   19.138293   22.900737 H          1 MOL1         0.0783
      94    O23     25.303009   20.323468   23.611719 O.3        1 MOL1        -0.5519
      95    H45     25.681989   19.648243   24.217883 H          1 MOL1         0.3769
      96    C28     24.387934   20.510422   21.355325 C.3        1 MOL1         0.1018
      97    H46     25.287003   21.098080   21.127795 H          1 MOL1         0.0783
      98    C29     23.954998   19.727634   20.084340 C.3        1 MOL1         0.1043
      99    H47     22.968888   19.286858   20.270602 H          1 MOL1         0.0783
     100    O24     24.906354   18.663600   19.830045 O.3        1 MOL1        -0.3740
     101    C30     23.812724   20.598572   18.807806 C.3        1 MOL1         0.0138
     102    H48     22.774359   20.946726   18.740824 H          1 MOL1         0.0794
     103    H49     23.989700   19.963795   17.929323 H          1 MOL1         0.0794
     104    O25     24.695406   21.727506   18.784796 O.3        1 MOL1        -0.5486
     105    H50     24.356878   22.375434   19.445539 H          1 MOL1         0.3769
     106    C31     21.294258   13.958091   21.820854 C.3        1 MOL1         0.2972
     107    H51     20.832219   12.977277   21.993670 H          1 MOL1         0.0751
     108    O26     20.311653   14.960776   21.498395 O.3        1 MOL1        -0.3740
     109    C32     22.050091   14.415970   23.088709 C.3        1 MOL1         0.1003
     110    H52     22.848895   13.687831   23.280905 H          1 MOL1         0.0783
     111    O27     21.164405   14.463049   24.219773 O.3        1 MOL1        -0.5519
     112    H53     20.250125   14.301713   23.880074 H          1 MOL1         0.3769
     113    C33     22.699717   15.798177   22.857363 C.3        1 MOL1         0.1053
     114    H54     21.892032   16.528321   22.737808 H          1 MOL1         0.0783
     115    O28     23.488220   16.140942   23.999805 O.3        1 MOL1        -0.5519
     116    H55     22.917498   15.918869   24.769932 H          1 MOL1         0.3769
     117    C34     23.560949   15.828498   21.568189 C.3        1 MOL1         0.1018
     118    H56     24.523972   15.341839   21.772142 H          1 MOL1         0.0783
     119    C35     22.855826   15.153172   20.355260 C.3        1 MOL1         0.1043
     120    H57     22.072161   15.837745   20.007746 H          1 MOL1         0.0783
     121    O29     22.240631   13.893976   20.733759 O.3        1 MOL1        -0.3740
     122    C36     23.800623   14.898982   19.156742 C.3        1 MOL1         0.0138
     123    H58     24.063590   15.866999   18.709015 H          1 MOL1         0.0794
     124    H59     23.255670   14.324805   18.395337 H          1 MOL1         0.0794
     125    O30     24.991884   14.205084   19.547425 O.3        1 MOL1        -0.5486
     126    H60     25.504730   14.011124   18.732499 H          1 MOL1         0.3769
     127    C1      20.629686   19.119820   21.870835 C.3        1 MOL1        -0.1693
     128    H1      21.107476   18.292218   21.331723 H          1 MOL1         0.0829
     129    H2      20.963444   20.065993   21.432821 H          1 MOL1         0.0829
     130    C2      20.690648   19.013211   23.431970 C.3        1 MOL1        -0.1768
     131    H3      21.588503   18.552487   23.855916 H          1 MOL1         0.0829
     132    H4      20.490342   19.946441   23.971698 H          1 MOL1         0.0829
     133    C3      19.450074   18.081352   23.286218 C.3        1 MOL1         0.1211
     134    H5      19.707639   17.046122   23.032084 H          1 MOL1         0.0786
     135    C4      19.088118   18.969081   22.056745 C.3        1 MOL1        -0.1768
     136    H6      18.549581   18.474445   21.242837 H          1 MOL1         0.0829
     137    H7      18.569110   19.900676   22.310396 H          1 MOL1         0.0829
     138    O1      18.533990   18.116760   24.356610 O.3        1 MOL1        -0.5515
     139    H8      17.724269   17.638716   24.078697 H          1 MOL1         0.3773
@<TRIPOS>BOND
    1     1     2    1
    2     1     3    1
    3     1     4    1
    4     4     5    1
    5     4     6    1
    6     6     7    1
    7     4     8    1
    8     8     9    1
    9     8    10    1
   10    10    11    1
   11     8    12    1
   12    12    13    1
   13    12    14    1
   14    14    15    1
   15     1    16    1
   16    14    16    1
   17    14    17    1
   18    17    18    1
   19    17    19    1
   20    17    20    1
   21    20    21    1
   22    22    23    1
   23    22    24    1
   24    22    25    1
   25    25    26    1
   26    25    27    1
   27    27    28    1
   28    25    29    1
   29    29    30    1
   30    29    31    1
   31    31    32    1
   32     3    33    1
   33    29    33    1
   34    33    34    1
   35    33    35    1
   36    35    36    1
   37    22    37    1
   38    35    37    1
   39    35    38    1
   40    38    39    1
   41    38    40    1
   42    38    41    1
   43    41    42    1
   44    43    44    1
   45    43    45    1
   46    43    46    1
   47    46    47    1
   48    46    48    1
   49    48    49    1
   50    46    50    1
   51    50    51    1
   52    50    52    1
   53    52    53    1
   54    24    54    1
   55    50    54    1
   56    54    55    1
   57    54    56    1
   58    56    57    1
   59    43    58    1
   60    56    58    1
   61    56    59    1
   62    59    60    1
   63    59    61    1
   64    59    62    1
   65    62    63    1
   66    64    65    1
   67    64    66    1
   68    64    67    1
   69    67    68    1
   70    67    69    1
   71    69    70    1
   72    67    71    1
   73    71    72    1
   74    71    73    1
   75    73    74    1
   76    45    75    1
   77    71    75    1
   78    75    76    1
   79    75    77    1
   80    77    78    1
   81    64    79    1
   82    77    79    1
   83    77    80    1
   84    80    81    1
   85    80    82    1
   86    80    83    1
   87    83    84    1
   88    85    86    1
   89    85    87    1
   90    85    88    1
   91    88    89    1
   92    88    90    1
   93    90    91    1
   94    88    92    1
   95    92    93    1
   96    92    94    1
   97    94    95    1
   98    66    96    1
   99    92    96    1
  100    96    97    1
  101    96    98    1
  102    98    99    1
  103    85   100    1
  104    98   100    1
  105    98   101    1
  106   101   102    1
  107   101   103    1
  108   101   104    1
  109   104   105    1
  110   106   107    1
  111    12   108    1
  112   106   108    1
  113   106   109    1
  114   109   110    1
  115   109   111    1
  116   111   112    1
  117   109   113    1
  118   113   114    1
  119   113   115    1
  120   115   116    1
  121    87   117    1
  122   113   117    1
  123   117   118    1
  124   117   119    1
  125   119   120    1
  126   106   121    1
  127   119   121    1
  128   119   122    1
  129   122   123    1
  130   122   124    1
  131   122   125    1
  132   125   126    1
  133   127   128    1
  134   127   129    1
  135   127   130    1
  136   130   131    1
  137   130   132    1
  138   130   133    1
  139   133   134    1
  140   127   135    1
  141   133   135    1
  142   135   136    1
  143   135   137    1
  144   133   138    1
  145   138   139    1
@<TRIPOS>SUBSTRUCTURE
       1 MOL1            1 RESIDUE      1      MOL     
       2 MOL1          139 RESIDUE      1      MOL     
@<SCITEGIC>MOL_PROPERTY
feprocess Rank
SciTegic.value.IntegerValue
154

@<SCITEGIC>MOL_PROPERTY
Conf_Id
SciTegic.value.IntegerValue
556

@<SCITEGIC>MOL_PROPERTY
Probability
SciTegic.value.DoubleValue
0.01

@<SCITEGIC>MOL_PROPERTY
G
SciTegic.value.DoubleValue
549.917

@<SCITEGIC>MOL_PROPERTY
E
SciTegic.value.DoubleValue
370.899

@<SCITEGIC>MOL_PROPERTY
-TS
SciTegic.value.DoubleValue
179.018

@<SCITEGIC>MOL_PROPERTY
U+W
SciTegic.value.DoubleValue
248.387

@<SCITEGIC>MOL_PROPERTY
U
SciTegic.value.DoubleValue
286.369

@<SCITEGIC>MOL_PROPERTY
W
SciTegic.value.DoubleValue
-37.982

@<SCITEGIC>MOL_PROPERTY
W(PB)
SciTegic.value.DoubleValue
-43.939

@<SCITEGIC>MOL_PROPERTY
W(SA)
SciTegic.value.DoubleValue
5.958

@<SCITEGIC>MOL_PROPERTY
Valence
SciTegic.value.DoubleValue
153.933

@<SCITEGIC>MOL_PROPERTY
Coulomb
SciTegic.value.DoubleValue
153.355

@<SCITEGIC>MOL_PROPERTY
VdW
SciTegic.value.DoubleValue
-20.919

@<SCITEGIC>MOL_PROPERTY
VdW6
SciTegic.value.DoubleValue
-168.188

@<SCITEGIC>MOL_PROPERTY
VdW12
SciTegic.value.DoubleValue
147.269

@<SCITEGIC>MOL_PROPERTY
Bond
SciTegic.value.DoubleValue
4.629

@<SCITEGIC>MOL_PROPERTY
Angle
SciTegic.value.DoubleValue
12.570

@<SCITEGIC>MOL_PROPERTY
Pdih
SciTegic.value.DoubleValue
136.734

@<SCITEGIC>MOL_PROPERTY
Idih
SciTegic.value.DoubleValue
0.000

@<SCITEGIC>MOL_PROPERTY
Tether
SciTegic.value.DoubleValue
0.000

@<TRIPOS>MOLECULE
CD_guest-s16_fast_vm2_rndm.mol2 : feprocess host+ligand conformer 155
         139         145           2
SMALL
USER_CHARGES
 
@<TRIPOS>ATOM
       1    C1      16.202936   15.191295   21.553392 C.3        1 MOL1         0.2972
       2    H1      15.115459   15.072027   21.645263 H          1 MOL1         0.0751
       3    O1      16.580364   16.577837   21.451773 O.3        1 MOL1        -0.3740
       4    C2      16.904952   14.592940   22.794147 C.3        1 MOL1         0.1003
       5    H2      16.677631   13.519303   22.822541 H          1 MOL1         0.0783
       6    O2      16.423794   15.216636   23.996199 O.3        1 MOL1        -0.5519
       7    H3      15.917709   16.020341   23.721247 H          1 MOL1         0.3769
       8    C3      18.435533   14.761831   22.675927 C.3        1 MOL1         0.1053
       9    H4      18.651379   15.834631   22.716861 H          1 MOL1         0.0783
      10    O3      19.075516   14.099224   23.770403 O.3        1 MOL1        -0.5519
      11    H5      18.549161   14.356645   24.560557 H          1 MOL1         0.3769
      12    C4      18.975514   14.220583   21.329244 C.3        1 MOL1         0.1018
      13    H6      19.024216   13.124897   21.384606 H          1 MOL1         0.0783
      14    C5      18.115372   14.665999   20.110874 C.3        1 MOL1         0.1043
      15    H7      18.326114   15.727376   19.931617 H          1 MOL1         0.0783
      16    O4      16.697788   14.508350   20.382606 O.3        1 MOL1        -0.3740
      17    C6      18.452228   13.907779   18.804903 C.3        1 MOL1         0.0138
      18    H8      19.442149   14.233489   18.457671 H          1 MOL1         0.0794
      19    H9      17.725355   14.196290   18.033641 H          1 MOL1         0.0794
      20    O5      18.445724   12.486944   18.990189 O.3        1 MOL1        -0.5486
      21    H10     18.589430   12.071164   18.112047 H          1 MOL1         0.3769
      22    C7      14.854803   20.324036   20.831774 C.3        1 MOL1         0.2972
      23    H11     14.201451   21.149978   20.521972 H          1 MOL1         0.0751
      24    O6      16.098597   20.799456   21.377370 O.3        1 MOL1        -0.3740
      25    C8      14.178856   19.459265   21.928415 C.3        1 MOL1         0.1003
      26    H12     13.245139   19.062239   21.509459 H          1 MOL1         0.0783
      27    O7      13.881225   20.249635   23.091425 O.3        1 MOL1        -0.5519
      28    H13     14.694212   20.772113   23.308978 H          1 MOL1         0.3769
      29    C9      15.083853   18.261468   22.312973 C.3        1 MOL1         0.1053
      30    H14     15.978840   18.661451   22.806440 H          1 MOL1         0.0783
      31    O8      14.386103   17.392722   23.211422 O.3        1 MOL1        -0.5519
      32    H15     13.953212   17.990823   23.861148 H          1 MOL1         0.3769
      33    C10     15.533025   17.478260   21.054238 C.3        1 MOL1         0.1018
      34    H16     14.666222   16.945289   20.641430 H          1 MOL1         0.0783
      35    C11     16.115440   18.414412   19.963266 C.3        1 MOL1         0.1043
      36    H17     17.049176   18.849274   20.341971 H          1 MOL1         0.0783
      37    O9      15.160271   19.471785   19.704036 O.3        1 MOL1        -0.3740
      38    C12     16.461038   17.707461   18.626059 C.3        1 MOL1         0.0138
      39    H18     17.502832   17.366708   18.674513 H          1 MOL1         0.0794
      40    H19     16.408007   18.446311   17.815368 H          1 MOL1         0.0794
      41    O10     15.607500   16.593606   18.333495 O.3        1 MOL1        -0.5486
      42    H20     15.836523   15.875013   18.967725 H          1 MOL1         0.3769
      43    C13     18.502354   24.087837   21.779876 C.3        1 MOL1         0.2972
      44    H21     18.961578   25.079580   21.884111 H          1 MOL1         0.0751
      45    O11     19.500110   23.055371   21.645524 O.3        1 MOL1        -0.3740
      46    C14     17.642645   23.779576   23.028379 C.3        1 MOL1         0.1003
      47    H22     16.849064   24.536192   23.082437 H          1 MOL1         0.0783
      48    O12     18.448950   23.845837   24.215312 O.3        1 MOL1        -0.5519
      49    H23     19.386472   23.733787   23.926344 H          1 MOL1         0.3769
      50    C15     16.976727   22.391093   22.903088 C.3        1 MOL1         0.1053
      51    H24     17.770939   21.637796   22.960147 H          1 MOL1         0.0783
      52    O13     16.056880   22.193348   23.982057 O.3        1 MOL1        -0.5519
      53    H25     16.549628   22.465278   24.788099 H          1 MOL1         0.3769
      54    C16     16.239444   22.220101   21.551663 C.3        1 MOL1         0.1018
      55    H26     15.268490   22.728921   21.616289 H          1 MOL1         0.0783
      56    C17     17.051147   22.747046   20.333527 C.3        1 MOL1         0.1043
      57    H27     17.849235   22.021078   20.139009 H          1 MOL1         0.0783
      58    O14     17.647425   24.038525   20.619820 O.3        1 MOL1        -0.3740
      59    C18     16.219408   22.872482   19.034452 C.3        1 MOL1         0.0138
      60    H28     15.995276   21.863837   18.662582 H          1 MOL1         0.0794
      61    H29     16.832795   23.370104   18.271221 H          1 MOL1         0.0794
      62    O15     15.000536   23.596148   19.243174 O.3        1 MOL1        -0.5486
      63    H30     14.563153   23.701432   18.370120 H          1 MOL1         0.3769
      64    C19     23.529862   22.589174   20.657787 C.3        1 MOL1         0.2972
      65    H31     24.548850   22.710034   20.268102 H          1 MOL1         0.0751
      66    O16     23.302915   21.249559   21.138157 O.3        1 MOL1        -0.3740
      67    C20     23.230134   23.608980   21.791979 C.3        1 MOL1         0.1003
      68    H32     23.308300   24.611141   21.350673 H          1 MOL1         0.0783
      69    O17     24.170679   23.508955   22.871022 O.3        1 MOL1        -0.5519
      70    H33     24.078462   22.600153   23.253652 H          1 MOL1         0.3769
      71    C21     21.780529   23.431845   22.309154 C.3        1 MOL1         0.1053
      72    H34     21.700780   22.442744   22.780895 H          1 MOL1         0.0783
      73    O18     21.477748   24.451493   23.267347 O.3        1 MOL1        -0.5519
      74    H35     22.269180   24.502627   23.848385 H          1 MOL1         0.3769
      75    C22     20.772379   23.495439   21.134929 C.3        1 MOL1         0.1018
      76    H36     20.732154   24.529996   20.769072 H          1 MOL1         0.0783
      77    C23     21.180237   22.562734   19.959856 C.3        1 MOL1         0.1043
      78    H37     21.078541   21.521496   20.293631 H          1 MOL1         0.0783
      79    O19     22.563557   22.827211   19.609373 O.3        1 MOL1        -0.3740
      80    C24     20.315754   22.710973   18.679971 C.3        1 MOL1         0.0138
      81    H38     19.482844   22.000096   18.736895 H          1 MOL1         0.0794
      82    H39     20.921686   22.412486   17.814062 H          1 MOL1         0.0794
      83    O20     19.806256   24.036529   18.486341 O.3        1 MOL1        -0.5486
      84    H40     19.104278   24.182592   19.162976 H          1 MOL1         0.3769
      85    C25     24.877235   17.652672   22.283445 C.3        1 MOL1         0.2972
      86    H41     25.473815   16.792656   22.614483 H          1 MOL1         0.0751
      87    O21     23.553770   17.245190   21.882034 O.3        1 MOL1        -0.3740
      88    C26     24.770322   18.687668   23.429913 C.3        1 MOL1         0.1003
      89    H42     25.788079   19.035426   23.649528 H          1 MOL1         0.0783
      90    O22     24.208703   18.102305   24.614301 O.3        1 MOL1        -0.5519
      91    H43     23.260611   17.902924   24.415282 H          1 MOL1         0.3769
      92    C27     23.930411   19.905469   22.991105 C.3        1 MOL1         0.1053
      93    H44     22.904793   19.561823   22.823445 H          1 MOL1         0.0783
      94    O23     23.941830   20.886786   24.032244 O.3        1 MOL1        -0.5519
      95    H45     23.817042   20.375679   24.863462 H          1 MOL1         0.3769
      96    C28     24.427327   20.513317   21.658357 C.3        1 MOL1         0.1018
      97    H46     25.297789   21.153963   21.852243 H          1 MOL1         0.0783
      98    C29     24.765293   19.431702   20.591582 C.3        1 MOL1         0.1043
      99    H47     23.809709   19.060222   20.206952 H          1 MOL1         0.0783
     100    O24     25.500998   18.314378   21.160397 O.3        1 MOL1        -0.3740
     101    C30     25.558759   19.984607   19.383938 C.3        1 MOL1         0.0138
     102    H48     24.895673   20.637869   18.800786 H          1 MOL1         0.0794
     103    H49     25.842968   19.145910   18.734252 H          1 MOL1         0.0794
     104    O25     26.721775   20.713851   19.793666 O.3        1 MOL1        -0.5486
     105    H50     27.216780   20.966078   18.983615 H          1 MOL1         0.3769
     106    C31     21.337436   13.952312   20.703279 C.3        1 MOL1         0.2972
     107    H51     20.948954   13.015132   20.284041 H          1 MOL1         0.0751
     108    O26     20.275848   14.816260   21.156313 O.3        1 MOL1        -0.3740
     109    C32     22.289454   13.680934   21.894683 C.3        1 MOL1         0.1003
     110    H52     23.130373   13.090466   21.508204 H          1 MOL1         0.0783
     111    O27     21.631955   12.933789   22.930334 O.3        1 MOL1        -0.5519
     112    H53     20.804916   13.424115   23.169965 H          1 MOL1         0.3769
     113    C33     22.860706   15.006364   22.459384 C.3        1 MOL1         0.1053
     114    H54     22.041888   15.552916   22.946262 H          1 MOL1         0.0783
     115    O28     23.876739   14.696023   23.417744 O.3        1 MOL1        -0.5519
     116    H55     23.474378   14.029183   24.016227 H          1 MOL1         0.3769
     117    C34     23.446700   15.911592   21.341300 C.3        1 MOL1         0.1018
     118    H56     24.425852   15.508896   21.051402 H          1 MOL1         0.0783
     119    C35     22.535099   15.992056   20.080976 C.3        1 MOL1         0.1043
     120    H57     21.654783   16.595577   20.330205 H          1 MOL1         0.0783
     121    O29     22.101464   14.662691   19.706168 O.3        1 MOL1        -0.3740
     122    C36     23.190917   16.654978   18.840336 C.3        1 MOL1         0.0138
     123    H58     22.934380   17.720932   18.837853 H          1 MOL1         0.0794
     124    H59     22.738080   16.227104   17.935886 H          1 MOL1         0.0794
     125    O30     24.615147   16.497279   18.792585 O.3        1 MOL1        -0.5486
     126    H60     24.994597   16.995840   19.553167 H          1 MOL1         0.3769
     127    C1      19.427603   19.544778   22.513752 C.3        1 MOL1        -0.1693
     128    H1      18.680143   19.863481   21.779528 H          1 MOL1         0.0829
     129    H2      20.007229   20.423457   22.823635 H          1 MOL1         0.0829
     130    C2      20.284963   18.305032   22.108286 C.3        1 MOL1        -0.1768
     131    H3      19.761577   17.588535   21.464604 H          1 MOL1         0.0829
     132    H4      21.258675   18.526643   21.662869 H          1 MOL1         0.0829
     133    C3      20.283929   17.921661   23.622397 C.3        1 MOL1         0.1211
     134    H5      20.253037   16.844788   23.826217 H          1 MOL1         0.0786
     135    C4      18.905087   18.648157   23.686334 C.3        1 MOL1        -0.1768
     136    H6      18.055274   18.007562   23.427721 H          1 MOL1         0.0829
     137    H7      18.676506   19.165262   24.624695 H          1 MOL1         0.0829
     138    O1      21.293067   18.520085   24.403194 O.3        1 MOL1        -0.5515
     139    H8      21.139602   19.483721   24.345739 H          1 MOL1         0.3773
@<TRIPOS>BOND
    1     1     2    1
    2     1     3    1
    3     1     4    1
    4     4     5    1
    5     4     6    1
    6     6     7    1
    7     4     8    1
    8     8     9    1
    9     8    10    1
   10    10    11    1
   11     8    12    1
   12    12    13    1
   13    12    14    1
   14    14    15    1
   15     1    16    1
   16    14    16    1
   17    14    17    1
   18    17    18    1
   19    17    19    1
   20    17    20    1
   21    20    21    1
   22    22    23    1
   23    22    24    1
   24    22    25    1
   25    25    26    1
   26    25    27    1
   27    27    28    1
   28    25    29    1
   29    29    30    1
   30    29    31    1
   31    31    32    1
   32     3    33    1
   33    29    33    1
   34    33    34    1
   35    33    35    1
   36    35    36    1
   37    22    37    1
   38    35    37    1
   39    35    38    1
   40    38    39    1
   41    38    40    1
   42    38    41    1
   43    41    42    1
   44    43    44    1
   45    43    45    1
   46    43    46    1
   47    46    47    1
   48    46    48    1
   49    48    49    1
   50    46    50    1
   51    50    51    1
   52    50    52    1
   53    52    53    1
   54    24    54    1
   55    50    54    1
   56    54    55    1
   57    54    56    1
   58    56    57    1
   59    43    58    1
   60    56    58    1
   61    56    59    1
   62    59    60    1
   63    59    61    1
   64    59    62    1
   65    62    63    1
   66    64    65    1
   67    64    66    1
   68    64    67    1
   69    67    68    1
   70    67    69    1
   71    69    70    1
   72    67    71    1
   73    71    72    1
   74    71    73    1
   75    73    74    1
   76    45    75    1
   77    71    75    1
   78    75    76    1
   79    75    77    1
   80    77    78    1
   81    64    79    1
   82    77    79    1
   83    77    80    1
   84    80    81    1
   85    80    82    1
   86    80    83    1
   87    83    84    1
   88    85    86    1
   89    85    87    1
   90    85    88    1
   91    88    89    1
   92    88    90    1
   93    90    91    1
   94    88    92    1
   95    92    93    1
   96    92    94    1
   97    94    95    1
   98    66    96    1
   99    92    96    1
  100    96    97    1
  101    96    98    1
  102    98    99    1
  103    85   100    1
  104    98   100    1
  105    98   101    1
  106   101   102    1
  107   101   103    1
  108   101   104    1
  109   104   105    1
  110   106   107    1
  111    12   108    1
  112   106   108    1
  113   106   109    1
  114   109   110    1
  115   109   111    1
  116   111   112    1
  117   109   113    1
  118   113   114    1
  119   113   115    1
  120   115   116    1
  121    87   117    1
  122   113   117    1
  123   117   118    1
  124   117   119    1
  125   119   120    1
  126   106   121    1
  127   119   121    1
  128   119   122    1
  129   122   123    1
  130   122   124    1
  131   122   125    1
  132   125   126    1
  133   127   128    1
  134   127   129    1
  135   127   130    1
  136   130   131    1
  137   130   132    1
  138   130   133    1
  139   133   134    1
  140   127   135    1
  141   133   135    1
  142   135   136    1
  143   135   137    1
  144   133   138    1
  145   138   139    1
@<TRIPOS>SUBSTRUCTURE
       1 MOL1            1 RESIDUE      1      MOL     
       2 MOL1          139 RESIDUE      1      MOL     
@<SCITEGIC>MOL_PROPERTY
feprocess Rank
SciTegic.value.IntegerValue
155

@<SCITEGIC>MOL_PROPERTY
Conf_Id
SciTegic.value.IntegerValue
415

@<SCITEGIC>MOL_PROPERTY
Probability
SciTegic.value.DoubleValue
0.01

@<SCITEGIC>MOL_PROPERTY
G
SciTegic.value.DoubleValue
549.937

@<SCITEGIC>MOL_PROPERTY
E
SciTegic.value.DoubleValue
369.595

@<SCITEGIC>MOL_PROPERTY
-TS
SciTegic.value.DoubleValue
180.341

@<SCITEGIC>MOL_PROPERTY
U+W
SciTegic.value.DoubleValue
247.084

@<SCITEGIC>MOL_PROPERTY
U
SciTegic.value.DoubleValue
284.812

@<SCITEGIC>MOL_PROPERTY
W
SciTegic.value.DoubleValue
-37.728

@<SCITEGIC>MOL_PROPERTY
W(PB)
SciTegic.value.DoubleValue
-43.702

@<SCITEGIC>MOL_PROPERTY
W(SA)
SciTegic.value.DoubleValue
5.974

@<SCITEGIC>MOL_PROPERTY
Valence
SciTegic.value.DoubleValue
153.418

@<SCITEGIC>MOL_PROPERTY
Coulomb
SciTegic.value.DoubleValue
151.593

@<SCITEGIC>MOL_PROPERTY
VdW
SciTegic.value.DoubleValue
-20.200

@<SCITEGIC>MOL_PROPERTY
VdW6
SciTegic.value.DoubleValue
-167.854

@<SCITEGIC>MOL_PROPERTY
VdW12
SciTegic.value.DoubleValue
147.654

@<SCITEGIC>MOL_PROPERTY
Bond
SciTegic.value.DoubleValue
4.629

@<SCITEGIC>MOL_PROPERTY
Angle
SciTegic.value.DoubleValue
12.295

@<SCITEGIC>MOL_PROPERTY
Pdih
SciTegic.value.DoubleValue
136.495

@<SCITEGIC>MOL_PROPERTY
Idih
SciTegic.value.DoubleValue
0.000

@<SCITEGIC>MOL_PROPERTY
Tether
SciTegic.value.DoubleValue
0.000

@<TRIPOS>MOLECULE
CD_guest-s16_fast_vm2_rndm.mol2 : feprocess host+ligand conformer 156
         139         145           2
SMALL
USER_CHARGES
 
@<TRIPOS>ATOM
       1    C1      16.176150   15.231176   20.767247 C.3        1 MOL1         0.2972
       2    H1      15.135445   15.143575   20.429435 H          1 MOL1         0.0751
       3    O1      16.458100   16.542142   21.291625 O.3        1 MOL1        -0.3740
       4    C2      16.490878   14.193432   21.875614 C.3        1 MOL1         0.1003
       5    H2      16.303473   13.196720   21.455591 H          1 MOL1         0.0783
       6    O2      15.646064   14.392371   23.021139 O.3        1 MOL1        -0.5519
       7    H3      15.710049   15.348799   23.272156 H          1 MOL1         0.3769
       8    C3      17.981305   14.266625   22.291717 C.3        1 MOL1         0.1053
       9    H4      18.136800   15.225234   22.803106 H          1 MOL1         0.0783
      10    O3      18.283597   13.190323   23.186182 O.3        1 MOL1        -0.5519
      11    H5      17.549202   13.184037   23.839331 H          1 MOL1         0.3769
      12    C4      18.928500   14.212158   21.064740 C.3        1 MOL1         0.1018
      13    H6      18.924629   13.186451   20.673350 H          1 MOL1         0.0783
      14    C5      18.484299   15.202681   19.949196 C.3        1 MOL1         0.1043
      15    H7      18.631505   16.224185   20.320173 H          1 MOL1         0.0783
      16    O4      17.079175   14.993594   19.666768 O.3        1 MOL1        -0.3740
      17    C6      19.256839   15.098430   18.610122 C.3        1 MOL1         0.0138
      18    H8      20.131441   15.757071   18.661567 H          1 MOL1         0.0794
      19    H9      18.616507   15.488455   17.807689 H          1 MOL1         0.0794
      20    O5      19.674854   13.765692   18.297471 O.3        1 MOL1        -0.5486
      21    H10     20.545871   13.636708   18.737646 H          1 MOL1         0.3769
      22    C7      14.863074   20.300358   21.807776 C.3        1 MOL1         0.2972
      23    H11     14.236611   21.189950   21.954358 H          1 MOL1         0.0751
      24    O6      16.240704   20.660132   21.589115 O.3        1 MOL1        -0.3740
      25    C8      14.796309   19.395339   23.061935 C.3        1 MOL1         0.1003
      26    H12     13.752787   19.082376   23.196818 H          1 MOL1         0.0783
      27    O7      15.234948   20.121313   24.219757 O.3        1 MOL1        -0.5519
      28    H13     15.880802   20.788923   23.892855 H          1 MOL1         0.3769
      29    C9      15.661657   18.130204   22.869648 C.3        1 MOL1         0.1053
      30    H14     16.709497   18.449700   22.827481 H          1 MOL1         0.0783
      31    O8      15.474134   17.241897   23.976602 O.3        1 MOL1        -0.5519
      32    H15     15.525092   17.815317   24.773546 H          1 MOL1         0.3769
      33    C10     15.329079   17.398148   21.548299 C.3        1 MOL1         0.1018
      34    H16     14.399694   16.829438   21.685639 H          1 MOL1         0.0783
      35    C11     15.203914   18.364035   20.335698 C.3        1 MOL1         0.1043
      36    H17     16.217979   18.685105   20.076956 H          1 MOL1         0.0783
      37    O9      14.411875   19.533786   20.670555 O.3        1 MOL1        -0.3740
      38    C12     14.595439   17.707261   19.073271 C.3        1 MOL1         0.0138
      39    H18     15.329599   17.005631   18.654947 H          1 MOL1         0.0794
      40    H19     14.425483   18.486338   18.317982 H          1 MOL1         0.0794
      41    O10     13.372775   17.018192   19.361512 O.3        1 MOL1        -0.5486
      42    H20     13.002419   16.698954   18.509692 H          1 MOL1         0.3769
      43    C13     18.596760   23.933199   20.545592 C.3        1 MOL1         0.2972
      44    H21     19.008380   24.852425   20.109178 H          1 MOL1         0.0751
      45    O11     19.597876   23.182722   21.254590 O.3        1 MOL1        -0.3740
      46    C14     17.456145   24.251834   21.546105 C.3        1 MOL1         0.1003
      47    H22     16.677467   24.794389   20.994592 H          1 MOL1         0.0783
      48    O12     17.938091   25.074261   22.621813 O.3        1 MOL1        -0.5519
      49    H23     18.756702   24.641426   22.974613 H          1 MOL1         0.3769
      50    C15     16.828297   22.950604   22.108959 C.3        1 MOL1         0.1053
      51    H24     17.571623   22.478270   22.762326 H          1 MOL1         0.0783
      52    O13     15.661279   23.280360   22.868800 O.3        1 MOL1        -0.5519
      53    H25     15.936838   24.017825   23.456844 H          1 MOL1         0.3769
      54    C16     16.465521   21.947424   20.980753 C.3        1 MOL1         0.1018
      55    H26     15.570989   22.313589   20.460227 H          1 MOL1         0.0783
      56    C17     17.616790   21.775292   19.951784 C.3        1 MOL1         0.1043
      57    H27     18.447198   21.257039   20.448732 H          1 MOL1         0.0783
      58    O14     18.056407   23.082783   19.511444 O.3        1 MOL1        -0.3740
      59    C18     17.249651   20.936685   18.699814 C.3        1 MOL1         0.0138
      60    H28     17.500592   19.888076   18.899513 H          1 MOL1         0.0794
      61    H29     17.888702   21.255564   17.865599 H          1 MOL1         0.0794
      62    O15     15.869134   21.044752   18.327598 O.3        1 MOL1        -0.5486
      63    H30     15.333822   20.662332   19.060604 H          1 MOL1         0.3769
      64    C19     23.609799   22.842422   21.983581 C.3        1 MOL1         0.2972
      65    H31     24.686778   22.970893   22.153100 H          1 MOL1         0.0751
      66    O16     23.240868   21.448199   21.962562 O.3        1 MOL1        -0.3740
      67    C20     22.821279   23.547137   23.112689 C.3        1 MOL1         0.1003
      68    H32     23.073224   24.614981   23.075891 H          1 MOL1         0.0783
      69    O17     23.199558   23.012648   24.391247 O.3        1 MOL1        -0.5519
      70    H33     23.566088   22.110778   24.223970 H          1 MOL1         0.3769
      71    C21     21.297636   23.408027   22.893675 C.3        1 MOL1         0.1053
      72    H34     21.032055   22.355375   23.053249 H          1 MOL1         0.0783
      73    O18     20.598686   24.225827   23.839072 O.3        1 MOL1        -0.5519
      74    H35     20.988848   23.994537   24.710896 H          1 MOL1         0.3769
      75    C22     20.877522   23.804963   21.456146 C.3        1 MOL1         0.1018
      76    H36     20.820096   24.899904   21.396557 H          1 MOL1         0.0783
      77    C23     21.826678   23.247148   20.356942 C.3        1 MOL1         0.1043
      78    H37     21.618894   22.174641   20.262935 H          1 MOL1         0.0783
      79    O19     23.217950   23.428172   20.726012 O.3        1 MOL1        -0.3740
      80    C24     21.607157   23.878475   18.961167 C.3        1 MOL1         0.0138
      81    H38     20.651582   23.516153   18.559029 H          1 MOL1         0.0794
      82    H39     22.398200   23.523342   18.286961 H          1 MOL1         0.0794
      83    O20     21.602093   25.310350   19.012016 O.3        1 MOL1        -0.5486
      84    H40     21.538127   25.641334   18.089545 H          1 MOL1         0.3769
      85    C25     25.014204   17.686445   21.486742 C.3        1 MOL1         0.2972
      86    H41     25.732117   16.886868   21.264173 H          1 MOL1         0.0751
      87    O21     23.726360   17.152502   21.850515 O.3        1 MOL1        -0.3740
      88    C26     25.529742   18.530265   22.680913 C.3        1 MOL1         0.1003
      89    H42     26.520507   18.916684   22.408575 H          1 MOL1         0.0783
      90    O22     25.644927   17.708481   23.853679 O.3        1 MOL1        -0.5519
      91    H43     24.914132   17.043689   23.808305 H          1 MOL1         0.3769
      92    C27     24.605952   19.740806   22.961385 C.3        1 MOL1         0.1053
      93    H44     23.656621   19.360531   23.355796 H          1 MOL1         0.0783
      94    O23     25.214956   20.597782   23.932492 O.3        1 MOL1        -0.5519
      95    H45     25.533236   19.996221   24.642039 H          1 MOL1         0.3769
      96    C28     24.313156   20.533829   21.664643 C.3        1 MOL1         0.1018
      97    H46     25.229490   21.057779   21.361758 H          1 MOL1         0.0783
      98    C29     23.860285   19.605178   20.504999 C.3        1 MOL1         0.1043
      99    H47     22.891025   19.164673   20.772519 H          1 MOL1         0.0783
     100    O24     24.842202   18.551030   20.342812 O.3        1 MOL1        -0.3740
     101    C30     23.675704   20.315317   19.137978 C.3        1 MOL1         0.0138
     102    H48     22.641672   20.673431   19.066765 H          1 MOL1         0.0794
     103    H49     23.807197   19.574424   18.338268 H          1 MOL1         0.0794
     104    O25     24.578526   21.409864   18.940098 O.3        1 MOL1        -0.5486
     105    H50     24.268960   22.151457   19.511186 H          1 MOL1         0.3769
     106    C31     21.342112   13.764500   21.184327 C.3        1 MOL1         0.2972
     107    H51     21.012118   12.750637   20.924393 H          1 MOL1         0.0751
     108    O26     20.228793   14.599459   21.554676 O.3        1 MOL1        -0.3740
     109    C32     22.302576   13.705365   22.399221 C.3        1 MOL1         0.1003
     110    H52     23.142019   13.052296   22.127319 H          1 MOL1         0.0783
     111    O27     21.621489   13.157431   23.539150 O.3        1 MOL1        -0.5519
     112    H53     20.680935   13.451594   23.471418 H          1 MOL1         0.3769
     113    C33     22.873639   15.104974   22.734956 C.3        1 MOL1         0.1053
     114    H54     22.051934   15.730990   23.107326 H          1 MOL1         0.0783
     115    O28     23.883123   14.982452   23.743241 O.3        1 MOL1        -0.5519
     116    H55     23.488665   14.401900   24.431328 H          1 MOL1         0.3769
     117    C34     23.467398   15.783833   21.477761 C.3        1 MOL1         0.1018
     118    H56     24.387077   15.251393   21.201677 H          1 MOL1         0.0783
     119    C35     22.464608   15.748900   20.289339 C.3        1 MOL1         0.1043
     120    H57     21.597194   16.364454   20.559143 H          1 MOL1         0.0783
     121    O29     22.032114   14.380711   20.075331 O.3        1 MOL1        -0.3740
     122    C36     23.009849   16.295144   18.945015 C.3        1 MOL1         0.0138
     123    H58     22.859417   17.381457   18.923455 H          1 MOL1         0.0794
     124    H59     22.409913   15.875641   18.126783 H          1 MOL1         0.0794
     125    O30     24.393440   15.997161   18.733378 O.3        1 MOL1        -0.5486
     126    H60     24.901580   16.751880   19.107668 H          1 MOL1         0.3769
     127    C1      19.603249   17.754570   23.014371 C.3        1 MOL1        -0.1693
     128    H1      19.881136   16.702767   22.917871 H          1 MOL1         0.0829
     129    H2      18.755729   17.823668   23.706909 H          1 MOL1         0.0829
     130    C2      19.446587   18.558273   21.679205 C.3        1 MOL1        -0.1768
     131    H3      20.094702   18.218482   20.863750 H          1 MOL1         0.0829
     132    H4      18.428462   18.667220   21.292428 H          1 MOL1         0.0829
     133    C3      20.007887   19.779845   22.467836 C.3        1 MOL1         0.1211
     134    H5      20.635423   20.459950   21.879500 H          1 MOL1         0.0786
     135    C4      20.783764   18.731117   23.318343 C.3        1 MOL1        -0.1768
     136    H6      21.736680   18.419305   22.884392 H          1 MOL1         0.0829
     137    H7      20.943991   18.989355   24.370828 H          1 MOL1         0.0829
     138    O1      19.045262   20.509125   23.192018 O.3        1 MOL1        -0.5515
     139    H8      18.544862   19.855604   23.714503 H          1 MOL1         0.3773
@<TRIPOS>BOND
    1     1     2    1
    2     1     3    1
    3     1     4    1
    4     4     5    1
    5     4     6    1
    6     6     7    1
    7     4     8    1
    8     8     9    1
    9     8    10    1
   10    10    11    1
   11     8    12    1
   12    12    13    1
   13    12    14    1
   14    14    15    1
   15     1    16    1
   16    14    16    1
   17    14    17    1
   18    17    18    1
   19    17    19    1
   20    17    20    1
   21    20    21    1
   22    22    23    1
   23    22    24    1
   24    22    25    1
   25    25    26    1
   26    25    27    1
   27    27    28    1
   28    25    29    1
   29    29    30    1
   30    29    31    1
   31    31    32    1
   32     3    33    1
   33    29    33    1
   34    33    34    1
   35    33    35    1
   36    35    36    1
   37    22    37    1
   38    35    37    1
   39    35    38    1
   40    38    39    1
   41    38    40    1
   42    38    41    1
   43    41    42    1
   44    43    44    1
   45    43    45    1
   46    43    46    1
   47    46    47    1
   48    46    48    1
   49    48    49    1
   50    46    50    1
   51    50    51    1
   52    50    52    1
   53    52    53    1
   54    24    54    1
   55    50    54    1
   56    54    55    1
   57    54    56    1
   58    56    57    1
   59    43    58    1
   60    56    58    1
   61    56    59    1
   62    59    60    1
   63    59    61    1
   64    59    62    1
   65    62    63    1
   66    64    65    1
   67    64    66    1
   68    64    67    1
   69    67    68    1
   70    67    69    1
   71    69    70    1
   72    67    71    1
   73    71    72    1
   74    71    73    1
   75    73    74    1
   76    45    75    1
   77    71    75    1
   78    75    76    1
   79    75    77    1
   80    77    78    1
   81    64    79    1
   82    77    79    1
   83    77    80    1
   84    80    81    1
   85    80    82    1
   86    80    83    1
   87    83    84    1
   88    85    86    1
   89    85    87    1
   90    85    88    1
   91    88    89    1
   92    88    90    1
   93    90    91    1
   94    88    92    1
   95    92    93    1
   96    92    94    1
   97    94    95    1
   98    66    96    1
   99    92    96    1
  100    96    97    1
  101    96    98    1
  102    98    99    1
  103    85   100    1
  104    98   100    1
  105    98   101    1
  106   101   102    1
  107   101   103    1
  108   101   104    1
  109   104   105    1
  110   106   107    1
  111    12   108    1
  112   106   108    1
  113   106   109    1
  114   109   110    1
  115   109   111    1
  116   111   112    1
  117   109   113    1
  118   113   114    1
  119   113   115    1
  120   115   116    1
  121    87   117    1
  122   113   117    1
  123   117   118    1
  124   117   119    1
  125   119   120    1
  126   106   121    1
  127   119   121    1
  128   119   122    1
  129   122   123    1
  130   122   124    1
  131   122   125    1
  132   125   126    1
  133   127   128    1
  134   127   129    1
  135   127   130    1
  136   130   131    1
  137   130   132    1
  138   130   133    1
  139   133   134    1
  140   127   135    1
  141   133   135    1
  142   135   136    1
  143   135   137    1
  144   133   138    1
  145   138   139    1
@<TRIPOS>SUBSTRUCTURE
       1 MOL1            1 RESIDUE      1      MOL     
       2 MOL1          139 RESIDUE      1      MOL     
@<SCITEGIC>MOL_PROPERTY
feprocess Rank
SciTegic.value.IntegerValue
156

@<SCITEGIC>MOL_PROPERTY
Conf_Id
SciTegic.value.IntegerValue
420

@<SCITEGIC>MOL_PROPERTY
Probability
SciTegic.value.DoubleValue
0.01

@<SCITEGIC>MOL_PROPERTY
G
SciTegic.value.DoubleValue
549.940

@<SCITEGIC>MOL_PROPERTY
E
SciTegic.value.DoubleValue
373.312

@<SCITEGIC>MOL_PROPERTY
-TS
SciTegic.value.DoubleValue
176.628

@<SCITEGIC>MOL_PROPERTY
U+W
SciTegic.value.DoubleValue
250.801

@<SCITEGIC>MOL_PROPERTY
U
SciTegic.value.DoubleValue
288.617

@<SCITEGIC>MOL_PROPERTY
W
SciTegic.value.DoubleValue
-37.817

@<SCITEGIC>MOL_PROPERTY
W(PB)
SciTegic.value.DoubleValue
-43.709

@<SCITEGIC>MOL_PROPERTY
W(SA)
SciTegic.value.DoubleValue
5.892

@<SCITEGIC>MOL_PROPERTY
Valence
SciTegic.value.DoubleValue
154.347

@<SCITEGIC>MOL_PROPERTY
Coulomb
SciTegic.value.DoubleValue
157.959

@<SCITEGIC>MOL_PROPERTY
VdW
SciTegic.value.DoubleValue
-23.689

@<SCITEGIC>MOL_PROPERTY
VdW6
SciTegic.value.DoubleValue
-169.450

@<SCITEGIC>MOL_PROPERTY
VdW12
SciTegic.value.DoubleValue
145.761

@<SCITEGIC>MOL_PROPERTY
Bond
SciTegic.value.DoubleValue
4.428

@<SCITEGIC>MOL_PROPERTY
Angle
SciTegic.value.DoubleValue
11.602

@<SCITEGIC>MOL_PROPERTY
Pdih
SciTegic.value.DoubleValue
138.318

@<SCITEGIC>MOL_PROPERTY
Idih
SciTegic.value.DoubleValue
0.000

@<SCITEGIC>MOL_PROPERTY
Tether
SciTegic.value.DoubleValue
0.000

@<TRIPOS>MOLECULE
CD_guest-s16_fast_vm2_rndm.mol2 : feprocess host+ligand conformer 157
         139         145           2
SMALL
USER_CHARGES
 
@<TRIPOS>ATOM
       1    C1      16.304987   15.448969   20.205094 C.3        1 MOL1         0.2972
       2    H1      15.339995   15.417267   19.682953 H          1 MOL1         0.0751
       3    O1      16.481465   16.683281   20.926965 O.3        1 MOL1        -0.3740
       4    C2      16.447899   14.264827   21.195649 C.3        1 MOL1         0.1003
       5    H2      16.390498   13.338506   20.609384 H          1 MOL1         0.0783
       6    O2      15.395182   14.270851   22.173058 O.3        1 MOL1        -0.5519
       7    H3      15.423370   15.149280   22.630989 H          1 MOL1         0.3769
       8    C3      17.828694   14.306519   21.894272 C.3        1 MOL1         0.1053
       9    H4      17.829625   15.183366   22.551775 H          1 MOL1         0.0783
      10    O3      18.007766   13.121499   22.675543 O.3        1 MOL1        -0.5519
      11    H5      17.170503   13.013686   23.178613 H          1 MOL1         0.3769
      12    C4      18.996195   14.445830   20.878960 C.3        1 MOL1         0.1018
      13    H6      19.129027   13.473572   20.386558 H          1 MOL1         0.0783
      14    C5      18.719251   15.532278   19.795230 C.3        1 MOL1         0.1043
      15    H7      18.782992   16.518946   20.270737 H          1 MOL1         0.0783
      16    O4      17.386832   15.344160   19.257660 O.3        1 MOL1        -0.3740
      17    C6      19.701062   15.549305   18.595141 C.3        1 MOL1         0.0138
      18    H8      20.529660   16.226857   18.827604 H          1 MOL1         0.0794
      19    H9      19.182226   15.981762   17.729115 H          1 MOL1         0.0794
      20    O5      20.210975   14.254706   18.257402 O.3        1 MOL1        -0.5486
      21    H10     20.914602   14.043684   18.914601 H          1 MOL1         0.3769
      22    C7      14.714556   20.228560   21.970511 C.3        1 MOL1         0.2972
      23    H11     14.057632   21.070320   22.224853 H          1 MOL1         0.0751
      24    O6      16.096498   20.632941   21.902931 O.3        1 MOL1        -0.3740
      25    C8      14.588477   19.125816   23.047217 C.3        1 MOL1         0.1003
      26    H12     13.546237   18.781066   23.051483 H          1 MOL1         0.0783
      27    O7      14.922866   19.655014   24.340621 O.3        1 MOL1        -0.5519
      28    H13     15.513229   20.433127   24.188553 H          1 MOL1         0.3769
      29    C9      15.492572   17.919473   22.705326 C.3        1 MOL1         0.1053
      30    H14     16.533531   18.243358   22.816328 H          1 MOL1         0.0783
      31    O8      15.225785   16.846552   23.614246 O.3        1 MOL1        -0.5519
      32    H15     15.265417   17.255074   24.507524 H          1 MOL1         0.3769
      33    C10     15.294699   17.432816   21.247813 C.3        1 MOL1         0.1018
      34    H16     14.388276   16.814390   21.203022 H          1 MOL1         0.0783
      35    C11     15.209542   18.595491   20.216830 C.3        1 MOL1         0.1043
      36    H17     16.224444   18.991117   20.085853 H          1 MOL1         0.0783
      37    O9      14.348026   19.659180   20.697805 O.3        1 MOL1        -0.3740
      38    C12     14.709113   18.155573   18.820170 C.3        1 MOL1         0.0138
      39    H18     15.495383   17.558117   18.339262 H          1 MOL1         0.0794
      40    H19     14.558283   19.051740   18.203284 H          1 MOL1         0.0794
      41    O10     13.497920   17.394099   18.896376 O.3        1 MOL1        -0.5486
      42    H20     13.193546   17.224665   17.978052 H          1 MOL1         0.3769
      43    C13     18.479547   24.026246   21.451780 C.3        1 MOL1         0.2972
      44    H21     18.835300   25.052546   21.293485 H          1 MOL1         0.0751
      45    O11     19.579785   23.104896   21.586515 O.3        1 MOL1        -0.3740
      46    C14     17.643429   23.959837   22.754859 C.3        1 MOL1         0.1003
      47    H22     16.801012   24.655345   22.646687 H          1 MOL1         0.0783
      48    O12     18.446408   24.353803   23.878243 O.3        1 MOL1        -0.5519
      49    H23     19.379103   24.129532   23.646272 H          1 MOL1         0.3769
      50    C15     17.069826   22.539883   22.972816 C.3        1 MOL1         0.1053
      51    H24     17.910624   21.863577   23.169093 H          1 MOL1         0.0783
      52    O13     16.181035   22.539768   24.094808 O.3        1 MOL1        -0.5519
      53    H25     16.656057   23.039198   24.795949 H          1 MOL1         0.3769
      54    C16     16.327988   22.040611   21.710214 C.3        1 MOL1         0.1018
      55    H26     15.392802   22.606587   21.606625 H          1 MOL1         0.0783
      56    C17     17.182401   22.220811   20.425537 C.3        1 MOL1         0.1043
      57    H27     18.042694   21.545544   20.500570 H          1 MOL1         0.0783
      58    O14     17.654248   23.590613   20.348411 O.3        1 MOL1        -0.3740
      59    C18     16.452244   21.878044   19.100187 C.3        1 MOL1         0.0138
      60    H28     16.604188   20.814103   18.881944 H          1 MOL1         0.0794
      61    H29     16.927902   22.437417   18.283452 H          1 MOL1         0.0794
      62    O15     15.049357   22.163195   19.135177 O.3        1 MOL1        -0.5486
      63    H30     14.619419   21.431907   19.637009 H          1 MOL1         0.3769
      64    C19     23.557086   22.523463   20.492532 C.3        1 MOL1         0.2972
      65    H31     24.560127   22.589385   20.051485 H          1 MOL1         0.0751
      66    O16     23.357582   21.274493   21.181382 O.3        1 MOL1        -0.3740
      67    C20     23.307565   23.679683   21.496270 C.3        1 MOL1         0.1003
      68    H32     23.399233   24.621382   20.939617 H          1 MOL1         0.0783
      69    O17     24.273360   23.666051   22.559637 O.3        1 MOL1        -0.5519
      70    H33     24.262168   22.759088   22.958650 H          1 MOL1         0.3769
      71    C21     21.871286   23.601833   22.071328 C.3        1 MOL1         0.1053
      72    H34     21.807105   22.700797   22.694952 H          1 MOL1         0.0783
      73    O18     21.608900   24.759253   22.871460 O.3        1 MOL1        -0.5519
      74    H35     22.408933   24.872618   23.431204 H          1 MOL1         0.3769
      75    C22     20.811930   23.489235   20.944789 C.3        1 MOL1         0.1018
      76    H36     20.732200   24.465117   20.448102 H          1 MOL1         0.0783
      77    C23     21.185542   22.404736   19.892543 C.3        1 MOL1         0.1043
      78    H37     21.104565   21.418983   20.368613 H          1 MOL1         0.0783
      79    O19     22.552103   22.617702   19.460519 O.3        1 MOL1        -0.3740
      80    C24     20.286805   22.368903   18.628984 C.3        1 MOL1         0.0138
      81    H38     19.453649   21.680246   18.810239 H          1 MOL1         0.0794
      82    H39     20.868739   21.942854   17.800780 H          1 MOL1         0.0794
      83    O20     19.777604   23.654314   18.255805 O.3        1 MOL1        -0.5486
      84    H40     19.035462   23.858538   18.871356 H          1 MOL1         0.3769
      85    C25     25.085081   17.692598   22.176712 C.3        1 MOL1         0.2972
      86    H41     25.733203   16.841928   22.423713 H          1 MOL1         0.0751
      87    O21     23.702930   17.298234   22.076429 O.3        1 MOL1        -0.3740
      88    C26     25.196990   18.772938   23.277972 C.3        1 MOL1         0.1003
      89    H42     26.240497   19.112728   23.305936 H          1 MOL1         0.0783
      90    O22     24.839929   18.221465   24.555705 O.3        1 MOL1        -0.5519
      91    H43     24.231763   17.461650   24.380581 H          1 MOL1         0.3769
      92    C27     24.304252   19.991112   22.946787 C.3        1 MOL1         0.1053
      93    H44     23.258698   19.674417   23.028265 H          1 MOL1         0.0783
      94    O23     24.557161   21.039735   23.887446 O.3        1 MOL1        -0.5519
      95    H45     24.545556   20.598712   24.766295 H          1 MOL1         0.3769
      96    C28     24.532904   20.508734   21.505250 C.3        1 MOL1         0.1018
      97    H46     25.444550   21.120886   21.491945 H          1 MOL1         0.0783
      98    C29     24.628427   19.367917   20.450758 C.3        1 MOL1         0.1043
      99    H47     23.613573   18.981688   20.293402 H          1 MOL1         0.0783
     100    O24     25.475379   18.287971   20.922763 O.3        1 MOL1        -0.3740
     101    C30     25.155740   19.836363   19.073456 C.3        1 MOL1         0.0138
     102    H48     24.382289   20.451430   18.593914 H          1 MOL1         0.0794
     103    H49     25.310026   18.953730   18.438212 H          1 MOL1         0.0794
     104    O25     26.371283   20.586202   19.187931 O.3        1 MOL1        -0.5486
     105    H50     26.690265   20.777941   18.279015 H          1 MOL1         0.3769
     106    C31     21.289323   13.924828   21.556152 C.3        1 MOL1         0.2972
     107    H51     20.953349   12.893636   21.386496 H          1 MOL1         0.0751
     108    O26     20.162930   14.825620   21.647301 O.3        1 MOL1        -0.3740
     109    C32     22.089476   13.991102   22.883749 C.3        1 MOL1         0.1003
     110    H52     22.927212   13.287062   22.795847 H          1 MOL1         0.0783
     111    O27     21.261622   13.600118   23.989820 O.3        1 MOL1        -0.5519
     112    H53     20.342122   13.874524   23.769254 H          1 MOL1         0.3769
     113    C33     22.681663   15.400845   23.120770 C.3        1 MOL1         0.1053
     114    H54     21.852628   16.093355   23.305304 H          1 MOL1         0.0783
     115    O28     23.549048   15.378006   24.258850 O.3        1 MOL1        -0.5519
     116    H55     23.045453   14.897443   24.953231 H          1 MOL1         0.3769
     117    C34     23.456921   15.894198   21.877133 C.3        1 MOL1         0.1018
     118    H56     24.386284   15.316257   21.788124 H          1 MOL1         0.0783
     119    C35     22.622184   15.731967   20.578801 C.3        1 MOL1         0.1043
     120    H57     21.761526   16.407806   20.649487 H          1 MOL1         0.0783
     121    O29     22.146524   14.365415   20.479200 O.3        1 MOL1        -0.3740
     122    C36     23.378669   16.088197   19.271323 C.3        1 MOL1         0.0138
     123    H58     23.236744   17.156127   19.065464 H          1 MOL1         0.0794
     124    H59     22.916507   15.542342   18.437999 H          1 MOL1         0.0794
     125    O30     24.779174   15.795321   19.328077 O.3        1 MOL1        -0.5486
     126    H60     25.203581   16.519538   19.844595 H          1 MOL1         0.3769
     127    C1      19.978522   20.022197   22.837133 C.3        1 MOL1        -0.1693
     128    H1      19.442177   20.380945   21.951260 H          1 MOL1         0.0829
     129    H2      20.591040   20.837876   23.235797 H          1 MOL1         0.0829
     130    C2      20.701175   18.651419   22.646276 C.3        1 MOL1        -0.1768
     131    H3      21.475324   18.434813   23.391296 H          1 MOL1         0.0829
     132    H4      21.101500   18.454943   21.646935 H          1 MOL1         0.0829
     133    C3      19.319658   18.016252   22.973958 C.3        1 MOL1         0.1211
     134    H5      18.640889   17.957240   22.113537 H          1 MOL1         0.0786
     135    C4      19.090335   19.264732   23.876548 C.3        1 MOL1        -0.1768
     136    H6      19.525329   19.183746   24.880177 H          1 MOL1         0.0829
     137    H7      18.053905   19.604220   23.970396 H          1 MOL1         0.0829
     138    O1      19.377815   16.787890   23.655525 O.3        1 MOL1        -0.5515
     139    H8      19.657110   16.110765   23.002852 H          1 MOL1         0.3773
@<TRIPOS>BOND
    1     1     2    1
    2     1     3    1
    3     1     4    1
    4     4     5    1
    5     4     6    1
    6     6     7    1
    7     4     8    1
    8     8     9    1
    9     8    10    1
   10    10    11    1
   11     8    12    1
   12    12    13    1
   13    12    14    1
   14    14    15    1
   15     1    16    1
   16    14    16    1
   17    14    17    1
   18    17    18    1
   19    17    19    1
   20    17    20    1
   21    20    21    1
   22    22    23    1
   23    22    24    1
   24    22    25    1
   25    25    26    1
   26    25    27    1
   27    27    28    1
   28    25    29    1
   29    29    30    1
   30    29    31    1
   31    31    32    1
   32     3    33    1
   33    29    33    1
   34    33    34    1
   35    33    35    1
   36    35    36    1
   37    22    37    1
   38    35    37    1
   39    35    38    1
   40    38    39    1
   41    38    40    1
   42    38    41    1
   43    41    42    1
   44    43    44    1
   45    43    45    1
   46    43    46    1
   47    46    47    1
   48    46    48    1
   49    48    49    1
   50    46    50    1
   51    50    51    1
   52    50    52    1
   53    52    53    1
   54    24    54    1
   55    50    54    1
   56    54    55    1
   57    54    56    1
   58    56    57    1
   59    43    58    1
   60    56    58    1
   61    56    59    1
   62    59    60    1
   63    59    61    1
   64    59    62    1
   65    62    63    1
   66    64    65    1
   67    64    66    1
   68    64    67    1
   69    67    68    1
   70    67    69    1
   71    69    70    1
   72    67    71    1
   73    71    72    1
   74    71    73    1
   75    73    74    1
   76    45    75    1
   77    71    75    1
   78    75    76    1
   79    75    77    1
   80    77    78    1
   81    64    79    1
   82    77    79    1
   83    77    80    1
   84    80    81    1
   85    80    82    1
   86    80    83    1
   87    83    84    1
   88    85    86    1
   89    85    87    1
   90    85    88    1
   91    88    89    1
   92    88    90    1
   93    90    91    1
   94    88    92    1
   95    92    93    1
   96    92    94    1
   97    94    95    1
   98    66    96    1
   99    92    96    1
  100    96    97    1
  101    96    98    1
  102    98    99    1
  103    85   100    1
  104    98   100    1
  105    98   101    1
  106   101   102    1
  107   101   103    1
  108   101   104    1
  109   104   105    1
  110   106   107    1
  111    12   108    1
  112   106   108    1
  113   106   109    1
  114   109   110    1
  115   109   111    1
  116   111   112    1
  117   109   113    1
  118   113   114    1
  119   113   115    1
  120   115   116    1
  121    87   117    1
  122   113   117    1
  123   117   118    1
  124   117   119    1
  125   119   120    1
  126   106   121    1
  127   119   121    1
  128   119   122    1
  129   122   123    1
  130   122   124    1
  131   122   125    1
  132   125   126    1
  133   127   128    1
  134   127   129    1
  135   127   130    1
  136   130   131    1
  137   130   132    1
  138   130   133    1
  139   133   134    1
  140   127   135    1
  141   133   135    1
  142   135   136    1
  143   135   137    1
  144   133   138    1
  145   138   139    1
@<TRIPOS>SUBSTRUCTURE
       1 MOL1            1 RESIDUE      1      MOL     
       2 MOL1          139 RESIDUE      1      MOL     
@<SCITEGIC>MOL_PROPERTY
feprocess Rank
SciTegic.value.IntegerValue
157

@<SCITEGIC>MOL_PROPERTY
Conf_Id
SciTegic.value.IntegerValue
752

@<SCITEGIC>MOL_PROPERTY
Probability
SciTegic.value.DoubleValue
0.01

@<SCITEGIC>MOL_PROPERTY
G
SciTegic.value.DoubleValue
549.951

@<SCITEGIC>MOL_PROPERTY
E
SciTegic.value.DoubleValue
371.506

@<SCITEGIC>MOL_PROPERTY
-TS
SciTegic.value.DoubleValue
178.444

@<SCITEGIC>MOL_PROPERTY
U+W
SciTegic.value.DoubleValue
248.995

@<SCITEGIC>MOL_PROPERTY
U
SciTegic.value.DoubleValue
286.694

@<SCITEGIC>MOL_PROPERTY
W
SciTegic.value.DoubleValue
-37.699

@<SCITEGIC>MOL_PROPERTY
W(PB)
SciTegic.value.DoubleValue
-43.641

@<SCITEGIC>MOL_PROPERTY
W(SA)
SciTegic.value.DoubleValue
5.942

@<SCITEGIC>MOL_PROPERTY
Valence
SciTegic.value.DoubleValue
154.330

@<SCITEGIC>MOL_PROPERTY
Coulomb
SciTegic.value.DoubleValue
154.782

@<SCITEGIC>MOL_PROPERTY
VdW
SciTegic.value.DoubleValue
-22.418

@<SCITEGIC>MOL_PROPERTY
VdW6
SciTegic.value.DoubleValue
-169.774

@<SCITEGIC>MOL_PROPERTY
VdW12
SciTegic.value.DoubleValue
147.356

@<SCITEGIC>MOL_PROPERTY
Bond
SciTegic.value.DoubleValue
4.602

@<SCITEGIC>MOL_PROPERTY
Angle
SciTegic.value.DoubleValue
11.803

@<SCITEGIC>MOL_PROPERTY
Pdih
SciTegic.value.DoubleValue
137.925

@<SCITEGIC>MOL_PROPERTY
Idih
SciTegic.value.DoubleValue
0.000

@<SCITEGIC>MOL_PROPERTY
Tether
SciTegic.value.DoubleValue
0.000

@<TRIPOS>MOLECULE
CD_guest-s16_fast_vm2_rndm.mol2 : feprocess host+ligand conformer 158
         139         145           2
SMALL
USER_CHARGES
 
@<TRIPOS>ATOM
       1    C1      16.249419   15.194165   21.126344 C.3        1 MOL1         0.2972
       2    H1      15.208764   14.961595   20.866308 H          1 MOL1         0.0751
       3    O1      16.426189   16.599803   21.382201 O.3        1 MOL1        -0.3740
       4    C2      16.650045   14.434878   22.417715 C.3        1 MOL1         0.1003
       5    H2      16.518488   13.361760   22.227435 H          1 MOL1         0.0783
       6    O2      15.804782   14.832740   23.508273 O.3        1 MOL1        -0.5519
       7    H3      15.568441   15.778423   23.349025 H          1 MOL1         0.3769
       8    C3      18.136877   14.681650   22.771220 C.3        1 MOL1         0.1053
       9    H4      18.250801   15.736887   23.049857 H          1 MOL1         0.0783
      10    O3      18.519010   13.849469   23.871225 O.3        1 MOL1        -0.5519
      11    H5      17.784664   13.932624   24.520174 H          1 MOL1         0.3769
      12    C4      19.042966   14.399663   21.549361 C.3        1 MOL1         0.1018
      13    H6      19.049425   13.319006   21.354090 H          1 MOL1         0.0783
      14    C5      18.543919   15.138188   20.280111 C.3        1 MOL1         0.1043
      15    H7      18.643033   16.217069   20.456149 H          1 MOL1         0.0783
      16    O4      17.147779   14.810806   20.060483 O.3        1 MOL1        -0.3740
      17    C6      19.342263   14.811408   18.990216 C.3        1 MOL1         0.0138
      18    H8      20.171405   15.524595   18.904774 H          1 MOL1         0.0794
      19    H9      18.691050   14.979347   18.121990 H          1 MOL1         0.0794
      20    O5      19.856729   13.474182   18.964686 O.3        1 MOL1        -0.5486
      21    H10     20.595415   13.431148   19.615710 H          1 MOL1         0.3769
      22    C7      14.938450   20.367335   20.382582 C.3        1 MOL1         0.2972
      23    H11     14.367037   21.203276   19.958749 H          1 MOL1         0.0751
      24    O6      16.112908   20.823280   21.078295 O.3        1 MOL1        -0.3740
      25    C8      14.074921   19.547435   21.376672 C.3        1 MOL1         0.1003
      26    H12     13.206630   19.170355   20.820961 H          1 MOL1         0.0783
      27    O7      13.617614   20.367045   22.464385 O.3        1 MOL1        -0.5519
      28    H13     14.412306   20.818189   22.848722 H          1 MOL1         0.3769
      29    C9      14.863315   18.327170   21.915208 C.3        1 MOL1         0.1053
      30    H14     15.679910   18.702687   22.546541 H          1 MOL1         0.0783
      31    O8      13.992237   17.499235   22.693493 O.3        1 MOL1        -0.5519
      32    H15     13.524074   18.116582   23.298033 H          1 MOL1         0.3769
      33    C10     15.484321   17.496765   20.762862 C.3        1 MOL1         0.1018
      34    H16     14.676833   16.958405   20.249573 H          1 MOL1         0.0783
      35    C11     16.242477   18.395395   19.743522 C.3        1 MOL1         0.1043
      36    H17     17.127532   18.810551   20.242744 H          1 MOL1         0.0783
      37    O9      15.370419   19.476482   19.332104 O.3        1 MOL1        -0.3740
      38    C12     16.743293   17.676652   18.464300 C.3        1 MOL1         0.0138
      39    H18     17.751996   17.290890   18.651693 H          1 MOL1         0.0794
      40    H19     16.836846   18.420457   17.661766 H          1 MOL1         0.0794
      41    O10     15.889543   16.607874   18.041656 O.3        1 MOL1        -0.5486
      42    H20     16.117028   15.827200   18.598064 H          1 MOL1         0.3769
      43    C13     18.380357   24.101024   22.007401 C.3        1 MOL1         0.2972
      44    H21     18.809216   25.085824   22.233302 H          1 MOL1         0.0751
      45    O11     19.396039   23.081448   21.933276 O.3        1 MOL1        -0.3740
      46    C14     17.375072   23.703214   23.113240 C.3        1 MOL1         0.1003
      47    H22     16.572612   24.452288   23.118210 H          1 MOL1         0.0783
      48    O12     18.023144   23.688960   24.395773 O.3        1 MOL1        -0.5519
      49    H23     18.990567   23.569087   24.227951 H          1 MOL1         0.3769
      50    C15     16.742935   22.325329   22.812335 C.3        1 MOL1         0.1053
      51    H24     17.525860   21.567425   22.927833 H          1 MOL1         0.0783
      52    O13     15.687417   22.070143   23.744822 O.3        1 MOL1        -0.5519
      53    H25     16.083022   22.238812   24.628313 H          1 MOL1         0.3769
      54    C16     16.196665   22.231395   21.366071 C.3        1 MOL1         0.1018
      55    H26     15.214580   22.721467   21.331106 H          1 MOL1         0.0783
      56    C17     17.149949   22.848953   20.302250 C.3        1 MOL1         0.1043
      57    H27     17.982492   22.148333   20.163648 H          1 MOL1         0.0783
      58    O14     17.677419   24.124860   20.748872 O.3        1 MOL1        -0.3740
      59    C18     16.490458   23.050307   18.916965 C.3        1 MOL1         0.0138
      60    H28     16.331880   22.064769   18.458719 H          1 MOL1         0.0794
      61    H29     17.189467   23.600064   18.272323 H          1 MOL1         0.0794
      62    O15     15.243331   23.749607   19.009706 O.3        1 MOL1        -0.5486
      63    H30     14.923396   23.911424   18.095332 H          1 MOL1         0.3769
      64    C19     23.541954   22.698060   21.510940 C.3        1 MOL1         0.2972
      65    H31     24.602220   22.927230   21.343878 H          1 MOL1         0.0751
      66    O16     23.332629   21.283551   21.694635 O.3        1 MOL1        -0.3740
      67    C20     23.053666   23.418812   22.793274 C.3        1 MOL1         0.1003
      68    H32     23.224371   24.494489   22.655815 H          1 MOL1         0.0783
      69    O17     23.797945   22.959859   23.932805 O.3        1 MOL1        -0.5519
      70    H33     24.060014   22.027101   23.740112 H          1 MOL1         0.3769
      71    C21     21.538467   23.197937   23.012934 C.3        1 MOL1         0.1053
      72    H34     21.382056   22.135606   23.240054 H          1 MOL1         0.0783
      73    O18     21.085476   23.999342   24.108997 O.3        1 MOL1        -0.5519
      74    H35     21.756876   23.867866   24.815279 H          1 MOL1         0.3769
      75    C22     20.742100   23.548634   21.733421 C.3        1 MOL1         0.1018
      76    H36     20.784478   24.634900   21.578483 H          1 MOL1         0.0783
      77    C23     21.325404   22.833790   20.484961 C.3        1 MOL1         0.1043
      78    H37     21.191229   21.752168   20.617702 H          1 MOL1         0.0783
      79    O19     22.740827   23.135832   20.390665 O.3        1 MOL1        -0.3740
      80    C24     20.649750   23.216817   19.141840 C.3        1 MOL1         0.0138
      81    H38     19.806471   22.537075   18.969076 H          1 MOL1         0.0794
      82    H39     21.366054   23.044313   18.327526 H          1 MOL1         0.0794
      83    O20     20.187216   24.571895   19.105756 O.3        1 MOL1        -0.5486
      84    H40     19.357889   24.608586   19.637287 H          1 MOL1         0.3769
      85    C25     24.924570   17.578402   20.636218 C.3        1 MOL1         0.2972
      86    H41     25.529523   16.759168   20.228669 H          1 MOL1         0.0751
      87    O21     23.671878   17.102563   21.166790 O.3        1 MOL1        -0.3740
      88    C26     25.691001   18.343460   21.747565 C.3        1 MOL1         0.1003
      89    H42     26.592656   18.766437   21.285685 H          1 MOL1         0.0783
      90    O22     26.084319   17.470384   22.817135 O.3        1 MOL1        -0.5519
      91    H43     25.258898   17.068850   23.189918 H          1 MOL1         0.3769
      92    C27     24.837159   19.518709   22.284469 C.3        1 MOL1         0.1053
      93    H44     23.962277   19.099574   22.799862 H          1 MOL1         0.0783
      94    O23     25.611888   20.296601   23.203350 O.3        1 MOL1        -0.5519
      95    H45     26.056245   19.641732   23.786309 H          1 MOL1         0.3769
      96    C28     24.337865   20.420298   21.126612 C.3        1 MOL1         0.1018
      97    H46     25.197502   20.985385   20.743103 H          1 MOL1         0.0783
      98    C29     23.706557   19.595686   19.966324 C.3        1 MOL1         0.1043
      99    H47     22.765087   19.160397   20.322700 H          1 MOL1         0.0783
     100    O24     24.615973   18.529311   19.594738 O.3        1 MOL1        -0.3740
     101    C30     23.364294   20.402261   18.687564 C.3        1 MOL1         0.0138
     102    H48     22.348187   20.801444   18.789297 H          1 MOL1         0.0794
     103    H49     23.346702   19.710954   17.834445 H          1 MOL1         0.0794
     104    O25     24.277947   21.473920   18.429899 O.3        1 MOL1        -0.5486
     105    H50     23.980371   22.235371   18.979524 H          1 MOL1         0.3769
     106    C31     21.347518   13.896507   22.147648 C.3        1 MOL1         0.2972
     107    H51     20.888342   12.935346   22.413242 H          1 MOL1         0.0751
     108    O26     20.354621   14.900817   21.860224 O.3        1 MOL1        -0.3740
     109    C32     22.226074   14.397870   23.315836 C.3        1 MOL1         0.1003
     110    H52     23.027418   13.663217   23.468455 H          1 MOL1         0.0783
     111    O27     21.448838   14.512575   24.518978 O.3        1 MOL1        -0.5519
     112    H53     20.497291   14.475021   24.252432 H          1 MOL1         0.3769
     113    C33     22.875839   15.753751   22.961552 C.3        1 MOL1         0.1053
     114    H54     22.075933   16.499528   22.908047 H          1 MOL1         0.0783
     115    O28     23.798163   16.119380   23.991642 O.3        1 MOL1        -0.5519
     116    H55     23.311475   15.957583   24.831069 H          1 MOL1         0.3769
     117    C34     23.590795   15.726406   21.585840 C.3        1 MOL1         0.1018
     118    H56     24.580443   15.268821   21.710736 H          1 MOL1         0.0783
     119    C35     22.778728   14.984873   20.482940 C.3        1 MOL1         0.1043
     120    H57     21.972367   15.658375   20.167734 H          1 MOL1         0.0783
     121    O29     22.190995   13.757896   20.986993 O.3        1 MOL1        -0.3740
     122    C36     23.604420   14.645724   19.218258 C.3        1 MOL1         0.0138
     123    H58     23.908590   15.581789   18.730727 H          1 MOL1         0.0794
     124    H59     22.952603   14.113563   18.512520 H          1 MOL1         0.0794
     125    O30     24.756864   13.845216   19.512574 O.3        1 MOL1        -0.5486
     126    H60     25.391993   14.389111   20.022057 H          1 MOL1         0.3769
     127    C1      20.579107   18.645468   22.306822 C.3        1 MOL1        -0.1693
     128    H1      20.474976   17.912866   21.495964 H          1 MOL1         0.0829
     129    H2      21.610268   19.013527   22.320763 H          1 MOL1         0.0829
     130    C2      20.008997   18.180367   23.687273 C.3        1 MOL1        -0.1768
     131    H3      20.067718   17.108638   23.903490 H          1 MOL1         0.0829
     132    H4      20.396930   18.733799   24.550976 H          1 MOL1         0.0829
     133    C3      18.637674   18.683155   23.150048 C.3        1 MOL1         0.1211
     134    H5      18.121899   17.960611   22.510201 H          1 MOL1         0.0786
     135    C4      19.463158   19.737893   22.357363 C.3        1 MOL1        -0.1768
     136    H6      19.726038   20.629960   22.934663 H          1 MOL1         0.0829
     137    H7      19.042175   20.049978   21.395895 H          1 MOL1         0.0829
     138    O1      17.761538   19.195043   24.123632 O.3        1 MOL1        -0.5515
     139    H8      18.273119   19.826338   24.665670 H          1 MOL1         0.3773
@<TRIPOS>BOND
    1     1     2    1
    2     1     3    1
    3     1     4    1
    4     4     5    1
    5     4     6    1
    6     6     7    1
    7     4     8    1
    8     8     9    1
    9     8    10    1
   10    10    11    1
   11     8    12    1
   12    12    13    1
   13    12    14    1
   14    14    15    1
   15     1    16    1
   16    14    16    1
   17    14    17    1
   18    17    18    1
   19    17    19    1
   20    17    20    1
   21    20    21    1
   22    22    23    1
   23    22    24    1
   24    22    25    1
   25    25    26    1
   26    25    27    1
   27    27    28    1
   28    25    29    1
   29    29    30    1
   30    29    31    1
   31    31    32    1
   32     3    33    1
   33    29    33    1
   34    33    34    1
   35    33    35    1
   36    35    36    1
   37    22    37    1
   38    35    37    1
   39    35    38    1
   40    38    39    1
   41    38    40    1
   42    38    41    1
   43    41    42    1
   44    43    44    1
   45    43    45    1
   46    43    46    1
   47    46    47    1
   48    46    48    1
   49    48    49    1
   50    46    50    1
   51    50    51    1
   52    50    52    1
   53    52    53    1
   54    24    54    1
   55    50    54    1
   56    54    55    1
   57    54    56    1
   58    56    57    1
   59    43    58    1
   60    56    58    1
   61    56    59    1
   62    59    60    1
   63    59    61    1
   64    59    62    1
   65    62    63    1
   66    64    65    1
   67    64    66    1
   68    64    67    1
   69    67    68    1
   70    67    69    1
   71    69    70    1
   72    67    71    1
   73    71    72    1
   74    71    73    1
   75    73    74    1
   76    45    75    1
   77    71    75    1
   78    75    76    1
   79    75    77    1
   80    77    78    1
   81    64    79    1
   82    77    79    1
   83    77    80    1
   84    80    81    1
   85    80    82    1
   86    80    83    1
   87    83    84    1
   88    85    86    1
   89    85    87    1
   90    85    88    1
   91    88    89    1
   92    88    90    1
   93    90    91    1
   94    88    92    1
   95    92    93    1
   96    92    94    1
   97    94    95    1
   98    66    96    1
   99    92    96    1
  100    96    97    1
  101    96    98    1
  102    98    99    1
  103    85   100    1
  104    98   100    1
  105    98   101    1
  106   101   102    1
  107   101   103    1
  108   101   104    1
  109   104   105    1
  110   106   107    1
  111    12   108    1
  112   106   108    1
  113   106   109    1
  114   109   110    1
  115   109   111    1
  116   111   112    1
  117   109   113    1
  118   113   114    1
  119   113   115    1
  120   115   116    1
  121    87   117    1
  122   113   117    1
  123   117   118    1
  124   117   119    1
  125   119   120    1
  126   106   121    1
  127   119   121    1
  128   119   122    1
  129   122   123    1
  130   122   124    1
  131   122   125    1
  132   125   126    1
  133   127   128    1
  134   127   129    1
  135   127   130    1
  136   130   131    1
  137   130   132    1
  138   130   133    1
  139   133   134    1
  140   127   135    1
  141   133   135    1
  142   135   136    1
  143   135   137    1
  144   133   138    1
  145   138   139    1
@<TRIPOS>SUBSTRUCTURE
       1 MOL1            1 RESIDUE      1      MOL     
       2 MOL1          139 RESIDUE      1      MOL     
@<SCITEGIC>MOL_PROPERTY
feprocess Rank
SciTegic.value.IntegerValue
158

@<SCITEGIC>MOL_PROPERTY
Conf_Id
SciTegic.value.IntegerValue
414

@<SCITEGIC>MOL_PROPERTY
Probability
SciTegic.value.DoubleValue
0.00

@<SCITEGIC>MOL_PROPERTY
G
SciTegic.value.DoubleValue
549.961

@<SCITEGIC>MOL_PROPERTY
E
SciTegic.value.DoubleValue
372.928

@<SCITEGIC>MOL_PROPERTY
-TS
SciTegic.value.DoubleValue
177.032

@<SCITEGIC>MOL_PROPERTY
U+W
SciTegic.value.DoubleValue
250.417

@<SCITEGIC>MOL_PROPERTY
U
SciTegic.value.DoubleValue
290.159

@<SCITEGIC>MOL_PROPERTY
W
SciTegic.value.DoubleValue
-39.742

@<SCITEGIC>MOL_PROPERTY
W(PB)
SciTegic.value.DoubleValue
-45.667

@<SCITEGIC>MOL_PROPERTY
W(SA)
SciTegic.value.DoubleValue
5.925

@<SCITEGIC>MOL_PROPERTY
Valence
SciTegic.value.DoubleValue
155.795

@<SCITEGIC>MOL_PROPERTY
Coulomb
SciTegic.value.DoubleValue
157.096

@<SCITEGIC>MOL_PROPERTY
VdW
SciTegic.value.DoubleValue
-22.732

@<SCITEGIC>MOL_PROPERTY
VdW6
SciTegic.value.DoubleValue
-168.065

@<SCITEGIC>MOL_PROPERTY
VdW12
SciTegic.value.DoubleValue
145.334

@<SCITEGIC>MOL_PROPERTY
Bond
SciTegic.value.DoubleValue
4.493

@<SCITEGIC>MOL_PROPERTY
Angle
SciTegic.value.DoubleValue
11.986

@<SCITEGIC>MOL_PROPERTY
Pdih
SciTegic.value.DoubleValue
139.316

@<SCITEGIC>MOL_PROPERTY
Idih
SciTegic.value.DoubleValue
0.000

@<SCITEGIC>MOL_PROPERTY
Tether
SciTegic.value.DoubleValue
0.000

@<TRIPOS>MOLECULE
CD_guest-s16_fast_vm2_rndm.mol2 : feprocess host+ligand conformer 159
         139         145           2
SMALL
USER_CHARGES
 
@<TRIPOS>ATOM
       1    C1      16.484992   15.446734   19.920802 C.3        1 MOL1         0.2972
       2    H1      15.565777   15.377688   19.324936 H          1 MOL1         0.0751
       3    O1      16.598036   16.725541   20.580170 O.3        1 MOL1        -0.3740
       4    C2      16.565146   14.312489   20.973886 C.3        1 MOL1         0.1003
       5    H2      16.616507   13.365162   20.421424 H          1 MOL1         0.0783
       6    O2      15.408884   14.288110   21.823709 O.3        1 MOL1        -0.5519
       7    H3      15.390748   15.149858   22.312021 H          1 MOL1         0.3769
       8    C3      17.860191   14.441799   21.813909 C.3        1 MOL1         0.1053
       9    H4      17.770696   15.342378   22.435839 H          1 MOL1         0.0783
      10    O3      17.982678   13.286902   22.649357 O.3        1 MOL1        -0.5519
      11    H5      17.105488   13.183394   23.079382 H          1 MOL1         0.3769
      12    C4      19.123488   14.585560   20.916474 C.3        1 MOL1         0.1018
      13    H6      19.388123   13.588095   20.542742 H          1 MOL1         0.0783
      14    C5      18.919765   15.543427   19.704618 C.3        1 MOL1         0.1043
      15    H7      18.927747   16.571679   20.080032 H          1 MOL1         0.0783
      16    O4      17.641829   15.287064   19.071777 O.3        1 MOL1        -0.3740
      17    C6      20.028586   15.468445   18.622220 C.3        1 MOL1         0.0138
      18    H8      20.808135   16.198296   18.871788 H          1 MOL1         0.0794
      19    H9      19.601374   15.788351   17.662374 H          1 MOL1         0.0794
      20    O5      20.608168   14.163954   18.487847 O.3        1 MOL1        -0.5486
      21    H10     21.056519   13.947684   19.336513 H          1 MOL1         0.3769
      22    C7      14.656965   20.170693   21.718950 C.3        1 MOL1         0.2972
      23    H11     13.954037   20.973156   21.975153 H          1 MOL1         0.0751
      24    O6      16.023065   20.633363   21.704547 O.3        1 MOL1        -0.3740
      25    C8      14.545293   19.016978   22.744376 C.3        1 MOL1         0.1003
      26    H12     13.526428   18.613941   22.675939 H          1 MOL1         0.0783
      27    O7      14.772998   19.490375   24.081241 O.3        1 MOL1        -0.5519
      28    H13     15.434102   20.225513   24.027113 H          1 MOL1         0.3769
      29    C9      15.529483   17.876558   22.394389 C.3        1 MOL1         0.1053
      30    H14     16.549970   18.252387   22.539593 H          1 MOL1         0.0783
      31    O8      15.295114   16.774558   23.276071 O.3        1 MOL1        -0.5519
      32    H15     15.283667   17.171763   24.175527 H          1 MOL1         0.3769
      33    C10     15.382582   17.423250   20.917194 C.3        1 MOL1         0.1018
      34    H16     14.499045   16.776816   20.832633 H          1 MOL1         0.0783
      35    C11     15.269725   18.618356   19.924542 C.3        1 MOL1         0.1043
      36    H17     16.264995   19.070703   19.825634 H          1 MOL1         0.0783
      37    O9      14.348931   19.623822   20.420619 O.3        1 MOL1        -0.3740
      38    C12     14.819985   18.198186   18.504839 C.3        1 MOL1         0.0138
      39    H18     15.640502   17.643413   18.029917 H          1 MOL1         0.0794
      40    H19     14.650686   19.104676   17.908399 H          1 MOL1         0.0794
      41    O10     13.637210   17.389374   18.528718 O.3        1 MOL1        -0.5486
      42    H20     13.367904   17.227347   17.598192 H          1 MOL1         0.3769
      43    C13     18.462081   23.976608   21.877787 C.3        1 MOL1         0.2972
      44    H21     18.883631   24.988828   21.932422 H          1 MOL1         0.0751
      45    O11     19.488695   22.984857   21.686568 O.3        1 MOL1        -0.3740
      46    C14     17.722274   23.644247   23.195161 C.3        1 MOL1         0.1003
      47    H22     16.906460   24.369614   23.311236 H          1 MOL1         0.0783
      48    O12     18.617559   23.750431   24.313963 O.3        1 MOL1        -0.5519
      49    H23     19.534910   23.745527   23.946533 H          1 MOL1         0.3769
      50    C15     17.104140   22.228750   23.129386 C.3        1 MOL1         0.1053
      51    H24     17.926368   21.503000   23.091288 H          1 MOL1         0.0783
      52    O13     16.316580   22.000076   24.300696 O.3        1 MOL1        -0.5519
      53    H25     16.869128   22.331868   25.043916 H          1 MOL1         0.3769
      54    C16     16.235776   22.050254   21.858655 C.3        1 MOL1         0.1018
      55    H26     15.296937   22.601994   21.995341 H          1 MOL1         0.0783
      56    C17     16.953753   22.549978   20.572883 C.3        1 MOL1         0.1043
      57    H27     17.762808   21.847650   20.347795 H          1 MOL1         0.0783
      58    O14     17.523575   23.867975   20.784873 O.3        1 MOL1        -0.3740
      59    C18     16.043880   22.594982   19.320849 C.3        1 MOL1         0.0138
      60    H28     15.856294   21.566134   18.985447 H          1 MOL1         0.0794
      61    H29     16.588078   23.103373   18.513747 H          1 MOL1         0.0794
      62    O15     14.798265   23.258112   19.565759 O.3        1 MOL1        -0.5486
      63    H30     14.182664   22.596165   19.946749 H          1 MOL1         0.3769
      64    C19     23.491182   22.617641   20.597110 C.3        1 MOL1         0.2972
      65    H31     24.491583   22.773764   20.173312 H          1 MOL1         0.0751
      66    O16     23.345793   21.293791   21.153271 O.3        1 MOL1        -0.3740
      67    C20     23.207853   23.638994   21.730664 C.3        1 MOL1         0.1003
      68    H32     23.277619   24.643453   21.293366 H          1 MOL1         0.0783
      69    O17     24.172843   23.517584   22.788061 O.3        1 MOL1        -0.5519
      70    H33     24.290639   22.551301   22.973773 H          1 MOL1         0.3769
      71    C21     21.772112   23.458168   22.284901 C.3        1 MOL1         0.1053
      72    H34     21.724104   22.483636   22.787044 H          1 MOL1         0.0783
      73    O18     21.477856   24.496265   23.225068 O.3        1 MOL1        -0.5519
      74    H35     22.282067   24.567637   23.786661 H          1 MOL1         0.3769
      75    C22     20.728266   23.468679   21.140153 C.3        1 MOL1         0.1018
      76    H36     20.638802   24.491671   20.751298 H          1 MOL1         0.0783
      77    C23     21.124154   22.517291   19.981298 C.3        1 MOL1         0.1043
      78    H37     21.067935   21.492631   20.357746 H          1 MOL1         0.0783
      79    O19     22.484482   22.799445   19.575427 O.3        1 MOL1        -0.3740
      80    C24     20.200517   22.589098   18.737025 C.3        1 MOL1         0.0138
      81    H38     19.397099   21.852113   18.858797 H          1 MOL1         0.0794
      82    H39     20.777950   22.282433   17.854710 H          1 MOL1         0.0794
      83    O20     19.631405   23.887197   18.524869 O.3        1 MOL1        -0.5486
      84    H40     18.954171   24.028215   19.226825 H          1 MOL1         0.3769
      85    C25     25.148171   17.583593   21.416203 C.3        1 MOL1         0.2972
      86    H41     25.807150   16.705896   21.401864 H          1 MOL1         0.0751
      87    O21     23.766285   17.211474   21.603184 O.3        1 MOL1        -0.3740
      88    C26     25.557307   18.577129   22.534300 C.3        1 MOL1         0.1003
      89    H42     26.564175   18.941783   22.292362 H          1 MOL1         0.0783
      90    O22     25.592287   17.945144   23.822388 O.3        1 MOL1        -0.5519
      91    H43     24.713835   17.509619   23.963738 H          1 MOL1         0.3769
      92    C27     24.601817   19.795611   22.542919 C.3        1 MOL1         0.1053
      93    H44     23.599997   19.442772   22.817013 H          1 MOL1         0.0783
      94    O23     25.055027   20.754819   23.503800 O.3        1 MOL1        -0.5519
      95    H45     25.286452   20.227392   24.300802 H          1 MOL1         0.3769
      96    C28     24.519091   20.454915   21.143124 C.3        1 MOL1         0.1018
      97    H46     25.437508   21.036036   20.987167 H          1 MOL1         0.0783
      98    C29     24.345866   19.418572   19.994187 C.3        1 MOL1         0.1043
      99    H47     23.316815   19.041887   20.024946 H          1 MOL1         0.0783
     100    O24     25.254093   18.300812   20.167786 O.3        1 MOL1        -0.3740
     101    C30     24.571718   20.018563   18.585672 C.3        1 MOL1         0.0138
     102    H48     23.730775   20.685034   18.351593 H          1 MOL1         0.0794
     103    H49     24.554937   19.202753   17.850685 H          1 MOL1         0.0794
     104    O25     25.805108   20.743547   18.497474 O.3        1 MOL1        -0.5486
     105    H50     25.907886   21.043731   17.568049 H          1 MOL1         0.3769
     106    C31     21.080585   14.180417   22.310160 C.3        1 MOL1         0.2972
     107    H51     20.553929   13.249726   22.557240 H          1 MOL1         0.0751
     108    O26     20.180101   15.147370   21.726851 O.3        1 MOL1        -0.3740
     109    C32     21.713086   14.774536   23.593073 C.3        1 MOL1         0.1003
     110    H52     22.421811   14.031644   23.981529 H          1 MOL1         0.0783
     111    O27     20.713796   15.041974   24.591024 O.3        1 MOL1        -0.5519
     112    H53     20.074663   15.686417   24.204080 H          1 MOL1         0.3769
     113    C33     22.496855   16.064837   23.276946 C.3        1 MOL1         0.1053
     114    H54     21.765497   16.816320   22.974614 H          1 MOL1         0.0783
     115    O28     23.176004   16.505306   24.455545 O.3        1 MOL1        -0.5519
     116    H55     22.513387   16.421672   25.177497 H          1 MOL1         0.3769
     117    C34     23.496319   15.886142   22.107895 C.3        1 MOL1         0.1018
     118    H56     24.400254   15.389524   22.484755 H          1 MOL1         0.0783
     119    C35     22.893048   15.088732   20.917158 C.3        1 MOL1         0.1043
     120    H57     22.208998   15.764885   20.394849 H          1 MOL1         0.0783
     121    O29     22.145297   13.927708   21.366391 O.3        1 MOL1        -0.3740
     122    C36     23.954390   14.629106   19.889283 C.3        1 MOL1         0.0138
     123    H58     24.344137   15.515964   19.371149 H          1 MOL1         0.0794
     124    H59     23.465943   13.998880   19.134090 H          1 MOL1         0.0794
     125    O30     25.031592   13.917732   20.510952 O.3        1 MOL1        -0.5486
     126    H60     25.629593   13.600677   19.799214 H          1 MOL1         0.3769
     127    C1      20.618523   18.825216   21.350600 C.3        1 MOL1        -0.1693
     128    H1      21.166948   19.397364   20.599214 H          1 MOL1         0.0829
     129    H2      20.855266   17.766485   21.201487 H          1 MOL1         0.0829
     130    C2      19.096071   19.150223   21.493596 C.3        1 MOL1        -0.1768
     131    H3      18.845047   20.199839   21.316883 H          1 MOL1         0.0829
     132    H4      18.403958   18.532583   20.918841 H          1 MOL1         0.0829
     133    C3      19.266815   18.784049   23.001361 C.3        1 MOL1         0.1211
     134    H5      18.634799   19.352413   23.694939 H          1 MOL1         0.0786
     135    C4      20.713515   19.340066   22.828386 C.3        1 MOL1        -0.1768
     136    H6      20.785411   20.428935   22.925514 H          1 MOL1         0.0829
     137    H7      21.477719   18.892171   23.469518 H          1 MOL1         0.0829
     138    O1      19.183485   17.403597   23.294301 O.3        1 MOL1        -0.5515
     139    H8      19.492780   16.931610   22.492978 H          1 MOL1         0.3773
@<TRIPOS>BOND
    1     1     2    1
    2     1     3    1
    3     1     4    1
    4     4     5    1
    5     4     6    1
    6     6     7    1
    7     4     8    1
    8     8     9    1
    9     8    10    1
   10    10    11    1
   11     8    12    1
   12    12    13    1
   13    12    14    1
   14    14    15    1
   15     1    16    1
   16    14    16    1
   17    14    17    1
   18    17    18    1
   19    17    19    1
   20    17    20    1
   21    20    21    1
   22    22    23    1
   23    22    24    1
   24    22    25    1
   25    25    26    1
   26    25    27    1
   27    27    28    1
   28    25    29    1
   29    29    30    1
   30    29    31    1
   31    31    32    1
   32     3    33    1
   33    29    33    1
   34    33    34    1
   35    33    35    1
   36    35    36    1
   37    22    37    1
   38    35    37    1
   39    35    38    1
   40    38    39    1
   41    38    40    1
   42    38    41    1
   43    41    42    1
   44    43    44    1
   45    43    45    1
   46    43    46    1
   47    46    47    1
   48    46    48    1
   49    48    49    1
   50    46    50    1
   51    50    51    1
   52    50    52    1
   53    52    53    1
   54    24    54    1
   55    50    54    1
   56    54    55    1
   57    54    56    1
   58    56    57    1
   59    43    58    1
   60    56    58    1
   61    56    59    1
   62    59    60    1
   63    59    61    1
   64    59    62    1
   65    62    63    1
   66    64    65    1
   67    64    66    1
   68    64    67    1
   69    67    68    1
   70    67    69    1
   71    69    70    1
   72    67    71    1
   73    71    72    1
   74    71    73    1
   75    73    74    1
   76    45    75    1
   77    71    75    1
   78    75    76    1
   79    75    77    1
   80    77    78    1
   81    64    79    1
   82    77    79    1
   83    77    80    1
   84    80    81    1
   85    80    82    1
   86    80    83    1
   87    83    84    1
   88    85    86    1
   89    85    87    1
   90    85    88    1
   91    88    89    1
   92    88    90    1
   93    90    91    1
   94    88    92    1
   95    92    93    1
   96    92    94    1
   97    94    95    1
   98    66    96    1
   99    92    96    1
  100    96    97    1
  101    96    98    1
  102    98    99    1
  103    85   100    1
  104    98   100    1
  105    98   101    1
  106   101   102    1
  107   101   103    1
  108   101   104    1
  109   104   105    1
  110   106   107    1
  111    12   108    1
  112   106   108    1
  113   106   109    1
  114   109   110    1
  115   109   111    1
  116   111   112    1
  117   109   113    1
  118   113   114    1
  119   113   115    1
  120   115   116    1
  121    87   117    1
  122   113   117    1
  123   117   118    1
  124   117   119    1
  125   119   120    1
  126   106   121    1
  127   119   121    1
  128   119   122    1
  129   122   123    1
  130   122   124    1
  131   122   125    1
  132   125   126    1
  133   127   128    1
  134   127   129    1
  135   127   130    1
  136   130   131    1
  137   130   132    1
  138   130   133    1
  139   133   134    1
  140   127   135    1
  141   133   135    1
  142   135   136    1
  143   135   137    1
  144   133   138    1
  145   138   139    1
@<TRIPOS>SUBSTRUCTURE
       1 MOL1            1 RESIDUE      1      MOL     
       2 MOL1          139 RESIDUE      1      MOL     
@<SCITEGIC>MOL_PROPERTY
feprocess Rank
SciTegic.value.IntegerValue
159

@<SCITEGIC>MOL_PROPERTY
Conf_Id
SciTegic.value.IntegerValue
275

@<SCITEGIC>MOL_PROPERTY
Probability
SciTegic.value.DoubleValue
0.00

@<SCITEGIC>MOL_PROPERTY
G
SciTegic.value.DoubleValue
549.984

@<SCITEGIC>MOL_PROPERTY
E
SciTegic.value.DoubleValue
369.214

@<SCITEGIC>MOL_PROPERTY
-TS
SciTegic.value.DoubleValue
180.770

@<SCITEGIC>MOL_PROPERTY
U+W
SciTegic.value.DoubleValue
246.703

@<SCITEGIC>MOL_PROPERTY
U
SciTegic.value.DoubleValue
284.697

@<SCITEGIC>MOL_PROPERTY
W
SciTegic.value.DoubleValue
-37.995

@<SCITEGIC>MOL_PROPERTY
W(PB)
SciTegic.value.DoubleValue
-43.976

@<SCITEGIC>MOL_PROPERTY
W(SA)
SciTegic.value.DoubleValue
5.981

@<SCITEGIC>MOL_PROPERTY
Valence
SciTegic.value.DoubleValue
153.353

@<SCITEGIC>MOL_PROPERTY
Coulomb
SciTegic.value.DoubleValue
152.838

@<SCITEGIC>MOL_PROPERTY
VdW
SciTegic.value.DoubleValue
-21.493

@<SCITEGIC>MOL_PROPERTY
VdW6
SciTegic.value.DoubleValue
-171.633

@<SCITEGIC>MOL_PROPERTY
VdW12
SciTegic.value.DoubleValue
150.140

@<SCITEGIC>MOL_PROPERTY
Bond
SciTegic.value.DoubleValue
4.772

@<SCITEGIC>MOL_PROPERTY
Angle
SciTegic.value.DoubleValue
12.841

@<SCITEGIC>MOL_PROPERTY
Pdih
SciTegic.value.DoubleValue
135.740

@<SCITEGIC>MOL_PROPERTY
Idih
SciTegic.value.DoubleValue
0.000

@<SCITEGIC>MOL_PROPERTY
Tether
SciTegic.value.DoubleValue
0.000

@<TRIPOS>MOLECULE
CD_guest-s16_fast_vm2_rndm.mol2 : feprocess host+ligand conformer 160
         139         145           2
SMALL
USER_CHARGES
 
@<TRIPOS>ATOM
       1    C1      16.210539   15.341109   20.515214 C.3        1 MOL1         0.2972
       2    H1      15.197102   15.264559   20.100540 H          1 MOL1         0.0751
       3    O1      16.419271   16.597205   21.186106 O.3        1 MOL1        -0.3740
       4    C2      16.480701   14.205789   21.535771 C.3        1 MOL1         0.1003
       5    H2      16.349096   13.251781   21.008967 H          1 MOL1         0.0783
       6    O2      15.557337   14.272226   22.635234 O.3        1 MOL1        -0.5519
       7    H3      15.567366   15.203577   22.973213 H          1 MOL1         0.3769
       8    C3      17.938190   14.269459   22.056372 C.3        1 MOL1         0.1053
       9    H4      18.038280   15.177669   22.665992 H          1 MOL1         0.0783
      10    O3      18.210103   13.117677   22.862165 O.3        1 MOL1        -0.5519
      11    H5      17.433734   13.031578   23.458729 H          1 MOL1         0.3769
      12    C4      18.961794   14.354302   20.894674 C.3        1 MOL1         0.1018
      13    H6      19.011786   13.374260   20.402437 H          1 MOL1         0.0783
      14    C5      18.567394   15.445915   19.856320 C.3        1 MOL1         0.1043
      15    H7      18.664792   16.429982   20.333724 H          1 MOL1         0.0783
      16    O4      17.189861   15.236014   19.460556 O.3        1 MOL1        -0.3740
      17    C6      19.425946   15.487990   18.566417 C.3        1 MOL1         0.0138
      18    H8      20.263922   16.176021   18.727188 H          1 MOL1         0.0794
      19    H9      18.819225   15.919655   17.759251 H          1 MOL1         0.0794
      20    O5      19.921404   14.204289   18.170732 O.3        1 MOL1        -0.5486
      21    H10     20.722730   14.032008   18.717545 H          1 MOL1         0.3769
      22    C7      14.704765   20.256820   21.912456 C.3        1 MOL1         0.2972
      23    H11     14.055953   21.124156   22.090562 H          1 MOL1         0.0751
      24    O6      16.090675   20.638874   21.823042 O.3        1 MOL1        -0.3740
      25    C8      14.556938   19.244412   23.073089 C.3        1 MOL1         0.1003
      26    H12     13.511970   18.908498   23.091159 H          1 MOL1         0.0783
      27    O7      14.879269   19.870121   24.325555 O.3        1 MOL1        -0.5519
      28    H13     15.446714   20.652180   24.116362 H          1 MOL1         0.3769
      29    C9      15.455363   18.008497   22.838827 C.3        1 MOL1         0.1053
      30    H14     16.498897   18.332967   22.925107 H          1 MOL1         0.0783
      31    O8      15.180130   17.015491   23.832828 O.3        1 MOL1        -0.5519
      32    H15     15.173349   17.506144   24.684761 H          1 MOL1         0.3769
      33    C10     15.252850   17.405038   21.427493 C.3        1 MOL1         0.1018
      34    H16     14.330480   16.809040   21.432359 H          1 MOL1         0.0783
      35    C11     15.198601   18.479069   20.302487 C.3        1 MOL1         0.1043
      36    H17     16.221129   18.846204   20.152781 H          1 MOL1         0.0783
      37    O9      14.347070   19.590697   20.684658 O.3        1 MOL1        -0.3740
      38    C12     14.705176   17.935705   18.940090 C.3        1 MOL1         0.0138
      39    H18     15.487391   17.292245   18.515431 H          1 MOL1         0.0794
      40    H19     14.572501   18.781828   18.252406 H          1 MOL1         0.0794
      41    O10     13.482740   17.198654   19.064422 O.3        1 MOL1        -0.5486
      42    H20     13.186504   16.957653   18.159573 H          1 MOL1         0.3769
      43    C13     18.480434   24.011312   21.224502 C.3        1 MOL1         0.2972
      44    H21     18.823911   25.026413   20.987568 H          1 MOL1         0.0751
      45    O11     19.585993   23.139188   21.534636 O.3        1 MOL1        -0.3740
      46    C14     17.551847   24.055670   22.464262 C.3        1 MOL1         0.1003
      47    H22     16.712038   24.721955   22.227812 H          1 MOL1         0.0783
      48    O12     18.265621   24.571578   23.599120 O.3        1 MOL1        -0.5519
      49    H23     19.212786   24.317974   23.476166 H          1 MOL1         0.3769
      50    C15     16.978750   22.653651   22.778212 C.3        1 MOL1         0.1053
      51    H24     17.810326   22.017075   23.105611 H          1 MOL1         0.0783
      52    O13     16.004803   22.749436   23.822714 O.3        1 MOL1        -0.5519
      53    H25     16.415977   23.328552   24.502742 H          1 MOL1         0.3769
      54    C16     16.344381   22.020990   21.515924 C.3        1 MOL1         0.1018
      55    H26     15.423046   22.566532   21.272398 H          1 MOL1         0.0783
      56    C17     17.306631   22.077405   20.298067 C.3        1 MOL1         0.1043
      57    H27     18.173280   21.439791   20.516761 H          1 MOL1         0.0783
      58    O14     17.750514   23.445500   20.113488 O.3        1 MOL1        -0.3740
      59    C18     16.696995   21.573564   18.963264 C.3        1 MOL1         0.0138
      60    H28     16.890655   20.497596   18.875566 H          1 MOL1         0.0794
      61    H29     17.226770   22.057093   18.131685 H          1 MOL1         0.0794
      62    O15     15.289827   21.818451   18.853457 O.3        1 MOL1        -0.5486
      63    H30     14.835403   21.170992   19.441764 H          1 MOL1         0.3769
      64    C19     23.645869   22.615942   20.713308 C.3        1 MOL1         0.2972
      65    H31     24.678556   22.715445   20.354751 H          1 MOL1         0.0751
      66    O16     23.409840   21.329464   21.312361 O.3        1 MOL1        -0.3740
      67    C20     23.308021   23.703404   21.766818 C.3        1 MOL1         0.1003
      68    H32     23.432116   24.679755   21.280646 H          1 MOL1         0.0783
      69    O17     24.189370   23.625798   22.898845 O.3        1 MOL1        -0.5519
      70    H33     24.160819   22.693618   23.233453 H          1 MOL1         0.3769
      71    C21     21.832683   23.579737   22.223513 C.3        1 MOL1         0.1053
      72    H34     21.725295   22.639198   22.780664 H          1 MOL1         0.0783
      73    O18     21.497257   24.683045   23.072251 O.3        1 MOL1        -0.5519
      74    H35     22.250003   24.763708   23.699316 H          1 MOL1         0.3769
      75    C22     20.868486   23.538227   21.011255 C.3        1 MOL1         0.1018
      76    H36     20.838400   24.541765   20.566984 H          1 MOL1         0.0783
      77    C23     21.326449   22.513075   19.933003 C.3        1 MOL1         0.1043
      78    H37     21.222803   21.502186   20.345490 H          1 MOL1         0.0783
      79    O19     22.718710   22.762271   19.615602 O.3        1 MOL1        -0.3740
      80    C24     20.519622   22.532642   18.610022 C.3        1 MOL1         0.0138
      81    H38     19.664659   21.853918   18.714882 H          1 MOL1         0.0794
      82    H39     21.151537   22.121356   17.811609 H          1 MOL1         0.0794
      83    O20     20.056744   23.837700   18.245698 O.3        1 MOL1        -0.5486
      84    H40     19.217785   23.985689   18.740075 H          1 MOL1         0.3769
      85    C25     25.001089   17.680930   22.183786 C.3        1 MOL1         0.2972
      86    H41     25.606807   16.797028   22.422564 H          1 MOL1         0.0751
      87    O21     23.625023   17.329976   21.927613 O.3        1 MOL1        -0.3740
      88    C26     25.050510   18.677494   23.365265 C.3        1 MOL1         0.1003
      89    H42     26.096536   18.983965   23.496126 H          1 MOL1         0.0783
      90    O22     24.580635   18.056574   24.572885 O.3        1 MOL1        -0.5519
      91    H43     24.149314   17.204538   24.314108 H          1 MOL1         0.3769
      92    C27     24.215999   19.937851   23.051902 C.3        1 MOL1         0.1053
      93    H44     23.162298   19.640786   23.036992 H          1 MOL1         0.0783
      94    O23     24.414769   20.913894   24.079049 O.3        1 MOL1        -0.5519
      95    H45     24.335930   20.411845   24.921097 H          1 MOL1         0.3769
      96    C28     24.561297   20.546387   21.670088 C.3        1 MOL1         0.1018
      97    H46     25.466332   21.159889   21.772247 H          1 MOL1         0.0783
      98    C29     24.744600   19.484784   20.545142 C.3        1 MOL1         0.1043
      99    H47     23.746641   19.139286   20.250498 H          1 MOL1         0.0783
     100    O24     25.514712   18.347826   21.013497 O.3        1 MOL1        -0.3740
     101    C30     25.419139   20.041536   19.268926 C.3        1 MOL1         0.0138
     102    H48     24.711304   20.713490   18.764967 H          1 MOL1         0.0794
     103    H49     25.617571   19.205961   18.584172 H          1 MOL1         0.0794
     104    O25     26.632705   20.744407   19.562592 O.3        1 MOL1        -0.5486
     105    H50     27.045262   20.997103   18.707823 H          1 MOL1         0.3769
     106    C31     21.350435   13.877399   21.232580 C.3        1 MOL1         0.2972
     107    H51     21.042057   12.854383   20.981745 H          1 MOL1         0.0751
     108    O26     20.213457   14.717453   21.507847 O.3        1 MOL1        -0.3740
     109    C32     22.223514   13.865864   22.513826 C.3        1 MOL1         0.1003
     110    H52     23.098674   13.233177   22.316627 H          1 MOL1         0.0783
     111    O27     21.478355   13.321508   23.614274 O.3        1 MOL1        -0.5519
     112    H53     20.535229   13.571161   23.461937 H          1 MOL1         0.3769
     113    C33     22.724835   15.290718   22.855218 C.3        1 MOL1         0.1053
     114    H54     21.855334   15.900784   23.132616 H          1 MOL1         0.0783
     115    O28     23.645024   15.231008   23.949996 O.3        1 MOL1        -0.5519
     116    H55     23.223128   14.629469   24.603780 H          1 MOL1         0.3769
     117    C34     23.401453   15.938573   21.624163 C.3        1 MOL1         0.1018
     118    H56     24.340657   15.407275   21.419968 H          1 MOL1         0.0783
     119    C35     22.500063   15.851333   20.364313 C.3        1 MOL1         0.1043
     120    H57     21.598970   16.448755   20.544621 H          1 MOL1         0.0783
     121    O29     22.113348   14.468982   20.155353 O.3        1 MOL1        -0.3740
     122    C36     23.155427   16.396730   19.068353 C.3        1 MOL1         0.0138
     123    H58     22.938529   17.470224   18.996948 H          1 MOL1         0.0794
     124    H59     22.675804   15.918800   18.203870 H          1 MOL1         0.0794
     125    O30     24.572647   16.189371   19.019500 O.3        1 MOL1        -0.5486
     126    H60     24.982254   16.813003   19.663272 H          1 MOL1         0.3769
     127    C1      19.387461   17.860203   23.122739 C.3        1 MOL1        -0.1693
     128    H1      18.677493   17.534107   23.891490 H          1 MOL1         0.0829
     129    H2      19.643061   17.002387   22.493909 H          1 MOL1         0.0829
     130    C2      20.617553   18.683970   23.622486 C.3        1 MOL1        -0.1768
     131    H3      20.418701   19.304841   24.504251 H          1 MOL1         0.0829
     132    H4      21.536863   18.116858   23.799622 H          1 MOL1         0.0829
     133    C3      20.527401   19.455195   22.268000 C.3        1 MOL1         0.1211
     134    H5      20.787864   20.518126   22.334243 H          1 MOL1         0.0786
     135    C4      19.001471   19.149351   22.327540 C.3        1 MOL1        -0.1768
     136    H6      18.421955   19.873216   22.908379 H          1 MOL1         0.0829
     137    H7      18.507064   18.989694   21.363570 H          1 MOL1         0.0829
     138    O1      21.204170   18.855428   21.183098 O.3        1 MOL1        -0.5515
     139    H8      22.065546   18.536892   21.526274 H          1 MOL1         0.3773
@<TRIPOS>BOND
    1     1     2    1
    2     1     3    1
    3     1     4    1
    4     4     5    1
    5     4     6    1
    6     6     7    1
    7     4     8    1
    8     8     9    1
    9     8    10    1
   10    10    11    1
   11     8    12    1
   12    12    13    1
   13    12    14    1
   14    14    15    1
   15     1    16    1
   16    14    16    1
   17    14    17    1
   18    17    18    1
   19    17    19    1
   20    17    20    1
   21    20    21    1
   22    22    23    1
   23    22    24    1
   24    22    25    1
   25    25    26    1
   26    25    27    1
   27    27    28    1
   28    25    29    1
   29    29    30    1
   30    29    31    1
   31    31    32    1
   32     3    33    1
   33    29    33    1
   34    33    34    1
   35    33    35    1
   36    35    36    1
   37    22    37    1
   38    35    37    1
   39    35    38    1
   40    38    39    1
   41    38    40    1
   42    38    41    1
   43    41    42    1
   44    43    44    1
   45    43    45    1
   46    43    46    1
   47    46    47    1
   48    46    48    1
   49    48    49    1
   50    46    50    1
   51    50    51    1
   52    50    52    1
   53    52    53    1
   54    24    54    1
   55    50    54    1
   56    54    55    1
   57    54    56    1
   58    56    57    1
   59    43    58    1
   60    56    58    1
   61    56    59    1
   62    59    60    1
   63    59    61    1
   64    59    62    1
   65    62    63    1
   66    64    65    1
   67    64    66    1
   68    64    67    1
   69    67    68    1
   70    67    69    1
   71    69    70    1
   72    67    71    1
   73    71    72    1
   74    71    73    1
   75    73    74    1
   76    45    75    1
   77    71    75    1
   78    75    76    1
   79    75    77    1
   80    77    78    1
   81    64    79    1
   82    77    79    1
   83    77    80    1
   84    80    81    1
   85    80    82    1
   86    80    83    1
   87    83    84    1
   88    85    86    1
   89    85    87    1
   90    85    88    1
   91    88    89    1
   92    88    90    1
   93    90    91    1
   94    88    92    1
   95    92    93    1
   96    92    94    1
   97    94    95    1
   98    66    96    1
   99    92    96    1
  100    96    97    1
  101    96    98    1
  102    98    99    1
  103    85   100    1
  104    98   100    1
  105    98   101    1
  106   101   102    1
  107   101   103    1
  108   101   104    1
  109   104   105    1
  110   106   107    1
  111    12   108    1
  112   106   108    1
  113   106   109    1
  114   109   110    1
  115   109   111    1
  116   111   112    1
  117   109   113    1
  118   113   114    1
  119   113   115    1
  120   115   116    1
  121    87   117    1
  122   113   117    1
  123   117   118    1
  124   117   119    1
  125   119   120    1
  126   106   121    1
  127   119   121    1
  128   119   122    1
  129   122   123    1
  130   122   124    1
  131   122   125    1
  132   125   126    1
  133   127   128    1
  134   127   129    1
  135   127   130    1
  136   130   131    1
  137   130   132    1
  138   130   133    1
  139   133   134    1
  140   127   135    1
  141   133   135    1
  142   135   136    1
  143   135   137    1
  144   133   138    1
  145   138   139    1
@<TRIPOS>SUBSTRUCTURE
       1 MOL1            1 RESIDUE      1      MOL     
       2 MOL1          139 RESIDUE      1      MOL     
@<SCITEGIC>MOL_PROPERTY
feprocess Rank
SciTegic.value.IntegerValue
160

@<SCITEGIC>MOL_PROPERTY
Conf_Id
SciTegic.value.IntegerValue
500

@<SCITEGIC>MOL_PROPERTY
Probability
SciTegic.value.DoubleValue
0.00

@<SCITEGIC>MOL_PROPERTY
G
SciTegic.value.DoubleValue
550.025

@<SCITEGIC>MOL_PROPERTY
E
SciTegic.value.DoubleValue
371.225

@<SCITEGIC>MOL_PROPERTY
-TS
SciTegic.value.DoubleValue
178.800

@<SCITEGIC>MOL_PROPERTY
U+W
SciTegic.value.DoubleValue
248.714

@<SCITEGIC>MOL_PROPERTY
U
SciTegic.value.DoubleValue
283.702

@<SCITEGIC>MOL_PROPERTY
W
SciTegic.value.DoubleValue
-34.988

@<SCITEGIC>MOL_PROPERTY
W(PB)
SciTegic.value.DoubleValue
-40.894

@<SCITEGIC>MOL_PROPERTY
W(SA)
SciTegic.value.DoubleValue
5.905

@<SCITEGIC>MOL_PROPERTY
Valence
SciTegic.value.DoubleValue
155.682

@<SCITEGIC>MOL_PROPERTY
Coulomb
SciTegic.value.DoubleValue
150.917

@<SCITEGIC>MOL_PROPERTY
VdW
SciTegic.value.DoubleValue
-22.897

@<SCITEGIC>MOL_PROPERTY
VdW6
SciTegic.value.DoubleValue
-172.259

@<SCITEGIC>MOL_PROPERTY
VdW12
SciTegic.value.DoubleValue
149.362

@<SCITEGIC>MOL_PROPERTY
Bond
SciTegic.value.DoubleValue
4.519

@<SCITEGIC>MOL_PROPERTY
Angle
SciTegic.value.DoubleValue
11.507

@<SCITEGIC>MOL_PROPERTY
Pdih
SciTegic.value.DoubleValue
139.657

@<SCITEGIC>MOL_PROPERTY
Idih
SciTegic.value.DoubleValue
0.000

@<SCITEGIC>MOL_PROPERTY
Tether
SciTegic.value.DoubleValue
0.000

@<TRIPOS>MOLECULE
CD_guest-s16_fast_vm2_rndm.mol2 : feprocess host+ligand conformer 161
         139         145           2
SMALL
USER_CHARGES
 
@<TRIPOS>ATOM
       1    C1      16.228302   15.246054   21.043082 C.3        1 MOL1         0.2972
       2    H1      15.204441   14.986907   20.744907 H          1 MOL1         0.0751
       3    O1      16.344424   16.646022   21.358766 O.3        1 MOL1        -0.3740
       4    C2      16.615200   14.453736   22.319094 C.3        1 MOL1         0.1003
       5    H2      16.498912   13.385754   22.093215 H          1 MOL1         0.0783
       6    O2      15.743504   14.807568   23.404734 O.3        1 MOL1        -0.5519
       7    H3      15.493985   15.753954   23.268582 H          1 MOL1         0.3769
       8    C3      18.092672   14.701207   22.712047 C.3        1 MOL1         0.1053
       9    H4      18.196343   15.745563   23.034493 H          1 MOL1         0.0783
      10    O3      18.457602   13.824075   23.782731 O.3        1 MOL1        -0.5519
      11    H5      17.715880   13.883958   24.425562 H          1 MOL1         0.3769
      12    C4      19.021894   14.470678   21.498243 C.3        1 MOL1         0.1018
      13    H6      19.000709   13.402154   21.245904 H          1 MOL1         0.0783
      14    C5      18.546639   15.279590   20.261753 C.3        1 MOL1         0.1043
      15    H7      18.608657   16.348223   20.499805 H          1 MOL1         0.0783
      16    O4      17.165150   14.933869   19.986668 O.3        1 MOL1        -0.3740
      17    C6      19.384699   15.046569   18.977740 C.3        1 MOL1         0.0138
      18    H8      20.242273   15.730919   18.993016 H          1 MOL1         0.0794
      19    H9      18.774924   15.318775   18.106249 H          1 MOL1         0.0794
      20    O5      19.851913   13.699405   18.844865 O.3        1 MOL1        -0.5486
      21    H10     20.634935   13.606672   19.436112 H          1 MOL1         0.3769
      22    C7      14.809760   20.393008   20.410777 C.3        1 MOL1         0.2972
      23    H11     14.233643   21.246801   20.031201 H          1 MOL1         0.0751
      24    O6      16.056461   20.809475   21.001153 O.3        1 MOL1        -0.3740
      25    C8      14.006974   19.595381   21.471340 C.3        1 MOL1         0.1003
      26    H12     13.107186   19.207883   20.976026 H          1 MOL1         0.0783
      27    O7      13.611891   20.429703   22.571225 O.3        1 MOL1        -0.5519
      28    H13     14.432385   20.852588   22.931632 H          1 MOL1         0.3769
      29    C9      14.833214   18.385711   21.974958 C.3        1 MOL1         0.1053
      30    H14     15.703774   18.771216   22.523453 H          1 MOL1         0.0783
      31    O8      14.030543   17.584171   22.848542 O.3        1 MOL1        -0.5519
      32    H15     13.586981   18.223438   23.449226 H          1 MOL1         0.3769
      33    C10     15.346400   17.520335   20.795444 C.3        1 MOL1         0.1018
      34    H16     14.492772   16.963474   20.387554 H          1 MOL1         0.0783
      35    C11     15.998334   18.378767   19.670655 C.3        1 MOL1         0.1043
      36    H17     16.944522   18.780363   20.049889 H          1 MOL1         0.0783
      37    O9      15.117312   19.480188   19.333901 O.3        1 MOL1        -0.3740
      38    C12     16.340213   17.616709   18.365123 C.3        1 MOL1         0.0138
      39    H18     17.349432   17.198673   18.461719 H          1 MOL1         0.0794
      40    H19     16.375966   18.339482   17.539088 H          1 MOL1         0.0794
      41    O10     15.414611   16.568581   18.059046 O.3        1 MOL1        -0.5486
      42    H20     15.738508   15.765269   18.526050 H          1 MOL1         0.3769
      43    C13     18.426395   24.008867   22.005494 C.3        1 MOL1         0.2972
      44    H21     18.869249   24.980289   22.261311 H          1 MOL1         0.0751
      45    O11     19.435958   22.994809   21.829930 O.3        1 MOL1        -0.3740
      46    C14     17.468965   23.558239   23.133299 C.3        1 MOL1         0.1003
      47    H22     16.667097   24.304478   23.206189 H          1 MOL1         0.0783
      48    O12     18.165813   23.483668   24.387687 O.3        1 MOL1        -0.5519
      49    H23     19.132784   23.490802   24.180269 H          1 MOL1         0.3769
      50    C15     16.827862   22.195361   22.790288 C.3        1 MOL1         0.1053
      51    H24     17.624335   21.443020   22.809372 H          1 MOL1         0.0783
      52    O13     15.843734   21.873134   23.777271 O.3        1 MOL1        -0.5519
      53    H25     16.282306   22.061140   24.637396 H          1 MOL1         0.3769
      54    C16     16.189772   22.193570   21.376828 C.3        1 MOL1         0.1018
      55    H26     15.219568   22.705605   21.426090 H          1 MOL1         0.0783
      56    C17     17.098766   22.853786   20.299874 C.3        1 MOL1         0.1043
      57    H27     17.913341   22.151398   20.085224 H          1 MOL1         0.0783
      58    O14     17.667926   24.099061   20.781775 O.3        1 MOL1        -0.3740
      59    C18     16.372215   23.130723   18.962170 C.3        1 MOL1         0.0138
      60    H28     16.170065   22.169933   18.469586 H          1 MOL1         0.0794
      61    H29     17.047091   23.697329   18.306465 H          1 MOL1         0.0794
      62    O15     15.145483   23.846002   19.153510 O.3        1 MOL1        -0.5486
      63    H30     14.780093   24.053981   18.265873 H          1 MOL1         0.3769
      64    C19     23.598750   22.733986   21.390054 C.3        1 MOL1         0.2972
      65    H31     24.646043   22.989967   21.183948 H          1 MOL1         0.0751
      66    O16     23.457413   21.336841   21.711022 O.3        1 MOL1        -0.3740
      67    C20     23.091775   23.550446   22.607826 C.3        1 MOL1         0.1003
      68    H32     23.208761   24.615004   22.366777 H          1 MOL1         0.0783
      69    O17     23.870679   23.237870   23.772170 O.3        1 MOL1        -0.5519
      70    H33     24.109601   22.284344   23.692751 H          1 MOL1         0.3769
      71    C21     21.591670   23.280779   22.876393 C.3        1 MOL1         0.1053
      72    H34     21.485807   22.235086   23.194803 H          1 MOL1         0.0783
      73    O18     21.120371   24.154126   23.907961 O.3        1 MOL1        -0.5519
      74    H35     21.811628   24.118170   24.606627 H          1 MOL1         0.3769
      75    C22     20.766211   23.486055   21.584451 C.3        1 MOL1         0.1018
      76    H36     20.769053   24.553126   21.324807 H          1 MOL1         0.0783
      77    C23     21.360151   22.679644   20.401765 C.3        1 MOL1         0.1043
      78    H37     21.272700   21.614616   20.647536 H          1 MOL1         0.0783
      79    O19     22.760875   23.025438   20.247447 O.3        1 MOL1        -0.3740
      80    C24     20.636987   22.900033   19.046953 C.3        1 MOL1         0.0138
      81    H38     19.818786   22.173436   18.968456 H          1 MOL1         0.0794
      82    H39     21.338620   22.675024   18.232611 H          1 MOL1         0.0794
      83    O20     20.116135   24.226165   18.893104 O.3        1 MOL1        -0.5486
      84    H40     19.348253   24.312673   19.504821 H          1 MOL1         0.3769
      85    C25     25.070418   17.562520   21.032641 C.3        1 MOL1         0.2972
      86    H41     25.675274   16.713313   20.689364 H          1 MOL1         0.0751
      87    O21     23.920347   17.122519   21.787383 O.3        1 MOL1        -0.3740
      88    C26     25.916728   18.484371   21.946101 C.3        1 MOL1         0.1003
      89    H42     26.798437   18.796292   21.371304 H          1 MOL1         0.0783
      90    O22     26.338129   17.767695   23.117780 O.3        1 MOL1        -0.5519
      91    H43     25.547931   17.276501   23.446901 H          1 MOL1         0.3769
      92    C27     25.136169   19.759360   22.355126 C.3        1 MOL1         0.1053
      93    H44     24.360202   19.460809   23.068820 H          1 MOL1         0.0783
      94    O23     26.029755   20.679675   22.989645 O.3        1 MOL1        -0.5519
      95    H45     26.517669   20.149547   23.657715 H          1 MOL1         0.3769
      96    C28     24.442709   20.446261   21.149102 C.3        1 MOL1         0.1018
      97    H46     25.205163   20.983022   20.569613 H          1 MOL1         0.0783
      98    C29     23.713640   19.427222   20.228175 C.3        1 MOL1         0.1043
      99    H47     22.855783   19.024712   20.776581 H          1 MOL1         0.0783
     100    O24     24.618339   18.346791   19.910546 O.3        1 MOL1        -0.3740
     101    C30     23.170665   19.998992   18.893057 C.3        1 MOL1         0.0138
     102    H48     22.143569   20.346304   19.051765 H          1 MOL1         0.0794
     103    H49     23.113395   19.181044   18.162519 H          1 MOL1         0.0794
     104    O25     23.965847   21.066693   18.366265 O.3        1 MOL1        -0.5486
     105    H50     23.741957   21.873311   18.886486 H          1 MOL1         0.3769
     106    C31     21.344034   13.870938   21.905833 C.3        1 MOL1         0.2972
     107    H51     20.889619   12.872174   21.929453 H          1 MOL1         0.0751
     108    O26     20.343411   14.910591   21.873648 O.3        1 MOL1        -0.3740
     109    C32     22.231047   14.059012   23.158446 C.3        1 MOL1         0.1003
     110    H52     23.008717   13.284528   23.134533 H          1 MOL1         0.0783
     111    O27     21.449794   13.912999   24.355368 O.3        1 MOL1        -0.5519
     112    H53     20.507735   14.096255   24.112461 H          1 MOL1         0.3769
     113    C33     22.926802   15.436202   23.132672 C.3        1 MOL1         0.1053
     114    H54     22.145657   16.192497   23.251238 H          1 MOL1         0.0783
     115    O28     23.855859   15.529047   24.217342 O.3        1 MOL1        -0.5519
     116    H55     23.361158   15.210092   25.004564 H          1 MOL1         0.3769
     117    C34     23.657964   15.700890   21.793253 C.3        1 MOL1         0.1018
     118    H56     24.590474   15.121146   21.795788 H          1 MOL1         0.0783
     119    C35     22.792671   15.318689   20.550474 C.3        1 MOL1         0.1043
     120    H57     22.007985   16.076983   20.440303 H          1 MOL1         0.0783
     121    O29     22.175978   14.018307   20.739675 O.3        1 MOL1        -0.3740
     122    C36     23.569972   15.253306   19.212416 C.3        1 MOL1         0.0138
     123    H58     23.764799   16.272632   18.859169 H          1 MOL1         0.0794
     124    H59     22.927359   14.775938   18.460283 H          1 MOL1         0.0794
     125    O30     24.802103   14.532515   19.336897 O.3        1 MOL1        -0.5486
     126    H60     25.197917   14.462426   18.440909 H          1 MOL1         0.3769
     127    C1      18.827179   18.914132   22.271673 C.3        1 MOL1        -0.1693
     128    H1      18.213029   18.042833   22.524899 H          1 MOL1         0.0829
     129    H2      18.233921   19.604699   21.668247 H          1 MOL1         0.0829
     130    C2      20.247459   18.587440   21.714584 C.3        1 MOL1        -0.1768
     131    H3      20.716728   19.421000   21.182372 H          1 MOL1         0.0829
     132    H4      20.342894   17.680802   21.111287 H          1 MOL1         0.0829
     133    C3      20.660931   18.453193   23.208902 C.3        1 MOL1         0.1211
     134    H5      20.416976   17.479527   23.654651 H          1 MOL1         0.0786
     135    C4      19.586079   19.545056   23.483287 C.3        1 MOL1        -0.1768
     136    H6      19.929207   20.573456   23.325940 H          1 MOL1         0.0829
     137    H7      19.082088   19.486212   24.453737 H          1 MOL1         0.0829
     138    O1      21.988222   18.819854   23.495602 O.3        1 MOL1        -0.5515
     139    H8      22.578023   18.161228   23.070382 H          1 MOL1         0.3773
@<TRIPOS>BOND
    1     1     2    1
    2     1     3    1
    3     1     4    1
    4     4     5    1
    5     4     6    1
    6     6     7    1
    7     4     8    1
    8     8     9    1
    9     8    10    1
   10    10    11    1
   11     8    12    1
   12    12    13    1
   13    12    14    1
   14    14    15    1
   15     1    16    1
   16    14    16    1
   17    14    17    1
   18    17    18    1
   19    17    19    1
   20    17    20    1
   21    20    21    1
   22    22    23    1
   23    22    24    1
   24    22    25    1
   25    25    26    1
   26    25    27    1
   27    27    28    1
   28    25    29    1
   29    29    30    1
   30    29    31    1
   31    31    32    1
   32     3    33    1
   33    29    33    1
   34    33    34    1
   35    33    35    1
   36    35    36    1
   37    22    37    1
   38    35    37    1
   39    35    38    1
   40    38    39    1
   41    38    40    1
   42    38    41    1
   43    41    42    1
   44    43    44    1
   45    43    45    1
   46    43    46    1
   47    46    47    1
   48    46    48    1
   49    48    49    1
   50    46    50    1
   51    50    51    1
   52    50    52    1
   53    52    53    1
   54    24    54    1
   55    50    54    1
   56    54    55    1
   57    54    56    1
   58    56    57    1
   59    43    58    1
   60    56    58    1
   61    56    59    1
   62    59    60    1
   63    59    61    1
   64    59    62    1
   65    62    63    1
   66    64    65    1
   67    64    66    1
   68    64    67    1
   69    67    68    1
   70    67    69    1
   71    69    70    1
   72    67    71    1
   73    71    72    1
   74    71    73    1
   75    73    74    1
   76    45    75    1
   77    71    75    1
   78    75    76    1
   79    75    77    1
   80    77    78    1
   81    64    79    1
   82    77    79    1
   83    77    80    1
   84    80    81    1
   85    80    82    1
   86    80    83    1
   87    83    84    1
   88    85    86    1
   89    85    87    1
   90    85    88    1
   91    88    89    1
   92    88    90    1
   93    90    91    1
   94    88    92    1
   95    92    93    1
   96    92    94    1
   97    94    95    1
   98    66    96    1
   99    92    96    1
  100    96    97    1
  101    96    98    1
  102    98    99    1
  103    85   100    1
  104    98   100    1
  105    98   101    1
  106   101   102    1
  107   101   103    1
  108   101   104    1
  109   104   105    1
  110   106   107    1
  111    12   108    1
  112   106   108    1
  113   106   109    1
  114   109   110    1
  115   109   111    1
  116   111   112    1
  117   109   113    1
  118   113   114    1
  119   113   115    1
  120   115   116    1
  121    87   117    1
  122   113   117    1
  123   117   118    1
  124   117   119    1
  125   119   120    1
  126   106   121    1
  127   119   121    1
  128   119   122    1
  129   122   123    1
  130   122   124    1
  131   122   125    1
  132   125   126    1
  133   127   128    1
  134   127   129    1
  135   127   130    1
  136   130   131    1
  137   130   132    1
  138   130   133    1
  139   133   134    1
  140   127   135    1
  141   133   135    1
  142   135   136    1
  143   135   137    1
  144   133   138    1
  145   138   139    1
@<TRIPOS>SUBSTRUCTURE
       1 MOL1            1 RESIDUE      1      MOL     
       2 MOL1          139 RESIDUE      1      MOL     
@<SCITEGIC>MOL_PROPERTY
feprocess Rank
SciTegic.value.IntegerValue
161

@<SCITEGIC>MOL_PROPERTY
Conf_Id
SciTegic.value.IntegerValue
432

@<SCITEGIC>MOL_PROPERTY
Probability
SciTegic.value.DoubleValue
0.00

@<SCITEGIC>MOL_PROPERTY
G
SciTegic.value.DoubleValue
550.032

@<SCITEGIC>MOL_PROPERTY
E
SciTegic.value.DoubleValue
372.601

@<SCITEGIC>MOL_PROPERTY
-TS
SciTegic.value.DoubleValue
177.432

@<SCITEGIC>MOL_PROPERTY
U+W
SciTegic.value.DoubleValue
250.089

@<SCITEGIC>MOL_PROPERTY
U
SciTegic.value.DoubleValue
287.176

@<SCITEGIC>MOL_PROPERTY
W
SciTegic.value.DoubleValue
-37.087

@<SCITEGIC>MOL_PROPERTY
W(PB)
SciTegic.value.DoubleValue
-43.037

@<SCITEGIC>MOL_PROPERTY
W(SA)
SciTegic.value.DoubleValue
5.950

@<SCITEGIC>MOL_PROPERTY
Valence
SciTegic.value.DoubleValue
154.431

@<SCITEGIC>MOL_PROPERTY
Coulomb
SciTegic.value.DoubleValue
155.407

@<SCITEGIC>MOL_PROPERTY
VdW
SciTegic.value.DoubleValue
-22.661

@<SCITEGIC>MOL_PROPERTY
VdW6
SciTegic.value.DoubleValue
-168.724

@<SCITEGIC>MOL_PROPERTY
VdW12
SciTegic.value.DoubleValue
146.062

@<SCITEGIC>MOL_PROPERTY
Bond
SciTegic.value.DoubleValue
4.608

@<SCITEGIC>MOL_PROPERTY
Angle
SciTegic.value.DoubleValue
11.760

@<SCITEGIC>MOL_PROPERTY
Pdih
SciTegic.value.DoubleValue
138.063

@<SCITEGIC>MOL_PROPERTY
Idih
SciTegic.value.DoubleValue
0.000

@<SCITEGIC>MOL_PROPERTY
Tether
SciTegic.value.DoubleValue
0.000

@<TRIPOS>MOLECULE
CD_guest-s16_fast_vm2_rndm.mol2 : feprocess host+ligand conformer 162
         139         145           2
SMALL
USER_CHARGES
 
@<TRIPOS>ATOM
       1    C1      16.356654   15.534681   20.269760 C.3        1 MOL1         0.2972
       2    H1      15.382184   15.454016   19.770887 H          1 MOL1         0.0751
       3    O1      16.477103   16.764535   21.008960 O.3        1 MOL1        -0.3740
       4    C2      16.579139   14.357686   21.257200 C.3        1 MOL1         0.1003
       5    H2      16.532957   13.428653   20.674260 H          1 MOL1         0.0783
       6    O2      15.561989   14.326911   22.271340 O.3        1 MOL1        -0.5519
       7    H3      15.521086   15.229210   22.678724 H          1 MOL1         0.3769
       8    C3      17.983851   14.446333   21.904745 C.3        1 MOL1         0.1053
       9    H4      18.010752   15.339552   22.544205 H          1 MOL1         0.0783
      10    O3      18.227853   13.278614   22.696145 O.3        1 MOL1        -0.5519
      11    H5      17.398358   13.134564   23.204090 H          1 MOL1         0.3769
      12    C4      19.083402   14.592114   20.824054 C.3        1 MOL1         0.1018
      13    H6      19.172068   13.641163   20.282223 H          1 MOL1         0.0783
      14    C5      18.754868   15.725367   19.812148 C.3        1 MOL1         0.1043
      15    H7      18.786589   16.687133   20.339953 H          1 MOL1         0.0783
      16    O4      17.420494   15.505482   19.292021 O.3        1 MOL1        -0.3740
      17    C6      19.735491   15.840721   18.616150 C.3        1 MOL1         0.0138
      18    H8      20.537725   16.536928   18.889923 H          1 MOL1         0.0794
      19    H9      19.202067   16.295710   17.770985 H          1 MOL1         0.0794
      20    O5      20.299365   14.584288   18.220136 O.3        1 MOL1        -0.5486
      21    H10     20.956743   14.331056   18.909374 H          1 MOL1         0.3769
      22    C7      14.597101   20.286481   21.927852 C.3        1 MOL1         0.2972
      23    H11     13.918330   21.122695   22.138988 H          1 MOL1         0.0751
      24    O6      15.976799   20.699276   21.952228 O.3        1 MOL1        -0.3740
      25    C8      14.421705   19.184873   22.998578 C.3        1 MOL1         0.1003
      26    H12     13.387341   18.821710   22.940427 H          1 MOL1         0.0783
      27    O7      14.669419   19.723665   24.307264 O.3        1 MOL1        -0.5519
      28    H13     15.336853   20.444133   24.196462 H          1 MOL1         0.3769
      29    C9      15.368675   17.995270   22.717353 C.3        1 MOL1         0.1053
      30    H14     16.396505   18.337340   22.884414 H          1 MOL1         0.0783
      31    O8      15.072650   16.922953   23.617895 O.3        1 MOL1        -0.5519
      32    H15     14.999892   17.346707   24.502276 H          1 MOL1         0.3769
      33    C10     15.263421   17.499039   21.254004 C.3        1 MOL1         0.1018
      34    H16     14.370115   16.866814   21.162784 H          1 MOL1         0.0783
      35    C11     15.219296   18.655068   20.212488 C.3        1 MOL1         0.1043
      36    H17     16.233750   19.067024   20.135090 H          1 MOL1         0.0783
      37    O9      14.315104   19.707432   20.637968 O.3        1 MOL1        -0.3740
      38    C12     14.803042   18.198671   18.793479 C.3        1 MOL1         0.0138
      39    H18     15.624203   17.611998   18.359911 H          1 MOL1         0.0794
      40    H19     14.670857   19.088441   18.163360 H          1 MOL1         0.0794
      41    O10     13.602154   17.417255   18.808470 O.3        1 MOL1        -0.5486
      42    H20     13.353471   17.234371   17.876080 H          1 MOL1         0.3769
      43    C13     18.466553   23.989808   21.474548 C.3        1 MOL1         0.2972
      44    H21     18.879201   24.995972   21.324123 H          1 MOL1         0.0751
      45    O11     19.511455   22.999828   21.550353 O.3        1 MOL1        -0.3740
      46    C14     17.666525   23.946627   22.799856 C.3        1 MOL1         0.1003
      47    H22     16.856747   24.683990   22.724811 H          1 MOL1         0.0783
      48    O12     18.518726   24.284629   23.905065 O.3        1 MOL1        -0.5519
      49    H23     19.440756   24.083662   23.616677 H          1 MOL1         0.3769
      50    C15     17.030546   22.553667   23.013684 C.3        1 MOL1         0.1053
      51    H24     17.843187   21.835348   23.179545 H          1 MOL1         0.0783
      52    O13     16.174403   22.581527   24.160639 O.3        1 MOL1        -0.5519
      53    H25     16.696684   23.039552   24.856279 H          1 MOL1         0.3769
      54    C16     16.229169   22.103867   21.767750 C.3        1 MOL1         0.1018
      55    H26     15.303639   22.692211   21.716645 H          1 MOL1         0.0783
      56    C17     17.038856   22.283552   20.452392 C.3        1 MOL1         0.1043
      57    H27     17.863893   21.563947   20.474919 H          1 MOL1         0.0783
      58    O14     17.582000   23.627554   20.391058 O.3        1 MOL1        -0.3740
      59    C18     16.247318   22.015375   19.145620 C.3        1 MOL1         0.0138
      60    H28     16.344566   20.953544   18.889321 H          1 MOL1         0.0794
      61    H29     16.717319   22.579451   18.328870 H          1 MOL1         0.0794
      62    O15     14.860848   22.358484   19.241760 O.3        1 MOL1        -0.5486
      63    H30     14.410630   21.598715   19.678284 H          1 MOL1         0.3769
      64    C19     23.501267   22.413681   20.458720 C.3        1 MOL1         0.2972
      65    H31     24.492400   22.483148   19.992325 H          1 MOL1         0.0751
      66    O16     23.363645   21.217715   21.243652 O.3        1 MOL1        -0.3740
      67    C20     23.238385   23.622958   21.394830 C.3        1 MOL1         0.1003
      68    H32     23.326073   24.533397   20.787940 H          1 MOL1         0.0783
      69    O17     24.203749   23.664753   22.459033 O.3        1 MOL1        -0.5519
      70    H33     24.219934   22.765652   22.874549 H          1 MOL1         0.3769
      71    C21     21.804567   23.572186   21.981664 C.3        1 MOL1         0.1053
      72    H34     21.759703   22.731398   22.684089 H          1 MOL1         0.0783
      73    O18     21.525762   24.790830   22.678714 O.3        1 MOL1        -0.5519
      74    H35     22.321715   24.961284   23.229666 H          1 MOL1         0.3769
      75    C22     20.740605   23.337326   20.879297 C.3        1 MOL1         0.1018
      76    H36     20.645805   24.255281   20.284328 H          1 MOL1         0.0783
      77    C23     21.125616   22.162524   19.937460 C.3        1 MOL1         0.1043
      78    H37     21.094211   21.227199   20.512874 H          1 MOL1         0.0783
      79    O19     22.470039   22.391147   19.448420 O.3        1 MOL1        -0.3740
      80    C24     20.193489   21.967684   18.713603 C.3        1 MOL1         0.0138
      81    H38     19.393525   21.271573   18.991876 H          1 MOL1         0.0794
      82    H39     20.766859   21.478835   17.914718 H          1 MOL1         0.0794
      83    O20     19.626188   23.191578   18.229836 O.3        1 MOL1        -0.5486
      84    H40     18.960594   23.487353   18.893749 H          1 MOL1         0.3769
      85    C25     25.146578   17.650410   22.158009 C.3        1 MOL1         0.2972
      86    H41     25.809674   16.805933   22.385260 H          1 MOL1         0.0751
      87    O21     23.764753   17.243642   22.097892 O.3        1 MOL1        -0.3740
      88    C26     25.277408   18.726312   23.261175 C.3        1 MOL1         0.1003
      89    H42     26.318666   19.073947   23.267682 H          1 MOL1         0.0783
      90    O22     24.950825   18.165402   24.543415 O.3        1 MOL1        -0.5519
      91    H43     24.313606   17.426681   24.382883 H          1 MOL1         0.3769
      92    C27     24.367595   19.937292   22.954511 C.3        1 MOL1         0.1053
      93    H44     23.326799   19.608905   23.059406 H          1 MOL1         0.0783
      94    O23     24.631979   20.992031   23.886419 O.3        1 MOL1        -0.5519
      95    H45     24.633882   20.557528   24.768047 H          1 MOL1         0.3769
      96    C28     24.555430   20.460236   21.510396 C.3        1 MOL1         0.1018
      97    H46     25.458291   21.084379   21.477595 H          1 MOL1         0.0783
      98    C29     24.634684   19.325797   20.445756 C.3        1 MOL1         0.1043
      99    H47     23.620886   18.931590   20.302067 H          1 MOL1         0.0783
     100    O24     25.499658   18.251063   20.896277 O.3        1 MOL1        -0.3740
     101    C30     25.134241   19.800716   19.060228 C.3        1 MOL1         0.0138
     102    H48     24.344071   20.401825   18.590618 H          1 MOL1         0.0794
     103    H49     25.292257   18.919400   18.424250 H          1 MOL1         0.0794
     104    O25     26.340441   20.568547   19.154156 O.3        1 MOL1        -0.5486
     105    H50     26.643045   20.761664   18.240005 H          1 MOL1         0.3769
     106    C31     21.333026   13.933051   21.506046 C.3        1 MOL1         0.2972
     107    H51     20.921921   12.928506   21.341711 H          1 MOL1         0.0751
     108    O26     20.297675   14.936085   21.513289 O.3        1 MOL1        -0.3740
     109    C32     22.050137   13.990074   22.877068 C.3        1 MOL1         0.1003
     110    H52     22.871096   13.261569   22.857018 H          1 MOL1         0.0783
     111    O27     21.135941   13.652233   23.932380 O.3        1 MOL1        -0.5519
     112    H53     20.225779   13.803650   23.578421 H          1 MOL1         0.3769
     113    C33     22.653962   15.393679   23.112882 C.3        1 MOL1         0.1053
     114    H54     21.822635   16.102355   23.212042 H          1 MOL1         0.0783
     115    O28     23.431787   15.397500   24.314185 O.3        1 MOL1        -0.5519
     116    H55     22.875718   14.931938   24.978042 H          1 MOL1         0.3769
     117    C34     23.530159   15.834521   21.915515 C.3        1 MOL1         0.1018
     118    H56     24.459454   15.250113   21.934151 H          1 MOL1         0.0783
     119    C35     22.813980   15.627114   20.549807 C.3        1 MOL1         0.1043
     120    H57     21.979756   16.333091   20.497675 H          1 MOL1         0.0783
     121    O29     22.286041   14.278022   20.475317 O.3        1 MOL1        -0.3740
     122    C36     23.691449   15.892399   19.299459 C.3        1 MOL1         0.0138
     123    H58     23.616563   16.956438   19.042016 H          1 MOL1         0.0794
     124    H59     23.273624   15.331962   18.452440 H          1 MOL1         0.0794
     125    O30     25.066967   15.543855   19.488625 O.3        1 MOL1        -0.5486
     126    H60     25.494260   16.311344   19.933852 H          1 MOL1         0.3769
     127    C1      20.374054   20.116413   23.634338 C.3        1 MOL1        -0.1693
     128    H1      20.003651   20.701918   24.483584 H          1 MOL1         0.0829
     129    H2      21.189068   20.668446   23.153985 H          1 MOL1         0.0829
     130    C2      19.290676   19.572105   22.646726 C.3        1 MOL1        -0.1768
     131    H3      18.330903   19.339869   23.118244 H          1 MOL1         0.0829
     132    H4      19.109231   20.173514   21.752028 H          1 MOL1         0.0829
     133    C3      20.228476   18.344828   22.449199 C.3        1 MOL1         0.1211
     134    H5      19.713103   17.388472   22.303658 H          1 MOL1         0.0786
     135    C4      20.693173   18.611815   23.915382 C.3        1 MOL1        -0.1768
     136    H6      21.736226   18.372951   24.146711 H          1 MOL1         0.0829
     137    H7      20.055427   18.148222   24.677637 H          1 MOL1         0.0829
     138    O1      21.215565   18.525005   21.454972 O.3        1 MOL1        -0.5515
     139    H8      22.037932   18.105756   21.786085 H          1 MOL1         0.3773
@<TRIPOS>BOND
    1     1     2    1
    2     1     3    1
    3     1     4    1
    4     4     5    1
    5     4     6    1
    6     6     7    1
    7     4     8    1
    8     8     9    1
    9     8    10    1
   10    10    11    1
   11     8    12    1
   12    12    13    1
   13    12    14    1
   14    14    15    1
   15     1    16    1
   16    14    16    1
   17    14    17    1
   18    17    18    1
   19    17    19    1
   20    17    20    1
   21    20    21    1
   22    22    23    1
   23    22    24    1
   24    22    25    1
   25    25    26    1
   26    25    27    1
   27    27    28    1
   28    25    29    1
   29    29    30    1
   30    29    31    1
   31    31    32    1
   32     3    33    1
   33    29    33    1
   34    33    34    1
   35    33    35    1
   36    35    36    1
   37    22    37    1
   38    35    37    1
   39    35    38    1
   40    38    39    1
   41    38    40    1
   42    38    41    1
   43    41    42    1
   44    43    44    1
   45    43    45    1
   46    43    46    1
   47    46    47    1
   48    46    48    1
   49    48    49    1
   50    46    50    1
   51    50    51    1
   52    50    52    1
   53    52    53    1
   54    24    54    1
   55    50    54    1
   56    54    55    1
   57    54    56    1
   58    56    57    1
   59    43    58    1
   60    56    58    1
   61    56    59    1
   62    59    60    1
   63    59    61    1
   64    59    62    1
   65    62    63    1
   66    64    65    1
   67    64    66    1
   68    64    67    1
   69    67    68    1
   70    67    69    1
   71    69    70    1
   72    67    71    1
   73    71    72    1
   74    71    73    1
   75    73    74    1
   76    45    75    1
   77    71    75    1
   78    75    76    1
   79    75    77    1
   80    77    78    1
   81    64    79    1
   82    77    79    1
   83    77    80    1
   84    80    81    1
   85    80    82    1
   86    80    83    1
   87    83    84    1
   88    85    86    1
   89    85    87    1
   90    85    88    1
   91    88    89    1
   92    88    90    1
   93    90    91    1
   94    88    92    1
   95    92    93    1
   96    92    94    1
   97    94    95    1
   98    66    96    1
   99    92    96    1
  100    96    97    1
  101    96    98    1
  102    98    99    1
  103    85   100    1
  104    98   100    1
  105    98   101    1
  106   101   102    1
  107   101   103    1
  108   101   104    1
  109   104   105    1
  110   106   107    1
  111    12   108    1
  112   106   108    1
  113   106   109    1
  114   109   110    1
  115   109   111    1
  116   111   112    1
  117   109   113    1
  118   113   114    1
  119   113   115    1
  120   115   116    1
  121    87   117    1
  122   113   117    1
  123   117   118    1
  124   117   119    1
  125   119   120    1
  126   106   121    1
  127   119   121    1
  128   119   122    1
  129   122   123    1
  130   122   124    1
  131   122   125    1
  132   125   126    1
  133   127   128    1
  134   127   129    1
  135   127   130    1
  136   130   131    1
  137   130   132    1
  138   130   133    1
  139   133   134    1
  140   127   135    1
  141   133   135    1
  142   135   136    1
  143   135   137    1
  144   133   138    1
  145   138   139    1
@<TRIPOS>SUBSTRUCTURE
       1 MOL1            1 RESIDUE      1      MOL     
       2 MOL1          139 RESIDUE      1      MOL     
@<SCITEGIC>MOL_PROPERTY
feprocess Rank
SciTegic.value.IntegerValue
162

@<SCITEGIC>MOL_PROPERTY
Conf_Id
SciTegic.value.IntegerValue
933

@<SCITEGIC>MOL_PROPERTY
Probability
SciTegic.value.DoubleValue
0.00

@<SCITEGIC>MOL_PROPERTY
G
SciTegic.value.DoubleValue
550.045

@<SCITEGIC>MOL_PROPERTY
E
SciTegic.value.DoubleValue
372.699

@<SCITEGIC>MOL_PROPERTY
-TS
SciTegic.value.DoubleValue
177.346

@<SCITEGIC>MOL_PROPERTY
U+W
SciTegic.value.DoubleValue
250.188

@<SCITEGIC>MOL_PROPERTY
U
SciTegic.value.DoubleValue
284.912

@<SCITEGIC>MOL_PROPERTY
W
SciTegic.value.DoubleValue
-34.724

@<SCITEGIC>MOL_PROPERTY
W(PB)
SciTegic.value.DoubleValue
-40.610

@<SCITEGIC>MOL_PROPERTY
W(SA)
SciTegic.value.DoubleValue
5.886

@<SCITEGIC>MOL_PROPERTY
Valence
SciTegic.value.DoubleValue
155.462

@<SCITEGIC>MOL_PROPERTY
Coulomb
SciTegic.value.DoubleValue
152.408

@<SCITEGIC>MOL_PROPERTY
VdW
SciTegic.value.DoubleValue
-22.958

@<SCITEGIC>MOL_PROPERTY
VdW6
SciTegic.value.DoubleValue
-170.747

@<SCITEGIC>MOL_PROPERTY
VdW12
SciTegic.value.DoubleValue
147.789

@<SCITEGIC>MOL_PROPERTY
Bond
SciTegic.value.DoubleValue
4.474

@<SCITEGIC>MOL_PROPERTY
Angle
SciTegic.value.DoubleValue
11.599

@<SCITEGIC>MOL_PROPERTY
Pdih
SciTegic.value.DoubleValue
139.389

@<SCITEGIC>MOL_PROPERTY
Idih
SciTegic.value.DoubleValue
0.000

@<SCITEGIC>MOL_PROPERTY
Tether
SciTegic.value.DoubleValue
0.000

@<TRIPOS>MOLECULE
CD_guest-s16_fast_vm2_rndm.mol2 : feprocess host+ligand conformer 163
         139         145           2
SMALL
USER_CHARGES
 
@<TRIPOS>ATOM
       1    C1      16.227727   15.059054   21.803933 C.3        1 MOL1         0.2972
       2    H1      15.184620   14.870113   22.087752 H          1 MOL1         0.0751
       3    O1      16.529562   16.466981   21.767863 O.3        1 MOL1        -0.3740
       4    C2      17.179829   14.398466   22.826770 C.3        1 MOL1         0.1003
       5    H2      17.005209   13.315192   22.792909 H          1 MOL1         0.0783
       6    O2      16.907858   14.883437   24.151866 O.3        1 MOL1        -0.5519
       7    H3      16.558805   15.804551   24.058485 H          1 MOL1         0.3769
       8    C3      18.655581   14.658183   22.445693 C.3        1 MOL1         0.1053
       9    H4      18.855025   15.728321   22.582051 H          1 MOL1         0.0783
      10    O3      19.501851   13.901155   23.316109 O.3        1 MOL1        -0.5519
      11    H5      19.186745   14.116193   24.222252 H          1 MOL1         0.3769
      12    C4      18.947924   14.296756   20.964659 C.3        1 MOL1         0.1018
      13    H6      19.077121   13.209382   20.883973 H          1 MOL1         0.0783
      14    C5      17.838981   14.780516   19.983394 C.3        1 MOL1         0.1043
      15    H7      17.949938   15.866158   19.865227 H          1 MOL1         0.0783
      16    O4      16.514110   14.501366   20.505864 O.3        1 MOL1        -0.3740
      17    C6      17.950676   14.158571   18.571043 C.3        1 MOL1         0.0138
      18    H8      18.834560   14.580293   18.073657 H          1 MOL1         0.0794
      19    H9      17.071848   14.459416   17.985067 H          1 MOL1         0.0794
      20    O5      18.053982   12.730143   18.615935 O.3        1 MOL1        -0.5486
      21    H10     18.040210   12.400677   17.690785 H          1 MOL1         0.3769
      22    C7      14.801051   20.233016   21.658375 C.3        1 MOL1         0.2972
      23    H11     14.113575   21.088074   21.622092 H          1 MOL1         0.0751
      24    O6      16.177400   20.656523   21.602865 O.3        1 MOL1        -0.3740
      25    C8      14.603932   19.457826   22.984020 C.3        1 MOL1         0.1003
      26    H12     13.567253   19.097565   23.009330 H          1 MOL1         0.0783
      27    O7      14.836219   20.322790   24.107249 O.3        1 MOL1        -0.5519
      28    H13     15.399454   21.066506   23.781303 H          1 MOL1         0.3769
      29    C9      15.542768   18.230357   23.042625 C.3        1 MOL1         0.1053
      30    H14     16.576160   18.595721   23.104023 H          1 MOL1         0.0783
      31    O8      15.243299   17.447508   24.202311 O.3        1 MOL1        -0.5519
      32    H15     15.154655   18.100114   24.932616 H          1 MOL1         0.3769
      33    C10     15.404911   17.362730   21.767706 C.3        1 MOL1         0.1018
      34    H16     14.445549   16.830765   21.810041 H          1 MOL1         0.0783
      35    C11     15.474638   18.206350   20.463636 C.3        1 MOL1         0.1043
      36    H17     16.495827   18.588082   20.365519 H          1 MOL1         0.0783
      37    O9      14.561072   19.329757   20.554917 O.3        1 MOL1        -0.3740
      38    C12     15.178000   17.415656   19.163281 C.3        1 MOL1         0.0138
      39    H18     16.111758   16.954534   18.816718 H          1 MOL1         0.0794
      40    H19     14.865073   18.124817   18.385250 H          1 MOL1         0.0794
      41    O10     14.182974   16.400392   19.333328 O.3        1 MOL1        -0.5486
      42    H20     14.641114   15.612052   19.702987 H          1 MOL1         0.3769
      43    C13     18.582808   23.872938   20.504316 C.3        1 MOL1         0.2972
      44    H21     18.978321   24.802017   20.073937 H          1 MOL1         0.0751
      45    O11     19.626724   23.071020   21.096301 O.3        1 MOL1        -0.3740
      46    C14     17.528132   24.175673   21.601508 C.3        1 MOL1         0.1003
      47    H22     16.711254   24.733609   21.125603 H          1 MOL1         0.0783
      48    O12     18.086183   24.973258   22.657423 O.3        1 MOL1        -0.5519
      49    H23     18.950271   24.562608   22.916389 H          1 MOL1         0.3769
      50    C15     16.939445   22.859139   22.166737 C.3        1 MOL1         0.1053
      51    H24     17.742296   22.323241   22.690492 H          1 MOL1         0.0783
      52    O13     15.879474   23.153562   23.082418 O.3        1 MOL1        -0.5519
      53    H25     16.219747   23.889432   23.638925 H          1 MOL1         0.3769
      54    C16     16.414301   21.953010   21.025849 C.3        1 MOL1         0.1018
      55    H26     15.498389   22.399339   20.616633 H          1 MOL1         0.0783
      56    C17     17.456234   21.784998   19.886376 C.3        1 MOL1         0.1043
      57    H27     18.294952   21.204136   20.280413 H          1 MOL1         0.0783
      58    O14     17.933197   23.089813   19.477497 O.3        1 MOL1        -0.3740
      59    C18     16.940319   21.030711   18.632828 C.3        1 MOL1         0.0138
      60    H28     17.145425   19.960942   18.760755 H          1 MOL1         0.0794
      61    H29     17.523888   21.360232   17.762837 H          1 MOL1         0.0794
      62    O15     15.542359   21.224656   18.386730 O.3        1 MOL1        -0.5486
      63    H30     15.053554   20.684931   19.050782 H          1 MOL1         0.3769
      64    C19     23.725531   22.832906   21.632621 C.3        1 MOL1         0.2972
      65    H31     24.808408   22.995349   21.697436 H          1 MOL1         0.0751
      66    O16     23.382351   21.437080   21.759152 O.3        1 MOL1        -0.3740
      67    C20     22.976921   23.634553   22.727529 C.3        1 MOL1         0.1003
      68    H32     23.155312   24.699676   22.529913 H          1 MOL1         0.0783
      69    O17     23.463571   23.321379   24.040873 O.3        1 MOL1        -0.5519
      70    H33     23.477940   22.334811   24.128301 H          1 MOL1         0.3769
      71    C21     21.452576   23.385233   22.627905 C.3        1 MOL1         0.1053
      72    H34     21.261920   22.329069   22.853144 H          1 MOL1         0.0783
      73    O18     20.773127   24.212442   23.577351 O.3        1 MOL1        -0.5519
      74    H35     21.298658   24.132927   24.404849 H          1 MOL1         0.3769
      75    C22     20.930616   23.679773   21.198851 C.3        1 MOL1         0.1018
      76    H36     20.885533   24.769358   21.070537 H          1 MOL1         0.0783
      77    C23     21.825950   23.051524   20.090652 C.3        1 MOL1         0.1043
      78    H37     21.655153   21.967909   20.085914 H          1 MOL1         0.0783
      79    O19     23.229946   23.300998   20.360467 O.3        1 MOL1        -0.3740
      80    C24     21.500010   23.572205   18.670258 C.3        1 MOL1         0.0138
      81    H38     20.525209   23.167558   18.366076 H          1 MOL1         0.0794
      82    H39     22.249478   23.176993   17.971584 H          1 MOL1         0.0794
      83    O20     21.470568   25.004114   18.612490 O.3        1 MOL1        -0.5486
      84    H40     21.321624   25.261105   17.676377 H          1 MOL1         0.3769
      85    C25     24.650203   17.570190   22.325110 C.3        1 MOL1         0.2972
      86    H41     25.193887   16.639104   22.530589 H          1 MOL1         0.0751
      87    O21     23.341664   17.296227   21.778498 O.3        1 MOL1        -0.3740
      88    C26     24.506326   18.384273   23.634739 C.3        1 MOL1         0.1003
      89    H42     25.520057   18.602076   23.995266 H          1 MOL1         0.0783
      90    O22     23.798981   17.636723   24.637946 O.3        1 MOL1        -0.5519
      91    H43     22.912188   17.411596   24.268918 H          1 MOL1         0.3769
      92    C27     23.790857   19.726763   23.379907 C.3        1 MOL1         0.1053
      93    H44     22.757098   19.492531   23.119046 H          1 MOL1         0.0783
      94    O23     23.815570   20.507894   24.576578 O.3        1 MOL1        -0.5519
      95    H45     23.582403   19.879258   25.296238 H          1 MOL1         0.3769
      96    C28     24.407331   20.522716   22.202676 C.3        1 MOL1         0.1018
      97    H46     25.308458   21.039845   22.556023 H          1 MOL1         0.0783
      98    C29     24.737716   19.625122   20.977142 C.3        1 MOL1         0.1043
      99    H47     23.785409   19.391411   20.490735 H          1 MOL1         0.0783
     100    O24     25.373931   18.382311   21.374385 O.3        1 MOL1        -0.3740
     101    C30     25.629089   20.322373   19.920425 C.3        1 MOL1         0.0138
     102    H48     25.071993   21.163998   19.486430 H          1 MOL1         0.0794
     103    H49     25.824398   19.612336   19.106034 H          1 MOL1         0.0794
     104    O25     26.869933   20.784759   20.468914 O.3        1 MOL1        -0.5486
     105    H50     26.687874   21.575478   21.017344 H          1 MOL1         0.3769
     106    C31     21.192580   14.290474   19.929057 C.3        1 MOL1         0.2972
     107    H51     20.789224   13.472247   19.318685 H          1 MOL1         0.0751
     108    O26     20.145084   15.014876   20.606801 O.3        1 MOL1        -0.3740
     109    C32     22.221505   13.770669   20.965580 C.3        1 MOL1         0.1003
     110    H52     23.061570   13.348624   20.398619 H          1 MOL1         0.0783
     111    O27     21.668474   12.743943   21.802263 O.3        1 MOL1        -0.5519
     112    H53     20.926457   13.156042   22.313036 H          1 MOL1         0.3769
     113    C33     22.768327   14.939002   21.822824 C.3        1 MOL1         0.1053
     114    H54     21.950333   15.302997   22.458378 H          1 MOL1         0.0783
     115    O28     23.835521   14.448674   22.639850 O.3        1 MOL1        -0.5519
     116    H55     23.487374   13.631335   23.059091 H          1 MOL1         0.3769
     117    C34     23.271837   16.118840   20.942390 C.3        1 MOL1         0.1018
     118    H56     24.258374   15.846409   20.545733 H          1 MOL1         0.0783
     119    C35     22.324453   16.452016   19.751498 C.3        1 MOL1         0.1043
     120    H57     21.443131   16.964839   20.150781 H          1 MOL1         0.0783
     121    O29     21.901598   15.231360   19.094774 O.3        1 MOL1        -0.3740
     122    C36     22.931356   17.397101   18.681645 C.3        1 MOL1         0.0138
     123    H58     22.700972   18.432339   18.960197 H          1 MOL1         0.0794
     124    H59     22.422488   17.213844   17.725806 H          1 MOL1         0.0794
     125    O30     24.346972   17.239171   18.518427 O.3        1 MOL1        -0.5486
     126    H60     24.776799   17.501225   19.364054 H          1 MOL1         0.3769
     127    C1      20.392249   19.586651   21.599137 C.3        1 MOL1        -0.1693
     128    H1      20.158190   20.395478   20.903905 H          1 MOL1         0.0829
     129    H2      21.420815   19.265706   21.404270 H          1 MOL1         0.0829
     130    C2      19.348735   18.426776   21.696602 C.3        1 MOL1        -0.1768
     131    H3      18.313120   18.748176   21.558273 H          1 MOL1         0.0829
     132    H4      19.522763   17.549530   21.069157 H          1 MOL1         0.0829
     133    C3      19.777784   18.306485   23.192537 C.3        1 MOL1         0.1211
     134    H5      18.978765   18.009977   23.883738 H          1 MOL1         0.0786
     135    C4      20.029131   19.842750   23.102619 C.3        1 MOL1        -0.1768
     136    H6      19.130406   20.452617   23.253803 H          1 MOL1         0.0829
     137    H7      20.818615   20.236200   23.749661 H          1 MOL1         0.0829
     138    O1      20.932453   17.523928   23.422274 O.3        1 MOL1        -0.5515
     139    H8      21.478645   17.591392   22.611320 H          1 MOL1         0.3773
@<TRIPOS>BOND
    1     1     2    1
    2     1     3    1
    3     1     4    1
    4     4     5    1
    5     4     6    1
    6     6     7    1
    7     4     8    1
    8     8     9    1
    9     8    10    1
   10    10    11    1
   11     8    12    1
   12    12    13    1
   13    12    14    1
   14    14    15    1
   15     1    16    1
   16    14    16    1
   17    14    17    1
   18    17    18    1
   19    17    19    1
   20    17    20    1
   21    20    21    1
   22    22    23    1
   23    22    24    1
   24    22    25    1
   25    25    26    1
   26    25    27    1
   27    27    28    1
   28    25    29    1
   29    29    30    1
   30    29    31    1
   31    31    32    1
   32     3    33    1
   33    29    33    1
   34    33    34    1
   35    33    35    1
   36    35    36    1
   37    22    37    1
   38    35    37    1
   39    35    38    1
   40    38    39    1
   41    38    40    1
   42    38    41    1
   43    41    42    1
   44    43    44    1
   45    43    45    1
   46    43    46    1
   47    46    47    1
   48    46    48    1
   49    48    49    1
   50    46    50    1
   51    50    51    1
   52    50    52    1
   53    52    53    1
   54    24    54    1
   55    50    54    1
   56    54    55    1
   57    54    56    1
   58    56    57    1
   59    43    58    1
   60    56    58    1
   61    56    59    1
   62    59    60    1
   63    59    61    1
   64    59    62    1
   65    62    63    1
   66    64    65    1
   67    64    66    1
   68    64    67    1
   69    67    68    1
   70    67    69    1
   71    69    70    1
   72    67    71    1
   73    71    72    1
   74    71    73    1
   75    73    74    1
   76    45    75    1
   77    71    75    1
   78    75    76    1
   79    75    77    1
   80    77    78    1
   81    64    79    1
   82    77    79    1
   83    77    80    1
   84    80    81    1
   85    80    82    1
   86    80    83    1
   87    83    84    1
   88    85    86    1
   89    85    87    1
   90    85    88    1
   91    88    89    1
   92    88    90    1
   93    90    91    1
   94    88    92    1
   95    92    93    1
   96    92    94    1
   97    94    95    1
   98    66    96    1
   99    92    96    1
  100    96    97    1
  101    96    98    1
  102    98    99    1
  103    85   100    1
  104    98   100    1
  105    98   101    1
  106   101   102    1
  107   101   103    1
  108   101   104    1
  109   104   105    1
  110   106   107    1
  111    12   108    1
  112   106   108    1
  113   106   109    1
  114   109   110    1
  115   109   111    1
  116   111   112    1
  117   109   113    1
  118   113   114    1
  119   113   115    1
  120   115   116    1
  121    87   117    1
  122   113   117    1
  123   117   118    1
  124   117   119    1
  125   119   120    1
  126   106   121    1
  127   119   121    1
  128   119   122    1
  129   122   123    1
  130   122   124    1
  131   122   125    1
  132   125   126    1
  133   127   128    1
  134   127   129    1
  135   127   130    1
  136   130   131    1
  137   130   132    1
  138   130   133    1
  139   133   134    1
  140   127   135    1
  141   133   135    1
  142   135   136    1
  143   135   137    1
  144   133   138    1
  145   138   139    1
@<TRIPOS>SUBSTRUCTURE
       1 MOL1            1 RESIDUE      1      MOL     
       2 MOL1          139 RESIDUE      1      MOL     
@<SCITEGIC>MOL_PROPERTY
feprocess Rank
SciTegic.value.IntegerValue
163

@<SCITEGIC>MOL_PROPERTY
Conf_Id
SciTegic.value.IntegerValue
775

@<SCITEGIC>MOL_PROPERTY
Probability
SciTegic.value.DoubleValue
0.00

@<SCITEGIC>MOL_PROPERTY
G
SciTegic.value.DoubleValue
550.046

@<SCITEGIC>MOL_PROPERTY
E
SciTegic.value.DoubleValue
371.202

@<SCITEGIC>MOL_PROPERTY
-TS
SciTegic.value.DoubleValue
178.844

@<SCITEGIC>MOL_PROPERTY
U+W
SciTegic.value.DoubleValue
248.691

@<SCITEGIC>MOL_PROPERTY
U
SciTegic.value.DoubleValue
287.433

@<SCITEGIC>MOL_PROPERTY
W
SciTegic.value.DoubleValue
-38.742

@<SCITEGIC>MOL_PROPERTY
W(PB)
SciTegic.value.DoubleValue
-44.691

@<SCITEGIC>MOL_PROPERTY
W(SA)
SciTegic.value.DoubleValue
5.949

@<SCITEGIC>MOL_PROPERTY
Valence
SciTegic.value.DoubleValue
154.527

@<SCITEGIC>MOL_PROPERTY
Coulomb
SciTegic.value.DoubleValue
154.671

@<SCITEGIC>MOL_PROPERTY
VdW
SciTegic.value.DoubleValue
-21.765

@<SCITEGIC>MOL_PROPERTY
VdW6
SciTegic.value.DoubleValue
-171.723

@<SCITEGIC>MOL_PROPERTY
VdW12
SciTegic.value.DoubleValue
149.958

@<SCITEGIC>MOL_PROPERTY
Bond
SciTegic.value.DoubleValue
4.743

@<SCITEGIC>MOL_PROPERTY
Angle
SciTegic.value.DoubleValue
13.078

@<SCITEGIC>MOL_PROPERTY
Pdih
SciTegic.value.DoubleValue
136.706

@<SCITEGIC>MOL_PROPERTY
Idih
SciTegic.value.DoubleValue
0.000

@<SCITEGIC>MOL_PROPERTY
Tether
SciTegic.value.DoubleValue
0.000

@<TRIPOS>MOLECULE
CD_guest-s16_fast_vm2_rndm.mol2 : feprocess host+ligand conformer 164
         139         145           2
SMALL
USER_CHARGES
 
@<TRIPOS>ATOM
       1    C1      16.420606   15.399969   20.216355 C.3        1 MOL1         0.2972
       2    H1      15.456982   15.366395   19.691990 H          1 MOL1         0.0751
       3    O1      16.642470   16.679634   20.841348 O.3        1 MOL1        -0.3740
       4    C2      16.518288   14.282608   21.287824 C.3        1 MOL1         0.1003
       5    H2      16.441849   13.321755   20.762429 H          1 MOL1         0.0783
       6    O2      15.455899   14.375531   22.249160 O.3        1 MOL1        -0.5519
       7    H3      15.532810   15.263370   22.682762 H          1 MOL1         0.3769
       8    C3      17.892908   14.330988   21.997799 C.3        1 MOL1         0.1053
       9    H4      17.922314   15.250282   22.596297 H          1 MOL1         0.0783
      10    O3      18.025558   13.195447   22.857555 O.3        1 MOL1        -0.5519
      11    H5      17.179115   13.145664   23.354275 H          1 MOL1         0.3769
      12    C4      19.067941   14.359494   20.982153 C.3        1 MOL1         0.1018
      13    H6      19.175936   13.350016   20.564032 H          1 MOL1         0.0783
      14    C5      18.835825   15.367304   19.815564 C.3        1 MOL1         0.1043
      15    H7      18.931866   16.386192   20.212529 H          1 MOL1         0.0783
      16    O4      17.500189   15.184129   19.284543 O.3        1 MOL1        -0.3740
      17    C6      19.828614   15.251518   18.628470 C.3        1 MOL1         0.0138
      18    H8      20.664372   15.939586   18.796888 H          1 MOL1         0.0794
      19    H9      19.322456   15.600964   17.718557 H          1 MOL1         0.0794
      20    O5      20.324788   13.922984   18.425723 O.3        1 MOL1        -0.5486
      21    H10     20.959903   13.732795   19.155529 H          1 MOL1         0.3769
      22    C7      14.861362   20.267253   21.822387 C.3        1 MOL1         0.2972
      23    H11     14.177858   21.090590   22.068185 H          1 MOL1         0.0751
      24    O6      16.218270   20.733416   21.695845 O.3        1 MOL1        -0.3740
      25    C8      14.816056   19.199228   22.941263 C.3        1 MOL1         0.1003
      26    H12     13.786296   18.823150   22.998603 H          1 MOL1         0.0783
      27    O7      15.178800   19.785168   24.200928 O.3        1 MOL1        -0.5519
      28    H13     15.714829   20.584029   23.989293 H          1 MOL1         0.3769
      29    C9      15.743036   18.006434   22.611236 C.3        1 MOL1         0.1053
      30    H14     16.782728   18.356693   22.656242 H          1 MOL1         0.0783
      31    O8      15.540965   16.972069   23.579966 O.3        1 MOL1        -0.5519
      32    H15     15.626125   17.422028   24.449777 H          1 MOL1         0.3769
      33    C10     15.479347   17.454376   21.188277 C.3        1 MOL1         0.1018
      34    H16     14.565678   16.845392   21.207605 H          1 MOL1         0.0783
      35    C11     15.356088   18.576601   20.118934 C.3        1 MOL1         0.1043
      36    H17     16.361296   18.982169   19.957851 H          1 MOL1         0.0783
      37    O9      14.485012   19.642720   20.577398 O.3        1 MOL1        -0.3740
      38    C12     14.838990   18.077146   18.748534 C.3        1 MOL1         0.0138
      39    H18     15.624900   17.470325   18.278849 H          1 MOL1         0.0794
      40    H19     14.667674   18.946080   18.098940 H          1 MOL1         0.0794
      41    O10     13.638740   17.304923   18.874659 O.3        1 MOL1        -0.5486
      42    H20     13.321479   17.096423   17.968851 H          1 MOL1         0.3769
      43    C13     18.400285   24.234970   21.204872 C.3        1 MOL1         0.2972
      44    H21     18.750052   25.246406   20.962391 H          1 MOL1         0.0751
      45    O11     19.462854   23.416947   21.730281 O.3        1 MOL1        -0.3740
      46    C14     17.302469   24.301330   22.295585 C.3        1 MOL1         0.1003
      47    H22     16.476422   24.908078   21.902382 H          1 MOL1         0.0783
      48    O12     17.826981   24.914989   23.483916 O.3        1 MOL1        -0.5519
      49    H23     18.753833   24.586949   23.583720 H          1 MOL1         0.3769
      50    C15     16.754378   22.889595   22.620421 C.3        1 MOL1         0.1053
      51    H24     17.547415   22.328592   23.128714 H          1 MOL1         0.0783
      52    O13     15.623469   23.001773   23.489318 O.3        1 MOL1        -0.5519
      53    H25     15.895118   23.640274   24.185596 H          1 MOL1         0.3769
      54    C16     16.363905   22.119362   21.333377 C.3        1 MOL1         0.1018
      55    H26     15.429570   22.542755   20.941744 H          1 MOL1         0.0783
      56    C17     17.458483   22.201530   20.233438 C.3        1 MOL1         0.1043
      57    H27     18.329997   21.629370   20.574700 H          1 MOL1         0.0783
      58    O14     17.843199   23.585964   20.041444 O.3        1 MOL1        -0.3740
      59    C18     17.041529   21.606826   18.862112 C.3        1 MOL1         0.0138
      60    H28     17.334473   20.550178   18.838487 H          1 MOL1         0.0794
      61    H29     17.615979   22.108796   18.072345 H          1 MOL1         0.0794
      62    O15     15.638668   21.723733   18.592924 O.3        1 MOL1        -0.5486
      63    H30     15.166060   21.133468   19.224969 H          1 MOL1         0.3769
      64    C19     23.582312   22.799578   21.424315 C.3        1 MOL1         0.2972
      65    H31     24.658830   22.942748   21.265293 H          1 MOL1         0.0751
      66    O16     23.275219   21.430123   21.752313 O.3        1 MOL1        -0.3740
      67    C20     23.109208   23.695234   22.595249 C.3        1 MOL1         0.1003
      68    H32     23.350025   24.734260   22.335373 H          1 MOL1         0.0783
      69    O17     23.796656   23.335912   23.804592 O.3        1 MOL1        -0.5519
      70    H33     24.066391   22.389547   23.708298 H          1 MOL1         0.3769
      71    C21     21.578380   23.595019   22.792171 C.3        1 MOL1         0.1053
      72    H34     21.348730   22.581558   23.148473 H          1 MOL1         0.0783
      73    O18     21.157273   24.556967   23.765968 O.3        1 MOL1        -0.5519
      74    H35     21.788535   24.456259   24.512671 H          1 MOL1         0.3769
      75    C22     20.817813   23.824714   21.462500 C.3        1 MOL1         0.1018
      76    H36     20.883667   24.889222   21.202017 H          1 MOL1         0.0783
      77    C23     21.404371   22.952149   20.314611 C.3        1 MOL1         0.1043
      78    H37     21.199438   21.902261   20.557711 H          1 MOL1         0.0783
      79    O19     22.838833   23.155133   20.239734 O.3        1 MOL1        -0.3740
      80    C24     20.817513   23.214992   18.904894 C.3        1 MOL1         0.0138
      81    H38     19.907054   22.615782   18.785592 H          1 MOL1         0.0794
      82    H39     21.533501   22.850980   18.155869 H          1 MOL1         0.0794
      83    O20     20.523275   24.595107   18.666584 O.3        1 MOL1        -0.5486
      84    H40     19.577389   24.725473   18.898058 H          1 MOL1         0.3769
      85    C25     24.918062   17.587486   21.271961 C.3        1 MOL1         0.2972
      86    H41     25.589515   16.770821   20.976639 H          1 MOL1         0.0751
      87    O21     23.712045   17.087319   21.878522 O.3        1 MOL1        -0.3740
      88    C26     25.608524   18.505044   22.315285 C.3        1 MOL1         0.1003
      89    H42     26.548770   18.860211   21.873890 H          1 MOL1         0.0783
      90    O22     25.891031   17.767156   23.515789 O.3        1 MOL1        -0.5519
      91    H43     25.086654   17.228043   23.713603 H          1 MOL1         0.3769
      92    C27     24.733928   19.741434   22.645651 C.3        1 MOL1         0.1053
      93    H44     23.847815   19.392460   23.192063 H          1 MOL1         0.0783
      94    O23     25.476056   20.653651   23.462044 O.3        1 MOL1        -0.5519
      95    H45     25.888915   20.098242   24.160164 H          1 MOL1         0.3769
      96    C28     24.259592   20.454740   21.355943 C.3        1 MOL1         0.1018
      97    H46     25.130153   20.919545   20.874404 H          1 MOL1         0.0783
      98    C29     23.608290   19.451142   20.367442 C.3        1 MOL1         0.1043
      99    H47     22.702962   19.042454   20.831985 H          1 MOL1         0.0783
     100    O24     24.551165   18.381662   20.122087 O.3        1 MOL1        -0.3740
     101    C30     23.188365   20.048505   19.000379 C.3        1 MOL1         0.0138
     102    H48     22.178262   20.464291   19.095882 H          1 MOL1         0.0794
     103    H49     23.126372   19.232258   18.268394 H          1 MOL1         0.0794
     104    O25     24.082759   21.062008   18.528345 O.3        1 MOL1        -0.5486
     105    H50     23.852802   21.892122   19.007036 H          1 MOL1         0.3769
     106    C31     21.270356   13.759650   21.843652 C.3        1 MOL1         0.2972
     107    H51     20.835708   12.751487   21.844413 H          1 MOL1         0.0751
     108    O26     20.242846   14.766485   21.719712 O.3        1 MOL1        -0.3740
     109    C32     22.053713   13.982390   23.161000 C.3        1 MOL1         0.1003
     110    H52     22.844698   13.222396   23.205479 H          1 MOL1         0.0783
     111    O27     21.184485   13.827536   24.292513 O.3        1 MOL1        -0.5519
     112    H53     20.311476   14.196637   24.027509 H          1 MOL1         0.3769
     113    C33     22.729127   15.371913   23.187717 C.3        1 MOL1         0.1053
     114    H54     21.938074   16.125152   23.272797 H          1 MOL1         0.0783
     115    O28     23.594844   15.465850   24.324337 O.3        1 MOL1        -0.5519
     116    H55     23.056570   15.148775   25.083019 H          1 MOL1         0.3769
     117    C34     23.539023   15.655300   21.898560 C.3        1 MOL1         0.1018
     118    H56     24.500080   15.129613   21.974494 H          1 MOL1         0.0783
     119    C35     22.791330   15.230559   20.599430 C.3        1 MOL1         0.1043
     120    H57     22.000983   15.969541   20.427768 H          1 MOL1         0.0783
     121    O29     22.190914   13.917243   20.746518 O.3        1 MOL1        -0.3740
     122    C36     23.680036   15.192106   19.331394 C.3        1 MOL1         0.0138
     123    H58     23.885944   16.219597   19.007701 H          1 MOL1         0.0794
     124    H59     23.114929   14.711335   18.521626 H          1 MOL1         0.0794
     125    O30     24.910687   14.493935   19.556177 O.3        1 MOL1        -0.5486
     126    H60     25.383862   14.439668   18.697314 H          1 MOL1         0.3769
     127    C1      19.358156   20.028837   22.925907 C.3        1 MOL1        -0.1693
     128    H1      19.369465   21.117310   22.843428 H          1 MOL1         0.0829
     129    H2      18.496722   19.729481   23.536088 H          1 MOL1         0.0829
     130    C2      20.711424   19.378624   23.353346 C.3        1 MOL1        -0.1768
     131    H3      21.597542   19.928989   23.026669 H          1 MOL1         0.0829
     132    H4      20.817076   19.143507   24.417915 H          1 MOL1         0.0829
     133    C3      20.316809   18.184916   22.434288 C.3        1 MOL1         0.1211
     134    H5      21.156297   17.716153   21.909786 H          1 MOL1         0.0786
     135    C4      19.524955   19.230187   21.591127 C.3        1 MOL1        -0.1768
     136    H6      18.599963   18.868866   21.129926 H          1 MOL1         0.0829
     137    H7      20.124467   19.738857   20.828456 H          1 MOL1         0.0829
     138    O1      19.529826   17.200439   23.067988 O.3        1 MOL1        -0.5515
     139    H8      19.581107   16.389072   22.521059 H          1 MOL1         0.3773
@<TRIPOS>BOND
    1     1     2    1
    2     1     3    1
    3     1     4    1
    4     4     5    1
    5     4     6    1
    6     6     7    1
    7     4     8    1
    8     8     9    1
    9     8    10    1
   10    10    11    1
   11     8    12    1
   12    12    13    1
   13    12    14    1
   14    14    15    1
   15     1    16    1
   16    14    16    1
   17    14    17    1
   18    17    18    1
   19    17    19    1
   20    17    20    1
   21    20    21    1
   22    22    23    1
   23    22    24    1
   24    22    25    1
   25    25    26    1
   26    25    27    1
   27    27    28    1
   28    25    29    1
   29    29    30    1
   30    29    31    1
   31    31    32    1
   32     3    33    1
   33    29    33    1
   34    33    34    1
   35    33    35    1
   36    35    36    1
   37    22    37    1
   38    35    37    1
   39    35    38    1
   40    38    39    1
   41    38    40    1
   42    38    41    1
   43    41    42    1
   44    43    44    1
   45    43    45    1
   46    43    46    1
   47    46    47    1
   48    46    48    1
   49    48    49    1
   50    46    50    1
   51    50    51    1
   52    50    52    1
   53    52    53    1
   54    24    54    1
   55    50    54    1
   56    54    55    1
   57    54    56    1
   58    56    57    1
   59    43    58    1
   60    56    58    1
   61    56    59    1
   62    59    60    1
   63    59    61    1
   64    59    62    1
   65    62    63    1
   66    64    65    1
   67    64    66    1
   68    64    67    1
   69    67    68    1
   70    67    69    1
   71    69    70    1
   72    67    71    1
   73    71    72    1
   74    71    73    1
   75    73    74    1
   76    45    75    1
   77    71    75    1
   78    75    76    1
   79    75    77    1
   80    77    78    1
   81    64    79    1
   82    77    79    1
   83    77    80    1
   84    80    81    1
   85    80    82    1
   86    80    83    1
   87    83    84    1
   88    85    86    1
   89    85    87    1
   90    85    88    1
   91    88    89    1
   92    88    90    1
   93    90    91    1
   94    88    92    1
   95    92    93    1
   96    92    94    1
   97    94    95    1
   98    66    96    1
   99    92    96    1
  100    96    97    1
  101    96    98    1
  102    98    99    1
  103    85   100    1
  104    98   100    1
  105    98   101    1
  106   101   102    1
  107   101   103    1
  108   101   104    1
  109   104   105    1
  110   106   107    1
  111    12   108    1
  112   106   108    1
  113   106   109    1
  114   109   110    1
  115   109   111    1
  116   111   112    1
  117   109   113    1
  118   113   114    1
  119   113   115    1
  120   115   116    1
  121    87   117    1
  122   113   117    1
  123   117   118    1
  124   117   119    1
  125   119   120    1
  126   106   121    1
  127   119   121    1
  128   119   122    1
  129   122   123    1
  130   122   124    1
  131   122   125    1
  132   125   126    1
  133   127   128    1
  134   127   129    1
  135   127   130    1
  136   130   131    1
  137   130   132    1
  138   130   133    1
  139   133   134    1
  140   127   135    1
  141   133   135    1
  142   135   136    1
  143   135   137    1
  144   133   138    1
  145   138   139    1
@<TRIPOS>SUBSTRUCTURE
       1 MOL1            1 RESIDUE      1      MOL     
       2 MOL1          139 RESIDUE      1      MOL     
@<SCITEGIC>MOL_PROPERTY
feprocess Rank
SciTegic.value.IntegerValue
164

@<SCITEGIC>MOL_PROPERTY
Conf_Id
SciTegic.value.IntegerValue
553

@<SCITEGIC>MOL_PROPERTY
Probability
SciTegic.value.DoubleValue
0.00

@<SCITEGIC>MOL_PROPERTY
G
SciTegic.value.DoubleValue
550.069

@<SCITEGIC>MOL_PROPERTY
E
SciTegic.value.DoubleValue
373.310

@<SCITEGIC>MOL_PROPERTY
-TS
SciTegic.value.DoubleValue
176.759

@<SCITEGIC>MOL_PROPERTY
U+W
SciTegic.value.DoubleValue
250.798

@<SCITEGIC>MOL_PROPERTY
U
SciTegic.value.DoubleValue
288.214

@<SCITEGIC>MOL_PROPERTY
W
SciTegic.value.DoubleValue
-37.416

@<SCITEGIC>MOL_PROPERTY
W(PB)
SciTegic.value.DoubleValue
-43.328

@<SCITEGIC>MOL_PROPERTY
W(SA)
SciTegic.value.DoubleValue
5.912

@<SCITEGIC>MOL_PROPERTY
Valence
SciTegic.value.DoubleValue
153.607

@<SCITEGIC>MOL_PROPERTY
Coulomb
SciTegic.value.DoubleValue
158.392

@<SCITEGIC>MOL_PROPERTY
VdW
SciTegic.value.DoubleValue
-23.784

@<SCITEGIC>MOL_PROPERTY
VdW6
SciTegic.value.DoubleValue
-171.021

@<SCITEGIC>MOL_PROPERTY
VdW12
SciTegic.value.DoubleValue
147.236

@<SCITEGIC>MOL_PROPERTY
Bond
SciTegic.value.DoubleValue
4.467

@<SCITEGIC>MOL_PROPERTY
Angle
SciTegic.value.DoubleValue
11.593

@<SCITEGIC>MOL_PROPERTY
Pdih
SciTegic.value.DoubleValue
137.547

@<SCITEGIC>MOL_PROPERTY
Idih
SciTegic.value.DoubleValue
0.000

@<SCITEGIC>MOL_PROPERTY
Tether
SciTegic.value.DoubleValue
0.000

@<TRIPOS>MOLECULE
CD_guest-s16_fast_vm2_rndm.mol2 : feprocess host+ligand conformer 165
         139         145           2
SMALL
USER_CHARGES
 
@<TRIPOS>ATOM
       1    C1      16.178362   15.127738   21.774147 C.3        1 MOL1         0.2972
       2    H1      15.098981   15.055173   21.958746 H          1 MOL1         0.0751
       3    O1      16.538310   16.385714   21.164169 O.3        1 MOL1        -0.3740
       4    C2      16.979593   14.954860   23.090390 C.3        1 MOL1         0.1003
       5    H2      16.800566   13.932492   23.448546 H          1 MOL1         0.0783
       6    O2      16.573445   15.883568   24.106986 O.3        1 MOL1        -0.5519
       7    H3      15.720841   16.285191   23.812272 H          1 MOL1         0.3769
       8    C3      18.489306   15.111299   22.807904 C.3        1 MOL1         0.1053
       9    H4      18.658453   16.134364   22.453681 H          1 MOL1         0.0783
      10    O3      19.217709   14.895642   24.020480 O.3        1 MOL1        -0.5519
      11    H5      18.613796   15.233822   24.723337 H          1 MOL1         0.3769
      12    C4      18.961183   14.144101   21.694815 C.3        1 MOL1         0.1018
      13    H6      19.058496   13.138153   22.124414 H          1 MOL1         0.0783
      14    C5      17.998690   14.118817   20.469287 C.3        1 MOL1         0.1043
      15    H7      18.158865   15.042016   19.897103 H          1 MOL1         0.0783
      16    O4      16.610273   14.069172   20.892703 O.3        1 MOL1        -0.3740
      17    C6      18.261209   12.936809   19.505704 C.3        1 MOL1         0.0138
      18    H8      19.212150   13.115773   18.985763 H          1 MOL1         0.0794
      19    H9      17.470445   12.923744   18.743662 H          1 MOL1         0.0794
      20    O5      18.312360   11.680175   20.192859 O.3        1 MOL1        -0.5486
      21    H10     18.402550   10.973993   19.516018 H          1 MOL1         0.3769
      22    C7      15.035379   20.229981   20.739620 C.3        1 MOL1         0.2972
      23    H11     14.428386   21.112069   20.496869 H          1 MOL1         0.0751
      24    O6      16.334416   20.607233   21.240728 O.3        1 MOL1        -0.3740
      25    C8      14.307241   19.385795   21.811448 C.3        1 MOL1         0.1003
      26    H12     13.337245   19.092053   21.389321 H          1 MOL1         0.0783
      27    O7      14.088081   20.159082   23.002063 O.3        1 MOL1        -0.5519
      28    H13     14.630069   20.981664   22.912575 H          1 MOL1         0.3769
      29    C9      15.091897   18.096010   22.143204 C.3        1 MOL1         0.1053
      30    H14     16.013772   18.389654   22.660124 H          1 MOL1         0.0783
      31    O8      14.284234   17.288838   23.006438 O.3        1 MOL1        -0.5519
      32    H15     13.879306   17.928921   23.636234 H          1 MOL1         0.3769
      33    C10     15.479460   17.314414   20.856580 C.3        1 MOL1         0.1018
      34    H16     14.594750   16.798005   20.463130 H          1 MOL1         0.0783
      35    C11     16.067331   18.243668   19.758722 C.3        1 MOL1         0.1043
      36    H17     17.059296   18.565586   20.097433 H          1 MOL1         0.0783
      37    O9      15.230116   19.411081   19.568553 O.3        1 MOL1        -0.3740
      38    C12     16.264230   17.545309   18.390309 C.3        1 MOL1         0.0138
      39    H18     17.098266   16.835923   18.475615 H          1 MOL1         0.0794
      40    H19     16.558503   18.301753   17.650582 H          1 MOL1         0.0794
      41    O10     15.088018   16.857796   17.947528 O.3        1 MOL1        -0.5486
      42    H20     14.995732   16.047547   18.493106 H          1 MOL1         0.3769
      43    C13     18.624965   24.171894   21.225261 C.3        1 MOL1         0.2972
      44    H21     18.952110   25.173562   20.918311 H          1 MOL1         0.0751
      45    O11     19.507603   23.629317   22.225273 O.3        1 MOL1        -0.3740
      46    C14     17.196247   24.251586   21.832786 C.3        1 MOL1         0.1003
      47    H22     16.553436   24.744064   21.091531 H          1 MOL1         0.0783
      48    O12     17.211626   25.029710   23.038301 O.3        1 MOL1        -0.5519
      49    H23     17.990171   24.714391   23.552208 H          1 MOL1         0.3769
      50    C15     16.603937   22.848339   22.118539 C.3        1 MOL1         0.1053
      51    H24     17.168928   22.396217   22.944139 H          1 MOL1         0.0783
      52    O13     15.225468   22.974994   22.484570 O.3        1 MOL1        -0.5519
      53    H25     15.198089   23.710724   23.136376 H          1 MOL1         0.3769
      54    C16     16.746581   21.938403   20.877376 C.3        1 MOL1         0.1018
      55    H26     16.128122   22.345790   20.066022 H          1 MOL1         0.0783
      56    C17     18.216968   21.901151   20.395946 C.3        1 MOL1         0.1043
      57    H27     18.845076   21.499634   21.201506 H          1 MOL1         0.0783
      58    O14     18.609139   23.261820   20.099410 O.3        1 MOL1        -0.3740
      59    C18     18.460154   21.030722   19.136806 C.3        1 MOL1         0.0138
      60    H28     18.621944   19.993941   19.457059 H          1 MOL1         0.0794
      61    H29     19.388726   21.363959   18.655178 H          1 MOL1         0.0794
      62    O15     17.377140   21.083085   18.199941 O.3        1 MOL1        -0.5486
      63    H30     16.608680   20.620194   18.608027 H          1 MOL1         0.3769
      64    C19     23.559487   22.840543   22.221900 C.3        1 MOL1         0.2972
      65    H31     24.656852   22.839121   22.256808 H          1 MOL1         0.0751
      66    O16     23.038473   21.522220   21.970188 O.3        1 MOL1        -0.3740
      67    C20     23.002050   23.368281   23.560129 C.3        1 MOL1         0.1003
      68    H32     23.370485   24.394613   23.687161 H          1 MOL1         0.0783
      69    O17     23.467645   22.557251   24.651177 O.3        1 MOL1        -0.5519
      70    H33     23.866576   21.744686   24.253649 H          1 MOL1         0.3769
      71    C21     21.458899   23.413824   23.539777 C.3        1 MOL1         0.1053
      72    H34     21.100884   22.377906   23.548069 H          1 MOL1         0.0783
      73    O18     21.002946   24.082151   24.720531 O.3        1 MOL1        -0.5519
      74    H35     21.497595   23.659367   25.457057 H          1 MOL1         0.3769
      75    C22     20.878167   24.105735   22.274883 C.3        1 MOL1         0.1018
      76    H36     20.903552   25.190874   22.436056 H          1 MOL1         0.0783
      77    C23     21.653685   23.749198   20.957600 C.3        1 MOL1         0.1043
      78    H37     21.313256   22.760511   20.630001 H          1 MOL1         0.0783
      79    O19     23.087652   23.708210   21.179222 O.3        1 MOL1        -0.3740
      80    C24     21.454438   24.740227   19.778783 C.3        1 MOL1         0.0138
      81    H38     20.492899   24.553293   19.289230 H          1 MOL1         0.0794
      82    H39     22.226527   24.538260   19.023868 H          1 MOL1         0.0794
      83    O20     21.529617   26.107378   20.199968 O.3        1 MOL1        -0.5486
      84    H40     21.496703   26.669816   19.395378 H          1 MOL1         0.3769
      85    C25     24.604431   17.844711   20.631242 C.3        1 MOL1         0.2972
      86    H41     25.255129   17.122211   20.121799 H          1 MOL1         0.0751
      87    O21     23.435445   17.210125   21.181936 O.3        1 MOL1        -0.3740
      88    C26     25.360245   18.528601   21.803269 C.3        1 MOL1         0.1003
      89    H42     26.260541   18.995909   21.383638 H          1 MOL1         0.0783
      90    O22     25.748927   17.563342   22.794602 O.3        1 MOL1        -0.5519
      91    H43     24.968468   16.974720   22.956267 H          1 MOL1         0.3769
      92    C27     24.500340   19.645479   22.447948 C.3        1 MOL1         0.1053
      93    H44     23.639969   19.173473   22.941470 H          1 MOL1         0.0783
      94    O23     25.282385   20.361271   23.410208 O.3        1 MOL1        -0.5519
      95    H45     25.747098   19.666782   23.928705 H          1 MOL1         0.3769
      96    C28     23.973034   20.612609   21.359999 C.3        1 MOL1         0.1018
      97    H46     24.826111   21.145955   20.919244 H          1 MOL1         0.0783
      98    C29     23.244021   19.839450   20.232100 C.3        1 MOL1         0.1043
      99    H47     22.370060   19.330476   20.658501 H          1 MOL1         0.0783
     100    O24     24.164054   18.858472   19.699227 O.3        1 MOL1        -0.3740
     101    C30     22.737802   20.728004   19.066787 C.3        1 MOL1         0.0138
     102    H48     21.733777   21.089561   19.318843 H          1 MOL1         0.0794
     103    H49     22.632848   20.103397   18.169683 H          1 MOL1         0.0794
     104    O25     23.596494   21.842574   18.792814 O.3        1 MOL1        -0.5486
     105    H50     23.546358   22.451296   19.565993 H          1 MOL1         0.3769
     106    C31     21.286527   13.700772   21.047098 C.3        1 MOL1         0.2972
     107    H51     20.900106   12.679413   20.935419 H          1 MOL1         0.0751
     108    O26     20.221223   14.657619   21.220709 O.3        1 MOL1        -0.3740
     109    C32     22.259801   13.804683   22.249959 C.3        1 MOL1         0.1003
     110    H52     23.114789   13.150679   22.034456 H          1 MOL1         0.0783
     111    O27     21.639652   13.373729   23.471282 O.3        1 MOL1        -0.5519
     112    H53     20.834052   13.932834   23.607190 H          1 MOL1         0.3769
     113    C33     22.790258   15.252346   22.386755 C.3        1 MOL1         0.1053
     114    H54     21.948359   15.896484   22.665954 H          1 MOL1         0.0783
     115    O28     23.797742   15.305837   23.402683 O.3        1 MOL1        -0.5519
     116    H55     23.406776   14.845443   24.177848 H          1 MOL1         0.3769
     117    C34     23.374609   15.776734   21.052002 C.3        1 MOL1         0.1018
     118    H56     24.371079   15.333707   20.923093 H          1 MOL1         0.0783
     119    C35     22.482855   15.452470   19.817861 C.3        1 MOL1         0.1043
     120    H57     21.610472   16.118818   19.842466 H          1 MOL1         0.0783
     121    O29     22.029435   14.076739   19.869732 O.3        1 MOL1        -0.3740
     122    C36     23.190828   15.674816   18.459164 C.3        1 MOL1         0.0138
     123    H58     23.292747   16.754747   18.289195 H          1 MOL1         0.0794
     124    H59     22.546745   15.281401   17.661358 H          1 MOL1         0.0794
     125    O30     24.480164   15.050473   18.410618 O.3        1 MOL1        -0.5486
     126    H60     24.835389   15.171788   17.503003 H          1 MOL1         0.3769
     127    C1      19.333697   20.015772   23.927570 C.3        1 MOL1        -0.1693
     128    H1      18.833904   20.971491   23.737702 H          1 MOL1         0.0829
     129    H2      19.409890   19.868777   25.012532 H          1 MOL1         0.0829
     130    C2      20.664766   19.769899   23.148053 C.3        1 MOL1        -0.1768
     131    H3      20.707764   20.252429   22.165985 H          1 MOL1         0.0829
     132    H4      21.583508   19.997129   23.698419 H          1 MOL1         0.0829
     133    C3      20.261407   18.266512   23.105572 C.3        1 MOL1         0.1211
     134    H5      20.545528   17.744680   22.182909 H          1 MOL1         0.0786
     135    C4      18.788042   18.779056   23.143478 C.3        1 MOL1        -0.1768
     136    H6      18.078993   18.150391   23.691115 H          1 MOL1         0.0829
     137    H7      18.368543   19.011073   22.158667 H          1 MOL1         0.0829
     138    O1      20.661873   17.511795   24.230677 O.3        1 MOL1        -0.5515
     139    H8      20.227965   16.632331   24.167156 H          1 MOL1         0.3773
@<TRIPOS>BOND
    1     1     2    1
    2     1     3    1
    3     1     4    1
    4     4     5    1
    5     4     6    1
    6     6     7    1
    7     4     8    1
    8     8     9    1
    9     8    10    1
   10    10    11    1
   11     8    12    1
   12    12    13    1
   13    12    14    1
   14    14    15    1
   15     1    16    1
   16    14    16    1
   17    14    17    1
   18    17    18    1
   19    17    19    1
   20    17    20    1
   21    20    21    1
   22    22    23    1
   23    22    24    1
   24    22    25    1
   25    25    26    1
   26    25    27    1
   27    27    28    1
   28    25    29    1
   29    29    30    1
   30    29    31    1
   31    31    32    1
   32     3    33    1
   33    29    33    1
   34    33    34    1
   35    33    35    1
   36    35    36    1
   37    22    37    1
   38    35    37    1
   39    35    38    1
   40    38    39    1
   41    38    40    1
   42    38    41    1
   43    41    42    1
   44    43    44    1
   45    43    45    1
   46    43    46    1
   47    46    47    1
   48    46    48    1
   49    48    49    1
   50    46    50    1
   51    50    51    1
   52    50    52    1
   53    52    53    1
   54    24    54    1
   55    50    54    1
   56    54    55    1
   57    54    56    1
   58    56    57    1
   59    43    58    1
   60    56    58    1
   61    56    59    1
   62    59    60    1
   63    59    61    1
   64    59    62    1
   65    62    63    1
   66    64    65    1
   67    64    66    1
   68    64    67    1
   69    67    68    1
   70    67    69    1
   71    69    70    1
   72    67    71    1
   73    71    72    1
   74    71    73    1
   75    73    74    1
   76    45    75    1
   77    71    75    1
   78    75    76    1
   79    75    77    1
   80    77    78    1
   81    64    79    1
   82    77    79    1
   83    77    80    1
   84    80    81    1
   85    80    82    1
   86    80    83    1
   87    83    84    1
   88    85    86    1
   89    85    87    1
   90    85    88    1
   91    88    89    1
   92    88    90    1
   93    90    91    1
   94    88    92    1
   95    92    93    1
   96    92    94    1
   97    94    95    1
   98    66    96    1
   99    92    96    1
  100    96    97    1
  101    96    98    1
  102    98    99    1
  103    85   100    1
  104    98   100    1
  105    98   101    1
  106   101   102    1
  107   101   103    1
  108   101   104    1
  109   104   105    1
  110   106   107    1
  111    12   108    1
  112   106   108    1
  113   106   109    1
  114   109   110    1
  115   109   111    1
  116   111   112    1
  117   109   113    1
  118   113   114    1
  119   113   115    1
  120   115   116    1
  121    87   117    1
  122   113   117    1
  123   117   118    1
  124   117   119    1
  125   119   120    1
  126   106   121    1
  127   119   121    1
  128   119   122    1
  129   122   123    1
  130   122   124    1
  131   122   125    1
  132   125   126    1
  133   127   128    1
  134   127   129    1
  135   127   130    1
  136   130   131    1
  137   130   132    1
  138   130   133    1
  139   133   134    1
  140   127   135    1
  141   133   135    1
  142   135   136    1
  143   135   137    1
  144   133   138    1
  145   138   139    1
@<TRIPOS>SUBSTRUCTURE
       1 MOL1            1 RESIDUE      1      MOL     
       2 MOL1          139 RESIDUE      1      MOL     
@<SCITEGIC>MOL_PROPERTY
feprocess Rank
SciTegic.value.IntegerValue
165

@<SCITEGIC>MOL_PROPERTY
Conf_Id
SciTegic.value.IntegerValue
733

@<SCITEGIC>MOL_PROPERTY
Probability
SciTegic.value.DoubleValue
0.00

@<SCITEGIC>MOL_PROPERTY
G
SciTegic.value.DoubleValue
550.095

@<SCITEGIC>MOL_PROPERTY
E
SciTegic.value.DoubleValue
371.390

@<SCITEGIC>MOL_PROPERTY
-TS
SciTegic.value.DoubleValue
178.704

@<SCITEGIC>MOL_PROPERTY
U+W
SciTegic.value.DoubleValue
248.879

@<SCITEGIC>MOL_PROPERTY
U
SciTegic.value.DoubleValue
286.612

@<SCITEGIC>MOL_PROPERTY
W
SciTegic.value.DoubleValue
-37.733

@<SCITEGIC>MOL_PROPERTY
W(PB)
SciTegic.value.DoubleValue
-43.726

@<SCITEGIC>MOL_PROPERTY
W(SA)
SciTegic.value.DoubleValue
5.993

@<SCITEGIC>MOL_PROPERTY
Valence
SciTegic.value.DoubleValue
152.070

@<SCITEGIC>MOL_PROPERTY
Coulomb
SciTegic.value.DoubleValue
154.153

@<SCITEGIC>MOL_PROPERTY
VdW
SciTegic.value.DoubleValue
-19.611

@<SCITEGIC>MOL_PROPERTY
VdW6
SciTegic.value.DoubleValue
-167.277

@<SCITEGIC>MOL_PROPERTY
VdW12
SciTegic.value.DoubleValue
147.666

@<SCITEGIC>MOL_PROPERTY
Bond
SciTegic.value.DoubleValue
4.776

@<SCITEGIC>MOL_PROPERTY
Angle
SciTegic.value.DoubleValue
12.649

@<SCITEGIC>MOL_PROPERTY
Pdih
SciTegic.value.DoubleValue
134.645

@<SCITEGIC>MOL_PROPERTY
Idih
SciTegic.value.DoubleValue
0.000

@<SCITEGIC>MOL_PROPERTY
Tether
SciTegic.value.DoubleValue
0.000

@<TRIPOS>MOLECULE
CD_guest-s16_fast_vm2_rndm.mol2 : feprocess host+ligand conformer 166
         139         145           2
SMALL
USER_CHARGES
 
@<TRIPOS>ATOM
       1    C1      16.215830   15.161620   21.966925 C.3        1 MOL1         0.2972
       2    H1      15.170416   14.996877   22.258452 H          1 MOL1         0.0751
       3    O1      16.493408   16.556871   21.744327 O.3        1 MOL1        -0.3740
       4    C2      17.159741   14.656155   23.082708 C.3        1 MOL1         0.1003
       5    H2      16.987720   13.578107   23.198696 H          1 MOL1         0.0783
       6    O2      16.875694   15.320093   24.325394 O.3        1 MOL1        -0.5519
       7    H3      16.311893   16.104462   24.113829 H          1 MOL1         0.3769
       8    C3      18.639185   14.866852   22.686827 C.3        1 MOL1         0.1053
       9    H4      18.830773   15.945460   22.663241 H          1 MOL1         0.0783
      10    O3      19.477898   14.258494   23.672739 O.3        1 MOL1        -0.5519
      11    H5      19.096871   14.542217   24.534209 H          1 MOL1         0.3769
      12    C4      18.953763   14.294863   21.280002 C.3        1 MOL1         0.1018
      13    H6      19.066777   13.205271   21.356653 H          1 MOL1         0.0783
      14    C5      17.865036   14.653103   20.225281 C.3        1 MOL1         0.1043
      15    H7      17.983640   15.714456   19.974387 H          1 MOL1         0.0783
      16    O4      16.529319   14.444796   20.754934 O.3        1 MOL1        -0.3740
      17    C6      17.998595   13.857917   18.904845 C.3        1 MOL1         0.0138
      18    H8      18.891580   14.213053   18.372839 H          1 MOL1         0.0794
      19    H9      17.130398   14.082429   18.270640 H          1 MOL1         0.0794
      20    O5      18.098130   12.446829   19.132700 O.3        1 MOL1        -0.5486
      21    H10     18.097270   12.002399   18.256824 H          1 MOL1         0.3769
      22    C7      14.679676   20.261954   21.328716 C.3        1 MOL1         0.2972
      23    H11     13.977172   21.089403   21.165376 H          1 MOL1         0.0751
      24    O6      16.027939   20.746158   21.517445 O.3        1 MOL1        -0.3740
      25    C8      14.272831   19.477455   22.602147 C.3        1 MOL1         0.1003
      26    H12     13.256116   19.093966   22.445866 H          1 MOL1         0.0783
      27    O7      14.283785   20.346674   23.745090 O.3        1 MOL1        -0.5519
      28    H13     14.970730   21.033588   23.572377 H          1 MOL1         0.3769
      29    C9      15.210910   18.268809   22.834874 C.3        1 MOL1         0.1053
      30    H14     16.200833   18.659496   23.094856 H          1 MOL1         0.0783
      31    O8      14.719336   17.469297   23.914566 O.3        1 MOL1        -0.5519
      32    H15     14.475246   18.112359   24.617670 H          1 MOL1         0.3769
      33    C10     15.347444   17.405981   21.556578 C.3        1 MOL1         0.1018
      34    H16     14.421551   16.833485   21.413445 H          1 MOL1         0.0783
      35    C11     15.623209   18.260747   20.291646 C.3        1 MOL1         0.1043
      36    H17     16.625752   18.683601   20.395895 H          1 MOL1         0.0783
      37    O9      14.666970   19.347146   20.209397 O.3        1 MOL1        -0.3740
      38    C12     15.612647   17.464212   18.960059 C.3        1 MOL1         0.0138
      39    H18     16.629891   17.101111   18.765916 H          1 MOL1         0.0794
      40    H19     15.359094   18.150687   18.141145 H          1 MOL1         0.0794
      41    O10     14.707064   16.354379   18.969106 O.3        1 MOL1        -0.5486
      42    H20     15.115589   15.650873   19.524395 H          1 MOL1         0.3769
      43    C13     18.601749   23.870113   20.497717 C.3        1 MOL1         0.2972
      44    H21     19.062682   24.775089   20.081611 H          1 MOL1         0.0751
      45    O11     19.579439   23.018547   21.130026 O.3        1 MOL1        -0.3740
      46    C14     17.500634   24.229058   21.530913 C.3        1 MOL1         0.1003
      47    H22     16.743524   24.825077   21.005057 H          1 MOL1         0.0783
      48    O12     18.034195   25.002081   22.617295 O.3        1 MOL1        -0.5519
      49    H23     18.784252   24.483005   23.005555 H          1 MOL1         0.3769
      50    C15     16.811524   22.949685   22.067331 C.3        1 MOL1         0.1053
      51    H24     17.549525   22.409539   22.673005 H          1 MOL1         0.0783
      52    O13     15.692694   23.310178   22.884047 O.3        1 MOL1        -0.5519
      53    H25     16.026093   24.016872   23.480126 H          1 MOL1         0.3769
      54    C16     16.339872   22.022364   20.915236 C.3        1 MOL1         0.1018
      55    H26     15.459363   22.481495   20.446942 H          1 MOL1         0.0783
      56    C17     17.445861   21.817830   19.838256 C.3        1 MOL1         0.1043
      57    H27     18.253476   21.224577   20.283111 H          1 MOL1         0.0783
      58    O14     17.971172   23.109030   19.446190 O.3        1 MOL1        -0.3740
      59    C18     16.995081   21.079606   18.550917 C.3        1 MOL1         0.0138
      60    H28     17.151893   20.003827   18.688033 H          1 MOL1         0.0794
      61    H29     17.652370   21.387194   17.726609 H          1 MOL1         0.0794
      62    O15     15.628580   21.326983   18.201957 O.3        1 MOL1        -0.5486
      63    H30     15.076723   20.752312   18.781752 H          1 MOL1         0.3769
      64    C19     23.594560   22.788776   22.123137 C.3        1 MOL1         0.2972
      65    H31     24.645220   22.986683   22.369228 H          1 MOL1         0.0751
      66    O16     23.339037   21.380143   21.954663 O.3        1 MOL1        -0.3740
      67    C20     22.675089   23.326065   23.248922 C.3        1 MOL1         0.1003
      68    H32     22.836363   24.410201   23.310688 H          1 MOL1         0.0783
      69    O17     23.006048   22.733274   24.514525 O.3        1 MOL1        -0.5519
      70    H33     23.325374   21.813097   24.336005 H          1 MOL1         0.3769
      71    C21     21.183243   23.092231   22.910530 C.3        1 MOL1         0.1053
      72    H34     20.988744   22.011773   22.936452 H          1 MOL1         0.0783
      73    O18     20.372067   23.751707   23.888782 O.3        1 MOL1        -0.5519
      74    H35     20.742019   23.468169   24.754348 H          1 MOL1         0.3769
      75    C22     20.834257   23.624242   21.497220 C.3        1 MOL1         0.1018
      76    H36     20.760076   24.718717   21.548534 H          1 MOL1         0.0783
      77    C23     21.881800   23.211467   20.421902 C.3        1 MOL1         0.1043
      78    H37     21.764390   22.137615   20.226973 H          1 MOL1         0.0783
      79    O19     23.228568   23.460340   20.900487 O.3        1 MOL1        -0.3740
      80    C24     21.703873   23.942778   19.069593 C.3        1 MOL1         0.0138
      81    H38     20.798917   23.557002   18.580921 H          1 MOL1         0.0794
      82    H39     22.555101   23.693041   18.422192 H          1 MOL1         0.0794
      83    O20     21.601156   25.363173   19.231327 O.3        1 MOL1        -0.5486
      84    H40     21.575081   25.763994   18.335100 H          1 MOL1         0.3769
      85    C25     25.028902   17.622922   21.649353 C.3        1 MOL1         0.2972
      86    H41     25.682873   16.743783   21.582965 H          1 MOL1         0.0751
      87    O21     23.645073   17.274262   21.453746 O.3        1 MOL1        -0.3740
      88    C26     25.165531   18.278567   23.044097 C.3        1 MOL1         0.1003
      89    H42     26.205700   18.611991   23.153752 H          1 MOL1         0.0783
      90    O22     24.857769   17.335584   24.083524 O.3        1 MOL1        -0.5519
      91    H43     24.364785   16.589453   23.660376 H          1 MOL1         0.3769
      92    C27     24.249460   19.518680   23.150778 C.3        1 MOL1         0.1053
      93    H44     23.208983   19.174015   23.110187 H          1 MOL1         0.0783
      94    O23     24.488797   20.178411   24.396806 O.3        1 MOL1        -0.5519
      95    H45     24.523623   19.453343   25.060776 H          1 MOL1         0.3769
      96    C28     24.481186   20.499981   21.974844 C.3        1 MOL1         0.1018
      97    H46     25.421002   21.038446   22.150927 H          1 MOL1         0.0783
      98    C29     24.539814   19.784201   20.593601 C.3        1 MOL1         0.1043
      99    H47     23.523854   19.472178   20.333818 H          1 MOL1         0.0783
     100    O24     25.387580   18.606495   20.654123 O.3        1 MOL1        -0.3740
     101    C30     25.029982   20.691392   19.438833 C.3        1 MOL1         0.0138
     102    H48     24.246338   21.426970   19.212388 H          1 MOL1         0.0794
     103    H49     25.159817   20.071013   18.542050 H          1 MOL1         0.0794
     104    O25     26.254605   21.367208   19.748036 O.3        1 MOL1        -0.5486
     105    H50     26.027225   22.171698   20.260822 H          1 MOL1         0.3769
     106    C31     21.202070   14.114413   20.269519 C.3        1 MOL1         0.2972
     107    H51     20.783778   13.207944   19.813273 H          1 MOL1         0.0751
     108    O26     20.169916   14.939495   20.850023 O.3        1 MOL1        -0.3740
     109    C32     22.251467   13.765727   21.361500 C.3        1 MOL1         0.1003
     110    H52     23.064984   13.222219   20.863539 H          1 MOL1         0.0783
     111    O27     21.700100   12.928792   22.388786 O.3        1 MOL1        -0.5519
     112    H53     20.950141   13.427406   22.801298 H          1 MOL1         0.3769
     113    C33     22.849680   15.058077   21.972373 C.3        1 MOL1         0.1053
     114    H54     22.049849   15.587877   22.507677 H          1 MOL1         0.0783
     115    O28     23.901209   14.720644   22.882606 O.3        1 MOL1        -0.5519
     116    H55     23.557621   13.958444   23.400619 H          1 MOL1         0.3769
     117    C34     23.391775   15.989269   20.859407 C.3        1 MOL1         0.1018
     118    H56     24.302535   15.542749   20.439123 H          1 MOL1         0.0783
     119    C35     22.358636   16.199865   19.719684 C.3        1 MOL1         0.1043
     120    H57     21.514385   16.770051   20.122652 H          1 MOL1         0.0783
     121    O29     21.879928   14.908344   19.267083 O.3        1 MOL1        -0.3740
     122    C36     22.896125   17.004089   18.506724 C.3        1 MOL1         0.0138
     123    H58     22.704792   18.069622   18.687190 H          1 MOL1         0.0794
     124    H59     22.317609   16.723987   17.616343 H          1 MOL1         0.0794
     125    O30     24.295486   16.807508   18.268274 O.3        1 MOL1        -0.5486
     126    H60     24.781388   17.295068   18.972921 H          1 MOL1         0.3769
     127    C1      20.714260   19.233742   21.532165 C.3        1 MOL1        -0.1693
     128    H1      21.579864   18.854522   20.989044 H          1 MOL1         0.0829
     129    H2      20.703198   20.326754   21.454116 H          1 MOL1         0.0829
     130    C2      20.509234   18.676986   22.979090 C.3        1 MOL1        -0.1768
     131    H3      20.854836   17.646870   23.125333 H          1 MOL1         0.0829
     132    H4      20.896849   19.298666   23.793508 H          1 MOL1         0.0829
     133    C3      18.981987   18.810630   22.700532 C.3        1 MOL1         0.1211
     134    H5      18.363801   18.036456   23.169743 H          1 MOL1         0.0786
     135    C4      19.350490   18.550960   21.205892 C.3        1 MOL1        -0.1768
     136    H6      18.745234   19.057328   20.452683 H          1 MOL1         0.0829
     137    H7      19.421717   17.492047   20.939066 H          1 MOL1         0.0829
     138    O1      18.449594   20.086826   22.980017 O.3        1 MOL1        -0.5515
     139    H8      17.608243   20.180287   22.485988 H          1 MOL1         0.3773
@<TRIPOS>BOND
    1     1     2    1
    2     1     3    1
    3     1     4    1
    4     4     5    1
    5     4     6    1
    6     6     7    1
    7     4     8    1
    8     8     9    1
    9     8    10    1
   10    10    11    1
   11     8    12    1
   12    12    13    1
   13    12    14    1
   14    14    15    1
   15     1    16    1
   16    14    16    1
   17    14    17    1
   18    17    18    1
   19    17    19    1
   20    17    20    1
   21    20    21    1
   22    22    23    1
   23    22    24    1
   24    22    25    1
   25    25    26    1
   26    25    27    1
   27    27    28    1
   28    25    29    1
   29    29    30    1
   30    29    31    1
   31    31    32    1
   32     3    33    1
   33    29    33    1
   34    33    34    1
   35    33    35    1
   36    35    36    1
   37    22    37    1
   38    35    37    1
   39    35    38    1
   40    38    39    1
   41    38    40    1
   42    38    41    1
   43    41    42    1
   44    43    44    1
   45    43    45    1
   46    43    46    1
   47    46    47    1
   48    46    48    1
   49    48    49    1
   50    46    50    1
   51    50    51    1
   52    50    52    1
   53    52    53    1
   54    24    54    1
   55    50    54    1
   56    54    55    1
   57    54    56    1
   58    56    57    1
   59    43    58    1
   60    56    58    1
   61    56    59    1
   62    59    60    1
   63    59    61    1
   64    59    62    1
   65    62    63    1
   66    64    65    1
   67    64    66    1
   68    64    67    1
   69    67    68    1
   70    67    69    1
   71    69    70    1
   72    67    71    1
   73    71    72    1
   74    71    73    1
   75    73    74    1
   76    45    75    1
   77    71    75    1
   78    75    76    1
   79    75    77    1
   80    77    78    1
   81    64    79    1
   82    77    79    1
   83    77    80    1
   84    80    81    1
   85    80    82    1
   86    80    83    1
   87    83    84    1
   88    85    86    1
   89    85    87    1
   90    85    88    1
   91    88    89    1
   92    88    90    1
   93    90    91    1
   94    88    92    1
   95    92    93    1
   96    92    94    1
   97    94    95    1
   98    66    96    1
   99    92    96    1
  100    96    97    1
  101    96    98    1
  102    98    99    1
  103    85   100    1
  104    98   100    1
  105    98   101    1
  106   101   102    1
  107   101   103    1
  108   101   104    1
  109   104   105    1
  110   106   107    1
  111    12   108    1
  112   106   108    1
  113   106   109    1
  114   109   110    1
  115   109   111    1
  116   111   112    1
  117   109   113    1
  118   113   114    1
  119   113   115    1
  120   115   116    1
  121    87   117    1
  122   113   117    1
  123   117   118    1
  124   117   119    1
  125   119   120    1
  126   106   121    1
  127   119   121    1
  128   119   122    1
  129   122   123    1
  130   122   124    1
  131   122   125    1
  132   125   126    1
  133   127   128    1
  134   127   129    1
  135   127   130    1
  136   130   131    1
  137   130   132    1
  138   130   133    1
  139   133   134    1
  140   127   135    1
  141   133   135    1
  142   135   136    1
  143   135   137    1
  144   133   138    1
  145   138   139    1
@<TRIPOS>SUBSTRUCTURE
       1 MOL1            1 RESIDUE      1      MOL     
       2 MOL1          139 RESIDUE      1      MOL     
@<SCITEGIC>MOL_PROPERTY
feprocess Rank
SciTegic.value.IntegerValue
166

@<SCITEGIC>MOL_PROPERTY
Conf_Id
SciTegic.value.IntegerValue
468

@<SCITEGIC>MOL_PROPERTY
Probability
SciTegic.value.DoubleValue
0.00

@<SCITEGIC>MOL_PROPERTY
G
SciTegic.value.DoubleValue
550.115

@<SCITEGIC>MOL_PROPERTY
E
SciTegic.value.DoubleValue
371.738

@<SCITEGIC>MOL_PROPERTY
-TS
SciTegic.value.DoubleValue
178.377

@<SCITEGIC>MOL_PROPERTY
U+W
SciTegic.value.DoubleValue
249.227

@<SCITEGIC>MOL_PROPERTY
U
SciTegic.value.DoubleValue
286.984

@<SCITEGIC>MOL_PROPERTY
W
SciTegic.value.DoubleValue
-37.757

@<SCITEGIC>MOL_PROPERTY
W(PB)
SciTegic.value.DoubleValue
-43.713

@<SCITEGIC>MOL_PROPERTY
W(SA)
SciTegic.value.DoubleValue
5.956

@<SCITEGIC>MOL_PROPERTY
Valence
SciTegic.value.DoubleValue
155.428

@<SCITEGIC>MOL_PROPERTY
Coulomb
SciTegic.value.DoubleValue
153.727

@<SCITEGIC>MOL_PROPERTY
VdW
SciTegic.value.DoubleValue
-22.172

@<SCITEGIC>MOL_PROPERTY
VdW6
SciTegic.value.DoubleValue
-171.597

@<SCITEGIC>MOL_PROPERTY
VdW12
SciTegic.value.DoubleValue
149.426

@<SCITEGIC>MOL_PROPERTY
Bond
SciTegic.value.DoubleValue
4.739

@<SCITEGIC>MOL_PROPERTY
Angle
SciTegic.value.DoubleValue
11.786

@<SCITEGIC>MOL_PROPERTY
Pdih
SciTegic.value.DoubleValue
138.903

@<SCITEGIC>MOL_PROPERTY
Idih
SciTegic.value.DoubleValue
0.000

@<SCITEGIC>MOL_PROPERTY
Tether
SciTegic.value.DoubleValue
0.000

@<TRIPOS>MOLECULE
CD_guest-s16_fast_vm2_rndm.mol2 : feprocess host+ligand conformer 167
         139         145           2
SMALL
USER_CHARGES
 
@<TRIPOS>ATOM
       1    C1      16.157828   15.083942   21.483813 C.3        1 MOL1         0.2972
       2    H1      15.084520   14.909625   21.333628 H          1 MOL1         0.0751
       3    O1      16.452534   16.489247   21.596228 O.3        1 MOL1        -0.3740
       4    C2      16.622985   14.400260   22.793227 C.3        1 MOL1         0.1003
       5    H2      16.422493   13.325103   22.698866 H          1 MOL1         0.0783
       6    O2      15.892770   14.926804   23.912275 O.3        1 MOL1        -0.5519
       7    H3      15.609005   15.837082   23.656596 H          1 MOL1         0.3769
       8    C3      18.143849   14.590747   23.002533 C.3        1 MOL1         0.1053
       9    H4      18.328278   15.657571   23.185010 H          1 MOL1         0.0783
      10    O3      18.578254   13.829088   24.134118 O.3        1 MOL1        -0.5519
      11    H5      17.914075   14.013229   24.835162 H          1 MOL1         0.3769
      12    C4      18.942557   14.171713   21.744324 C.3        1 MOL1         0.1018
      13    H6      18.931003   13.076656   21.666332 H          1 MOL1         0.0783
      14    C5      18.355787   14.800225   20.448658 C.3        1 MOL1         0.1043
      15    H7      18.527878   15.881439   20.503696 H          1 MOL1         0.0783
      16    O4      16.928551   14.546092   20.387596 O.3        1 MOL1        -0.3740
      17    C6      18.991629   14.307121   19.122376 C.3        1 MOL1         0.0138
      18    H8      19.820023   14.975758   18.860640 H          1 MOL1         0.0794
      19    H9      18.247667   14.404362   18.320377 H          1 MOL1         0.0794
      20    O5      19.465284   12.957561   19.186621 O.3        1 MOL1        -0.5486
      21    H10     20.338077   12.983812   19.643388 H          1 MOL1         0.3769
      22    C7      15.034689   20.255110   20.519696 C.3        1 MOL1         0.2972
      23    H11     14.458676   21.085505   20.091605 H          1 MOL1         0.0751
      24    O6      16.194053   20.726901   21.235119 O.3        1 MOL1        -0.3740
      25    C8      14.146405   19.463385   21.510502 C.3        1 MOL1         0.1003
      26    H12     13.276366   19.092423   20.953281 H          1 MOL1         0.0783
      27    O7      13.700967   20.319973   22.574364 O.3        1 MOL1        -0.5519
      28    H13     14.375506   21.038377   22.663975 H          1 MOL1         0.3769
      29    C9      14.906338   18.243068   22.080113 C.3        1 MOL1         0.1053
      30    H14     15.716090   18.622428   22.715878 H          1 MOL1         0.0783
      31    O8      14.015908   17.442043   22.863871 O.3        1 MOL1        -0.5519
      32    H15     13.530069   18.081589   23.430897 H          1 MOL1         0.3769
      33    C10     15.533195   17.389068   20.949648 C.3        1 MOL1         0.1018
      34    H16     14.729987   16.855072   20.425103 H          1 MOL1         0.0783
      35    C11     16.324301   18.262071   19.933228 C.3        1 MOL1         0.1043
      36    H17     17.202187   18.667302   20.450080 H          1 MOL1         0.0783
      37    O9      15.481754   19.354365   19.484631 O.3        1 MOL1        -0.3740
      38    C12     16.847544   17.515726   18.679023 C.3        1 MOL1         0.0138
      39    H18     17.856388   17.142452   18.890216 H          1 MOL1         0.0794
      40    H19     16.950741   18.239711   17.859775 H          1 MOL1         0.0794
      41    O10     16.003337   16.433381   18.270242 O.3        1 MOL1        -0.5486
      42    H20     16.152837   15.696602   18.907511 H          1 MOL1         0.3769
      43    C13     18.638520   24.176457   21.326202 C.3        1 MOL1         0.2972
      44    H21     19.009334   25.178546   21.075635 H          1 MOL1         0.0751
      45    O11     19.509312   23.527269   22.271878 O.3        1 MOL1        -0.3740
      46    C14     17.227465   24.286003   21.965790 C.3        1 MOL1         0.1003
      47    H22     16.593360   24.847300   21.267204 H          1 MOL1         0.0783
      48    O12     17.301418   24.991901   23.213146 O.3        1 MOL1        -0.5519
      49    H23     18.068109   24.605905   23.695889 H          1 MOL1         0.3769
      50    C15     16.581995   22.894991   22.184018 C.3        1 MOL1         0.1053
      51    H24     17.147971   22.370532   22.966446 H          1 MOL1         0.0783
      52    O13     15.218985   23.057206   22.592909 O.3        1 MOL1        -0.5519
      53    H25     15.240040   23.743406   23.296453 H          1 MOL1         0.3769
      54    C16     16.649732   22.049045   20.892507 C.3        1 MOL1         0.1018
      55    H26     16.012587   22.517615   20.130648 H          1 MOL1         0.0783
      56    C17     18.107032   21.983053   20.362619 C.3        1 MOL1         0.1043
      57    H27     18.739616   21.502388   21.120261 H          1 MOL1         0.0783
      58    O14     18.554487   23.342751   20.146518 O.3        1 MOL1        -0.3740
      59    C18     18.295481   21.195159   19.041667 C.3        1 MOL1         0.0138
      60    H28     18.431902   20.133765   19.284004 H          1 MOL1         0.0794
      61    H29     19.224532   21.532905   18.564599 H          1 MOL1         0.0794
      62    O15     17.198780   21.348652   18.133965 O.3        1 MOL1        -0.5486
      63    H30     16.483382   20.747848   18.447422 H          1 MOL1         0.3769
      64    C19     23.562335   22.669733   22.236391 C.3        1 MOL1         0.2972
      65    H31     24.659443   22.669943   22.278709 H          1 MOL1         0.0751
      66    O16     23.056367   21.358524   21.918405 O.3        1 MOL1        -0.3740
      67    C20     22.992997   23.126177   23.597565 C.3        1 MOL1         0.1003
      68    H32     23.362101   24.142687   23.786700 H          1 MOL1         0.0783
      69    O17     23.444332   22.253183   24.643476 O.3        1 MOL1        -0.5519
      70    H33     23.534429   21.362800   24.235535 H          1 MOL1         0.3769
      71    C21     21.450536   23.175623   23.569991 C.3        1 MOL1         0.1053
      72    H34     21.086717   22.142612   23.500415 H          1 MOL1         0.0783
      73    O18     20.987572   23.762262   24.791018 O.3        1 MOL1        -0.5519
      74    H35     21.485561   23.300222   25.501176 H          1 MOL1         0.3769
      75    C22     20.890606   23.963420   22.354809 C.3        1 MOL1         0.1018
      76    H36     20.945898   25.035249   22.583878 H          1 MOL1         0.0783
      77    C23     21.659186   23.664495   21.021460 C.3        1 MOL1         0.1043
      78    H37     21.299672   22.699617   20.651358 H          1 MOL1         0.0783
      79    O19     23.093796   23.588208   21.234054 O.3        1 MOL1        -0.3740
      80    C24     21.470484   24.715479   19.893822 C.3        1 MOL1         0.0138
      81    H38     20.509415   24.559208   19.392684 H          1 MOL1         0.0794
      82    H39     22.243124   24.548468   19.131159 H          1 MOL1         0.0794
      83    O20     21.553520   26.058649   20.384767 O.3        1 MOL1        -0.5486
      84    H40     21.527196   26.661879   19.610020 H          1 MOL1         0.3769
      85    C25     24.368833   17.789746   20.188921 C.3        1 MOL1         0.2972
      86    H41     24.867466   17.030867   19.572341 H          1 MOL1         0.0751
      87    O21     23.264648   17.228565   20.928080 O.3        1 MOL1        -0.3740
      88    C26     25.367176   18.447512   21.179368 C.3        1 MOL1         0.1003
      89    H42     26.155243   18.917194   20.576435 H          1 MOL1         0.0783
      90    O22     25.967052   17.478206   22.052969 O.3        1 MOL1        -0.5519
      91    H43     25.232961   17.024119   22.539087 H          1 MOL1         0.3769
      92    C27     24.675032   19.560963   22.003607 C.3        1 MOL1         0.1053
      93    H44     23.943617   19.084138   22.668322 H          1 MOL1         0.0783
      94    O23     25.658176   20.249481   22.781962 O.3        1 MOL1        -0.5519
      95    H45     26.210297   19.543520   23.185532 H          1 MOL1         0.3769
      96    C28     23.924513   20.561533   21.084573 C.3        1 MOL1         0.1018
      97    H46     24.668501   21.180167   20.565386 H          1 MOL1         0.0783
      98    C29     23.045664   19.840630   20.024167 C.3        1 MOL1         0.1043
      99    H47     22.212631   19.354548   20.542826 H          1 MOL1         0.0783
     100    O24     23.840641   18.837080   19.348239 O.3        1 MOL1        -0.3740
     101    C30     22.423638   20.768456   18.949901 C.3        1 MOL1         0.0138
     102    H48     21.446048   21.107824   19.310696 H          1 MOL1         0.0794
     103    H49     22.231547   20.176505   18.045027 H          1 MOL1         0.0794
     104    O25     23.248234   21.896762   18.630520 O.3        1 MOL1        -0.5486
     105    H50     23.322070   22.450357   19.441592 H          1 MOL1         0.3769
     106    C31     21.351393   13.746404   21.914634 C.3        1 MOL1         0.2972
     107    H51     21.007661   12.729123   22.141852 H          1 MOL1         0.0751
     108    O26     20.268573   14.694318   21.937156 O.3        1 MOL1        -0.3740
     109    C32     22.386030   14.203324   22.968802 C.3        1 MOL1         0.1003
     110    H52     23.249181   13.527793   22.906853 H          1 MOL1         0.0783
     111    O27     21.813589   14.133448   24.284674 O.3        1 MOL1        -0.5519
     112    H53     20.844317   14.294873   24.181312 H          1 MOL1         0.3769
     113    C33     22.873418   15.640756   22.669791 C.3        1 MOL1         0.1053
     114    H54     22.036544   16.323964   22.853606 H          1 MOL1         0.0783
     115    O28     23.951584   15.971271   23.550574 O.3        1 MOL1        -0.5519
     116    H55     23.646744   15.689511   24.442017 H          1 MOL1         0.3769
     117    C34     23.321506   15.812919   21.195491 C.3        1 MOL1         0.1018
     118    H56     24.338615   15.411999   21.091504 H          1 MOL1         0.0783
     119    C35     22.369189   15.127886   20.171953 C.3        1 MOL1         0.1043
     120    H57     21.470980   15.752216   20.092548 H          1 MOL1         0.0783
     121    O29     21.980976   13.803571   20.619431 O.3        1 MOL1        -0.3740
     122    C36     22.964053   15.006765   18.748441 C.3        1 MOL1         0.0138
     123    H58     23.001857   16.008057   18.298564 H          1 MOL1         0.0794
     124    H59     22.284530   14.400037   18.134855 H          1 MOL1         0.0794
     125    O30     24.274628   14.428274   18.758561 O.3        1 MOL1        -0.5486
     126    H60     24.551485   14.299333   17.825112 H          1 MOL1         0.3769
     127    C1      19.678440   19.166868   24.047474 C.3        1 MOL1        -0.1693
     128    H1      19.893102   18.375385   24.777258 H          1 MOL1         0.0829
     129    H2      19.480504   20.100393   24.587387 H          1 MOL1         0.0829
     130    C2      18.640051   18.777365   22.946790 C.3        1 MOL1        -0.1768
     131    H3      17.857016   18.080820   23.259295 H          1 MOL1         0.0829
     132    H4      18.179789   19.628010   22.436968 H          1 MOL1         0.0829
     133    C3      19.847779   18.143629   22.196255 C.3        1 MOL1         0.1211
     134    H5      20.084667   17.133173   22.545199 H          1 MOL1         0.0786
     135    C4      20.696857   19.261059   22.867454 C.3        1 MOL1        -0.1768
     136    H6      21.730856   18.996972   23.106753 H          1 MOL1         0.0829
     137    H7      20.684709   20.215348   22.329054 H          1 MOL1         0.0829
     138    O1      19.812058   18.189039   20.787339 O.3        1 MOL1        -0.5515
     139    H8      20.695085   17.903082   20.480762 H          1 MOL1         0.3773
@<TRIPOS>BOND
    1     1     2    1
    2     1     3    1
    3     1     4    1
    4     4     5    1
    5     4     6    1
    6     6     7    1
    7     4     8    1
    8     8     9    1
    9     8    10    1
   10    10    11    1
   11     8    12    1
   12    12    13    1
   13    12    14    1
   14    14    15    1
   15     1    16    1
   16    14    16    1
   17    14    17    1
   18    17    18    1
   19    17    19    1
   20    17    20    1
   21    20    21    1
   22    22    23    1
   23    22    24    1
   24    22    25    1
   25    25    26    1
   26    25    27    1
   27    27    28    1
   28    25    29    1
   29    29    30    1
   30    29    31    1
   31    31    32    1
   32     3    33    1
   33    29    33    1
   34    33    34    1
   35    33    35    1
   36    35    36    1
   37    22    37    1
   38    35    37    1
   39    35    38    1
   40    38    39    1
   41    38    40    1
   42    38    41    1
   43    41    42    1
   44    43    44    1
   45    43    45    1
   46    43    46    1
   47    46    47    1
   48    46    48    1
   49    48    49    1
   50    46    50    1
   51    50    51    1
   52    50    52    1
   53    52    53    1
   54    24    54    1
   55    50    54    1
   56    54    55    1
   57    54    56    1
   58    56    57    1
   59    43    58    1
   60    56    58    1
   61    56    59    1
   62    59    60    1
   63    59    61    1
   64    59    62    1
   65    62    63    1
   66    64    65    1
   67    64    66    1
   68    64    67    1
   69    67    68    1
   70    67    69    1
   71    69    70    1
   72    67    71    1
   73    71    72    1
   74    71    73    1
   75    73    74    1
   76    45    75    1
   77    71    75    1
   78    75    76    1
   79    75    77    1
   80    77    78    1
   81    64    79    1
   82    77    79    1
   83    77    80    1
   84    80    81    1
   85    80    82    1
   86    80    83    1
   87    83    84    1
   88    85    86    1
   89    85    87    1
   90    85    88    1
   91    88    89    1
   92    88    90    1
   93    90    91    1
   94    88    92    1
   95    92    93    1
   96    92    94    1
   97    94    95    1
   98    66    96    1
   99    92    96    1
  100    96    97    1
  101    96    98    1
  102    98    99    1
  103    85   100    1
  104    98   100    1
  105    98   101    1
  106   101   102    1
  107   101   103    1
  108   101   104    1
  109   104   105    1
  110   106   107    1
  111    12   108    1
  112   106   108    1
  113   106   109    1
  114   109   110    1
  115   109   111    1
  116   111   112    1
  117   109   113    1
  118   113   114    1
  119   113   115    1
  120   115   116    1
  121    87   117    1
  122   113   117    1
  123   117   118    1
  124   117   119    1
  125   119   120    1
  126   106   121    1
  127   119   121    1
  128   119   122    1
  129   122   123    1
  130   122   124    1
  131   122   125    1
  132   125   126    1
  133   127   128    1
  134   127   129    1
  135   127   130    1
  136   130   131    1
  137   130   132    1
  138   130   133    1
  139   133   134    1
  140   127   135    1
  141   133   135    1
  142   135   136    1
  143   135   137    1
  144   133   138    1
  145   138   139    1
@<TRIPOS>SUBSTRUCTURE
       1 MOL1            1 RESIDUE      1      MOL     
       2 MOL1          139 RESIDUE      1      MOL     
@<SCITEGIC>MOL_PROPERTY
feprocess Rank
SciTegic.value.IntegerValue
167

@<SCITEGIC>MOL_PROPERTY
Conf_Id
SciTegic.value.IntegerValue
436

@<SCITEGIC>MOL_PROPERTY
Probability
SciTegic.value.DoubleValue
0.00

@<SCITEGIC>MOL_PROPERTY
G
SciTegic.value.DoubleValue
550.124

@<SCITEGIC>MOL_PROPERTY
E
SciTegic.value.DoubleValue
371.731

@<SCITEGIC>MOL_PROPERTY
-TS
SciTegic.value.DoubleValue
178.394

@<SCITEGIC>MOL_PROPERTY
U+W
SciTegic.value.DoubleValue
249.219

@<SCITEGIC>MOL_PROPERTY
U
SciTegic.value.DoubleValue
284.942

@<SCITEGIC>MOL_PROPERTY
W
SciTegic.value.DoubleValue
-35.723

@<SCITEGIC>MOL_PROPERTY
W(PB)
SciTegic.value.DoubleValue
-41.557

@<SCITEGIC>MOL_PROPERTY
W(SA)
SciTegic.value.DoubleValue
5.834

@<SCITEGIC>MOL_PROPERTY
Valence
SciTegic.value.DoubleValue
153.112

@<SCITEGIC>MOL_PROPERTY
Coulomb
SciTegic.value.DoubleValue
156.076

@<SCITEGIC>MOL_PROPERTY
VdW
SciTegic.value.DoubleValue
-24.246

@<SCITEGIC>MOL_PROPERTY
VdW6
SciTegic.value.DoubleValue
-172.341

@<SCITEGIC>MOL_PROPERTY
VdW12
SciTegic.value.DoubleValue
148.096

@<SCITEGIC>MOL_PROPERTY
Bond
SciTegic.value.DoubleValue
4.627

@<SCITEGIC>MOL_PROPERTY
Angle
SciTegic.value.DoubleValue
13.053

@<SCITEGIC>MOL_PROPERTY
Pdih
SciTegic.value.DoubleValue
135.432

@<SCITEGIC>MOL_PROPERTY
Idih
SciTegic.value.DoubleValue
0.000

@<SCITEGIC>MOL_PROPERTY
Tether
SciTegic.value.DoubleValue
0.000

@<TRIPOS>MOLECULE
CD_guest-s16_fast_vm2_rndm.mol2 : feprocess host+ligand conformer 168
         139         145           2
SMALL
USER_CHARGES
 
@<TRIPOS>ATOM
       1    C1      16.080022   15.180394   20.811663 C.3        1 MOL1         0.2972
       2    H1      15.059459   14.975410   20.464425 H          1 MOL1         0.0751
       3    O1      16.160410   16.444895   21.496596 O.3        1 MOL1        -0.3740
       4    C2      16.519051   14.094202   21.826401 C.3        1 MOL1         0.1003
       5    H2      16.457014   13.121240   21.321810 H          1 MOL1         0.0783
       6    O2      15.643462   14.100915   22.965084 O.3        1 MOL1        -0.5519
       7    H3      15.432767   15.048371   23.148886 H          1 MOL1         0.3769
       8    C3      17.984470   14.312214   22.277461 C.3        1 MOL1         0.1053
       9    H4      18.026463   15.230560   22.877547 H          1 MOL1         0.0783
      10    O3      18.414747   13.199915   23.068682 O.3        1 MOL1        -0.5519
      11    H5      17.676782   13.030937   23.696380 H          1 MOL1         0.3769
      12    C4      18.918469   14.488268   21.056756 C.3        1 MOL1         0.1018
      13    H6      19.004042   13.523226   20.539798 H          1 MOL1         0.0783
      14    C5      18.372997   15.541314   20.056636 C.3        1 MOL1         0.1043
      15    H7      18.371678   16.520522   20.548803 H          1 MOL1         0.0783
      16    O4      17.012247   15.184615   19.706392 O.3        1 MOL1        -0.3740
      17    C6      19.212863   15.692415   18.761487 C.3        1 MOL1         0.0138
      18    H8      19.999593   16.434983   18.945945 H          1 MOL1         0.0794
      19    H9      18.570178   16.100288   17.970542 H          1 MOL1         0.0794
      20    O5      19.808605   14.464749   18.325072 O.3        1 MOL1        -0.5486
      21    H10     20.567872   14.281422   18.925823 H          1 MOL1         0.3769
      22    C7      14.570625   20.303344   21.389387 C.3        1 MOL1         0.2972
      23    H11     13.911268   21.170297   21.255731 H          1 MOL1         0.0751
      24    O6      15.876017   20.699682   21.852874 O.3        1 MOL1        -0.3740
      25    C8      13.967134   19.348807   22.447458 C.3        1 MOL1         0.1003
      26    H12     12.967780   19.056018   22.100135 H          1 MOL1         0.0783
      27    O7      13.857505   20.023115   23.711413 O.3        1 MOL1        -0.5519
      28    H13     14.649521   20.610026   23.786193 H          1 MOL1         0.3769
      29    C9      14.819401   18.065899   22.595685 C.3        1 MOL1         0.1053
      30    H14     15.772106   18.347309   23.062502 H          1 MOL1         0.0783
      31    O8      14.131328   17.131217   23.434883 O.3        1 MOL1        -0.5519
      32    H15     13.840024   17.652480   24.215423 H          1 MOL1         0.3769
      33    C10     15.128994   17.413782   21.224342 C.3        1 MOL1         0.1018
      34    H16     14.210670   16.940135   20.853394 H          1 MOL1         0.0783
      35    C11     15.643691   18.460822   20.191697 C.3        1 MOL1         0.1043
      36    H17     16.627932   18.814526   20.525263 H          1 MOL1         0.0783
      37    O9      14.718606   19.577059   20.152281 O.3        1 MOL1        -0.3740
      38    C12     15.819887   17.948718   18.739880 C.3        1 MOL1         0.0138
      39    H18     16.829326   17.532874   18.638018 H          1 MOL1         0.0794
      40    H19     15.765499   18.807007   18.057553 H          1 MOL1         0.0794
      41    O10     14.847978   16.968225   18.362040 O.3        1 MOL1        -0.5486
      42    H20     15.260055   16.091350   18.526690 H          1 MOL1         0.3769
      43    C13     18.485438   23.992836   21.535756 C.3        1 MOL1         0.2972
      44    H21     18.844841   25.019779   21.391069 H          1 MOL1         0.0751
      45    O11     19.581785   23.084061   21.749989 O.3        1 MOL1        -0.3740
      46    C14     17.563438   23.940319   22.780618 C.3        1 MOL1         0.1003
      47    H22     16.756705   24.667997   22.623273 H          1 MOL1         0.0783
      48    O12     18.302731   24.299579   23.958469 O.3        1 MOL1        -0.5519
      49    H23     19.244713   24.064014   23.778462 H          1 MOL1         0.3769
      50    C15     16.917164   22.544472   22.952492 C.3        1 MOL1         0.1053
      51    H24     17.709418   21.828241   23.210901 H          1 MOL1         0.0783
      52    O13     15.944042   22.596362   24.002392 O.3        1 MOL1        -0.5519
      53    H25     16.395165   23.054375   24.745850 H          1 MOL1         0.3769
      54    C16     16.249812   22.075453   21.637568 C.3        1 MOL1         0.1018
      55    H26     15.375230   22.711176   21.446529 H          1 MOL1         0.0783
      56    C17     17.246746   22.181556   20.448855 C.3        1 MOL1         0.1043
      57    H27     18.078414   21.492531   20.645664 H          1 MOL1         0.0783
      58    O14     17.746214   23.542158   20.381052 O.3        1 MOL1        -0.3740
      59    C18     16.677625   21.822981   19.053658 C.3        1 MOL1         0.0138
      60    H28     16.767290   20.739564   18.911394 H          1 MOL1         0.0794
      61    H29     17.307410   22.293447   18.287104 H          1 MOL1         0.0794
      62    O15     15.316004   22.227098   18.878268 O.3        1 MOL1        -0.5486
      63    H30     14.763600   21.460345   19.152412 H          1 MOL1         0.3769
      64    C19     23.634514   22.620718   20.790695 C.3        1 MOL1         0.2972
      65    H31     24.645864   22.766015   20.389369 H          1 MOL1         0.0751
      66    O16     23.485240   21.331574   21.412458 O.3        1 MOL1        -0.3740
      67    C20     23.307878   23.690690   21.864027 C.3        1 MOL1         0.1003
      68    H32     23.402672   24.675310   21.388051 H          1 MOL1         0.0783
      69    O17     24.227840   23.604971   22.965226 O.3        1 MOL1        -0.5519
      70    H33     24.322139   22.646648   23.197028 H          1 MOL1         0.3769
      71    C21     21.850200   23.539893   22.368180 C.3        1 MOL1         0.1053
      72    H34     21.776398   22.595281   22.924510 H          1 MOL1         0.0783
      73    O18     21.526147   24.635325   23.231008 O.3        1 MOL1        -0.5519
      74    H35     22.293635   24.719017   23.839456 H          1 MOL1         0.3769
      75    C22     20.848524   23.483766   21.187646 C.3        1 MOL1         0.1018
      76    H36     20.799363   24.480240   20.729194 H          1 MOL1         0.0783
      77    C23     21.287133   22.447685   20.113079 C.3        1 MOL1         0.1043
      78    H37     21.227576   21.444440   20.551076 H          1 MOL1         0.0783
      79    O19     22.656669   22.724180   19.733978 O.3        1 MOL1        -0.3740
      80    C24     20.433439   22.425096   18.820524 C.3        1 MOL1         0.0138
      81    H38     19.587185   21.745504   18.973747 H          1 MOL1         0.0794
      82    H39     21.038850   21.995122   18.011547 H          1 MOL1         0.0794
      83    O20     19.954218   23.718606   18.436948 O.3        1 MOL1        -0.5486
      84    H40     19.166245   23.906381   18.998444 H          1 MOL1         0.3769
      85    C25     25.207152   17.633057   21.769236 C.3        1 MOL1         0.2972
      86    H41     25.847644   16.743917   21.827817 H          1 MOL1         0.0751
      87    O21     23.806977   17.297111   21.845319 O.3        1 MOL1        -0.3740
      88    C26     25.535991   18.593923   22.936003 C.3        1 MOL1         0.1003
      89    H42     26.579066   18.916085   22.820285 H          1 MOL1         0.0783
      90    O22     25.379342   17.926682   24.198659 O.3        1 MOL1        -0.5519
      91    H43     24.645536   17.269963   24.093056 H          1 MOL1         0.3769
      92    C27     24.635195   19.846999   22.870921 C.3        1 MOL1         0.1053
      93    H44     23.609336   19.527300   23.088416 H          1 MOL1         0.0783
      94    O23     25.054878   20.798873   23.854428 O.3        1 MOL1        -0.5519
      95    H45     25.177853   20.276071   24.678025 H          1 MOL1         0.3769
      96    C28     24.659825   20.502110   21.467122 C.3        1 MOL1         0.1018
      97    H46     25.583820   21.088967   21.380069 H          1 MOL1         0.0783
      98    C29     24.561340   19.477456   20.297815 C.3        1 MOL1         0.1043
      99    H47     23.522021   19.127909   20.245297 H          1 MOL1         0.0783
     100    O24     25.430332   18.339421   20.533193 O.3        1 MOL1        -0.3740
     101    C30     24.912137   20.075319   18.914044 C.3        1 MOL1         0.0138
     102    H48     24.101807   20.749989   18.607653 H          1 MOL1         0.0794
     103    H49     24.950161   19.259626   18.179641 H          1 MOL1         0.0794
     104    O25     26.156255   20.786186   18.932287 O.3        1 MOL1        -0.5486
     105    H50     26.347275   21.076077   18.013605 H          1 MOL1         0.3769
     106    C31     21.265530   13.999960   21.460334 C.3        1 MOL1         0.2972
     107    H51     20.889900   12.977670   21.323070 H          1 MOL1         0.0751
     108    O26     20.187838   14.951587   21.552647 O.3        1 MOL1        -0.3740
     109    C32     22.094001   14.076221   22.768067 C.3        1 MOL1         0.1003
     110    H52     22.916487   13.354703   22.678164 H          1 MOL1         0.0783
     111    O27     21.286348   13.731204   23.905101 O.3        1 MOL1        -0.5519
     112    H53     20.342262   13.764695   23.610483 H          1 MOL1         0.3769
     113    C33     22.710422   15.481666   22.951300 C.3        1 MOL1         0.1053
     114    H54     21.893786   16.197489   23.115033 H          1 MOL1         0.0783
     115    O28     23.587562   15.476447   24.082469 O.3        1 MOL1        -0.5519
     116    H55     23.086075   15.007703   24.786913 H          1 MOL1         0.3769
     117    C34     23.483709   15.905432   21.681456 C.3        1 MOL1         0.1018
     118    H56     24.380037   15.277243   21.594672 H          1 MOL1         0.0783
     119    C35     22.617239   15.745564   20.401935 C.3        1 MOL1         0.1043
     120    H57     21.779321   16.448187   20.468869 H          1 MOL1         0.0783
     121    O29     22.100934   14.390708   20.346247 O.3        1 MOL1        -0.3740
     122    C36     23.352639   16.057450   19.073412 C.3        1 MOL1         0.0138
     123    H58     23.289724   17.137233   18.886704 H          1 MOL1         0.0794
     124    H59     22.818978   15.560182   18.252369 H          1 MOL1         0.0794
     125    O30     24.727044   15.656680   19.081946 O.3        1 MOL1        -0.5486
     126    H60     25.234548   16.395422   19.488846 H          1 MOL1         0.3769
     127    C1      19.856016   18.820251   23.727809 C.3        1 MOL1        -0.1693
     128    H1      20.451936   17.945088   24.017234 H          1 MOL1         0.0829
     129    H2      19.598379   19.385089   24.631324 H          1 MOL1         0.0829
     130    C2      18.675957   18.517973   22.747880 C.3        1 MOL1        -0.1768
     131    H3      18.186029   17.548524   22.872152 H          1 MOL1         0.0829
     132    H4      17.910649   19.299658   22.701846 H          1 MOL1         0.0829
     133    C3      19.752020   18.602153   21.625665 C.3        1 MOL1         0.1211
     134    H5      20.327157   17.676410   21.506129 H          1 MOL1         0.0786
     135    C4      20.441492   19.653038   22.542560 C.3        1 MOL1        -0.1768
     136    H6      21.530216   19.701900   22.473388 H          1 MOL1         0.0829
     137    H7      20.034475   20.665858   22.464123 H          1 MOL1         0.0829
     138    O1      19.308038   19.079816   20.374660 O.3        1 MOL1        -0.5515
     139    H8      20.102083   19.234380   19.828791 H          1 MOL1         0.3773
@<TRIPOS>BOND
    1     1     2    1
    2     1     3    1
    3     1     4    1
    4     4     5    1
    5     4     6    1
    6     6     7    1
    7     4     8    1
    8     8     9    1
    9     8    10    1
   10    10    11    1
   11     8    12    1
   12    12    13    1
   13    12    14    1
   14    14    15    1
   15     1    16    1
   16    14    16    1
   17    14    17    1
   18    17    18    1
   19    17    19    1
   20    17    20    1
   21    20    21    1
   22    22    23    1
   23    22    24    1
   24    22    25    1
   25    25    26    1
   26    25    27    1
   27    27    28    1
   28    25    29    1
   29    29    30    1
   30    29    31    1
   31    31    32    1
   32     3    33    1
   33    29    33    1
   34    33    34    1
   35    33    35    1
   36    35    36    1
   37    22    37    1
   38    35    37    1
   39    35    38    1
   40    38    39    1
   41    38    40    1
   42    38    41    1
   43    41    42    1
   44    43    44    1
   45    43    45    1
   46    43    46    1
   47    46    47    1
   48    46    48    1
   49    48    49    1
   50    46    50    1
   51    50    51    1
   52    50    52    1
   53    52    53    1
   54    24    54    1
   55    50    54    1
   56    54    55    1
   57    54    56    1
   58    56    57    1
   59    43    58    1
   60    56    58    1
   61    56    59    1
   62    59    60    1
   63    59    61    1
   64    59    62    1
   65    62    63    1
   66    64    65    1
   67    64    66    1
   68    64    67    1
   69    67    68    1
   70    67    69    1
   71    69    70    1
   72    67    71    1
   73    71    72    1
   74    71    73    1
   75    73    74    1
   76    45    75    1
   77    71    75    1
   78    75    76    1
   79    75    77    1
   80    77    78    1
   81    64    79    1
   82    77    79    1
   83    77    80    1
   84    80    81    1
   85    80    82    1
   86    80    83    1
   87    83    84    1
   88    85    86    1
   89    85    87    1
   90    85    88    1
   91    88    89    1
   92    88    90    1
   93    90    91    1
   94    88    92    1
   95    92    93    1
   96    92    94    1
   97    94    95    1
   98    66    96    1
   99    92    96    1
  100    96    97    1
  101    96    98    1
  102    98    99    1
  103    85   100    1
  104    98   100    1
  105    98   101    1
  106   101   102    1
  107   101   103    1
  108   101   104    1
  109   104   105    1
  110   106   107    1
  111    12   108    1
  112   106   108    1
  113   106   109    1
  114   109   110    1
  115   109   111    1
  116   111   112    1
  117   109   113    1
  118   113   114    1
  119   113   115    1
  120   115   116    1
  121    87   117    1
  122   113   117    1
  123   117   118    1
  124   117   119    1
  125   119   120    1
  126   106   121    1
  127   119   121    1
  128   119   122    1
  129   122   123    1
  130   122   124    1
  131   122   125    1
  132   125   126    1
  133   127   128    1
  134   127   129    1
  135   127   130    1
  136   130   131    1
  137   130   132    1
  138   130   133    1
  139   133   134    1
  140   127   135    1
  141   133   135    1
  142   135   136    1
  143   135   137    1
  144   133   138    1
  145   138   139    1
@<TRIPOS>SUBSTRUCTURE
       1 MOL1            1 RESIDUE      1      MOL     
       2 MOL1          139 RESIDUE      1      MOL     
@<SCITEGIC>MOL_PROPERTY
feprocess Rank
SciTegic.value.IntegerValue
168

@<SCITEGIC>MOL_PROPERTY
Conf_Id
SciTegic.value.IntegerValue
181

@<SCITEGIC>MOL_PROPERTY
Probability
SciTegic.value.DoubleValue
0.00

@<SCITEGIC>MOL_PROPERTY
G
SciTegic.value.DoubleValue
550.129

@<SCITEGIC>MOL_PROPERTY
E
SciTegic.value.DoubleValue
373.510

@<SCITEGIC>MOL_PROPERTY
-TS
SciTegic.value.DoubleValue
176.619

@<SCITEGIC>MOL_PROPERTY
U+W
SciTegic.value.DoubleValue
250.999

@<SCITEGIC>MOL_PROPERTY
U
SciTegic.value.DoubleValue
288.908

@<SCITEGIC>MOL_PROPERTY
W
SciTegic.value.DoubleValue
-37.909

@<SCITEGIC>MOL_PROPERTY
W(PB)
SciTegic.value.DoubleValue
-43.792

@<SCITEGIC>MOL_PROPERTY
W(SA)
SciTegic.value.DoubleValue
5.883

@<SCITEGIC>MOL_PROPERTY
Valence
SciTegic.value.DoubleValue
156.205

@<SCITEGIC>MOL_PROPERTY
Coulomb
SciTegic.value.DoubleValue
156.411

@<SCITEGIC>MOL_PROPERTY
VdW
SciTegic.value.DoubleValue
-23.707

@<SCITEGIC>MOL_PROPERTY
VdW6
SciTegic.value.DoubleValue
-169.479

@<SCITEGIC>MOL_PROPERTY
VdW12
SciTegic.value.DoubleValue
145.771

@<SCITEGIC>MOL_PROPERTY
Bond
SciTegic.value.DoubleValue
4.424

@<SCITEGIC>MOL_PROPERTY
Angle
SciTegic.value.DoubleValue
11.816

@<SCITEGIC>MOL_PROPERTY
Pdih
SciTegic.value.DoubleValue
139.965

@<SCITEGIC>MOL_PROPERTY
Idih
SciTegic.value.DoubleValue
0.000

@<SCITEGIC>MOL_PROPERTY
Tether
SciTegic.value.DoubleValue
0.000

@<TRIPOS>MOLECULE
CD_guest-s16_fast_vm2_rndm.mol2 : feprocess host+ligand conformer 169
         139         145           2
SMALL
USER_CHARGES
 
@<TRIPOS>ATOM
       1    C1      16.417817   15.476702   20.796534 C.3        1 MOL1         0.2972
       2    H1      15.380604   15.295067   20.485700 H          1 MOL1         0.0751
       3    O1      16.614479   16.845556   21.195877 O.3        1 MOL1        -0.3740
       4    C2      16.768191   14.565633   21.998848 C.3        1 MOL1         0.1003
       5    H2      16.626613   13.526465   21.674389 H          1 MOL1         0.0783
       6    O2      15.896649   14.836371   23.108083 O.3        1 MOL1        -0.5519
       7    H3      15.442799   15.691447   22.907634 H          1 MOL1         0.3769
       8    C3      18.246552   14.737650   22.419554 C.3        1 MOL1         0.1053
       9    H4      18.371474   15.755178   22.812570 H          1 MOL1         0.0783
      10    O3      18.546694   13.779555   23.439754 O.3        1 MOL1        -0.5519
      11    H5      17.758646   13.792448   24.030129 H          1 MOL1         0.3769
      12    C4      19.186397   14.565604   21.196154 C.3        1 MOL1         0.1018
      13    H6      19.186958   13.513230   20.883765 H          1 MOL1         0.0783
      14    C5      18.731299   15.450720   20.005459 C.3        1 MOL1         0.1043
      15    H7      18.857336   16.499646   20.300750 H          1 MOL1         0.0783
      16    O4      17.333329   15.199559   19.713345 O.3        1 MOL1        -0.3740
      17    C6      19.561273   15.240967   18.713896 C.3        1 MOL1         0.0138
      18    H8      20.514292   15.775124   18.823055 H          1 MOL1         0.0794
      19    H9      19.027839   15.704291   17.873176 H          1 MOL1         0.0794
      20    O5      19.815511   13.858809   18.436117 O.3        1 MOL1        -0.5486
      21    H10     20.457539   13.539190   19.106937 H          1 MOL1         0.3769
      22    C7      14.557137   20.503515   20.859187 C.3        1 MOL1         0.2972
      23    H11     13.878432   21.287552   20.499802 H          1 MOL1         0.0751
      24    O6      15.385257   20.990409   21.932448 O.3        1 MOL1        -0.3740
      25    C8      13.739577   19.303232   21.410267 C.3        1 MOL1         0.1003
      26    H12     13.080079   18.955277   20.604637 H          1 MOL1         0.0783
      27    O7      12.945740   19.716421   22.531882 O.3        1 MOL1        -0.5519
      28    H13     13.557482   20.217197   23.119127 H          1 MOL1         0.3769
      29    C9      14.659819   18.125695   21.821429 C.3        1 MOL1         0.1053
      30    H14     15.244520   18.437594   22.696604 H          1 MOL1         0.0783
      31    O8      13.860828   16.984522   22.152905 O.3        1 MOL1        -0.5519
      32    H15     13.146791   17.330095   22.733579 H          1 MOL1         0.3769
      33    C10     15.644101   17.774996   20.681160 C.3        1 MOL1         0.1018
      34    H16     15.077621   17.349369   19.842100 H          1 MOL1         0.0783
      35    C11     16.396017   19.033321   20.182925 C.3        1 MOL1         0.1043
      36    H17     17.004168   19.426792   21.006203 H          1 MOL1         0.0783
      37    O9      15.411486   20.020133   19.794177 O.3        1 MOL1        -0.3740
      38    C12     17.349417   18.777447   18.987100 C.3        1 MOL1         0.0138
      39    H18     18.329942   18.485098   19.383629 H          1 MOL1         0.0794
      40    H19     17.491677   19.720907   18.444128 H          1 MOL1         0.0794
      41    O10     16.873785   17.765968   18.090376 O.3        1 MOL1        -0.5486
      42    H20     16.919363   16.904490   18.566885 H          1 MOL1         0.3769
      43    C13     18.318279   23.897336   22.090070 C.3        1 MOL1         0.2972
      44    H21     18.907933   24.820819   22.161045 H          1 MOL1         0.0751
      45    O11     19.170705   22.749804   21.899207 O.3        1 MOL1        -0.3740
      46    C14     17.487987   23.733315   23.378465 C.3        1 MOL1         0.1003
      47    H22     16.842742   24.617378   23.463971 H          1 MOL1         0.0783
      48    O12     18.353643   23.664615   24.524071 O.3        1 MOL1        -0.5519
      49    H23     19.280374   23.674036   24.181824 H          1 MOL1         0.3769
      50    C15     16.581260   22.487245   23.305563 C.3        1 MOL1         0.1053
      51    H24     17.233667   21.607518   23.363646 H          1 MOL1         0.0783
      52    O13     15.696310   22.503193   24.431051 O.3        1 MOL1        -0.5519
      53    H25     16.281570   22.633653   25.209267 H          1 MOL1         0.3769
      54    C16     15.765998   22.389109   21.984543 C.3        1 MOL1         0.1018
      55    H26     14.877802   23.026380   22.078335 H          1 MOL1         0.0783
      56    C17     16.586702   22.809604   20.716309 C.3        1 MOL1         0.1043
      57    H27     17.233534   21.968549   20.443589 H          1 MOL1         0.0783
      58    O14     17.410467   23.974174   20.979646 O.3        1 MOL1        -0.3740
      59    C18     15.734830   23.191045   19.474726 C.3        1 MOL1         0.0138
      60    H28     15.362173   22.288133   18.980417 H          1 MOL1         0.0794
      61    H29     16.389064   23.690395   18.747190 H          1 MOL1         0.0794
      62    O15     14.637469   24.047944   19.812080 O.3        1 MOL1        -0.5486
      63    H30     14.205004   24.323133   18.974217 H          1 MOL1         0.3769
      64    C19     23.208048   22.345590   20.674054 C.3        1 MOL1         0.2972
      65    H31     24.149288   22.596267   20.167867 H          1 MOL1         0.0751
      66    O16     23.262623   21.037735   21.269927 O.3        1 MOL1        -0.3740
      67    C20     22.921118   23.361465   21.814754 C.3        1 MOL1         0.1003
      68    H32     22.942355   24.365223   21.370834 H          1 MOL1         0.0783
      69    O17     23.930106   23.275005   22.834976 O.3        1 MOL1        -0.5519
      70    H33     24.114462   22.313870   22.983536 H          1 MOL1         0.3769
      71    C21     21.515563   23.145191   22.433125 C.3        1 MOL1         0.1053
      72    H34     21.516844   22.187291   22.968357 H          1 MOL1         0.0783
      73    O18     21.223670   24.209431   23.345709 O.3        1 MOL1        -0.5519
      74    H35     22.040790   24.317426   23.882168 H          1 MOL1         0.3769
      75    C22     20.446703   23.081470   21.315562 C.3        1 MOL1         0.1018
      76    H36     20.412328   24.056644   20.810689 H          1 MOL1         0.0783
      77    C23     20.816205   22.012606   20.259550 C.3        1 MOL1         0.1043
      78    H37     20.861415   21.028896   20.743874 H          1 MOL1         0.0783
      79    O19     22.115486   22.358948   19.726921 O.3        1 MOL1        -0.3740
      80    C24     19.813133   21.907240   19.083844 C.3        1 MOL1         0.0138
      81    H38     18.991616   21.250887   19.393270 H          1 MOL1         0.0794
      82    H39     20.312705   21.416293   18.238102 H          1 MOL1         0.0794
      83    O20     19.288653   23.178037   18.677853 O.3        1 MOL1        -0.5486
      84    H40     18.752043   23.530371   19.424980 H          1 MOL1         0.3769
      85    C25     25.330039   17.491975   21.046242 C.3        1 MOL1         0.2972
      86    H41     26.027100   16.655594   20.912322 H          1 MOL1         0.0751
      87    O21     23.975398   17.034402   21.242947 O.3        1 MOL1        -0.3740
      88    C26     25.759184   18.404235   22.224451 C.3        1 MOL1         0.1003
      89    H42     26.714882   18.866142   21.943792 H          1 MOL1         0.0783
      90    O22     25.948174   17.663229   23.437973 O.3        1 MOL1        -0.5519
      91    H43     25.074383   17.263318   23.676342 H          1 MOL1         0.3769
      92    C27     24.723419   19.538115   22.413911 C.3        1 MOL1         0.1053
      93    H44     23.771450   19.083691   22.717816 H          1 MOL1         0.0783
      94    O23     25.171047   20.445122   23.427543 O.3        1 MOL1        -0.5519
      95    H45     25.486321   19.875460   24.163719 H          1 MOL1         0.3769
      96    C28     24.495903   20.314007   21.091880 C.3        1 MOL1         0.1018
      97    H46     25.348487   20.991896   20.952887 H          1 MOL1         0.0783
      98    C29     24.342336   19.389553   19.845159 C.3        1 MOL1         0.1043
      99    H47     23.338417   18.945533   19.872909 H          1 MOL1         0.0783
     100    O24     25.330952   18.326877   19.871088 O.3        1 MOL1        -0.3740
     101    C30     24.477941   20.128983   18.491556 C.3        1 MOL1         0.0138
     102    H48     23.573918   20.728486   18.324519 H          1 MOL1         0.0794
     103    H49     24.520194   19.380880   17.688618 H          1 MOL1         0.0794
     104    O25     25.637094   20.970867   18.446816 O.3        1 MOL1        -0.5486
     105    H50     25.696219   21.347577   17.541671 H          1 MOL1         0.3769
     106    C31     21.372997   14.035691   22.168209 C.3        1 MOL1         0.2972
     107    H51     20.826389   13.125915   22.447519 H          1 MOL1         0.0751
     108    O26     20.510683   15.010575   21.545311 O.3        1 MOL1        -0.3740
     109    C32     22.027092   14.676348   23.415060 C.3        1 MOL1         0.1003
     110    H52     22.756989   13.956384   23.807688 H          1 MOL1         0.0783
     111    O27     21.054977   14.966174   24.432771 O.3        1 MOL1        -0.5519
     112    H53     20.205660   14.547714   24.150133 H          1 MOL1         0.3769
     113    C33     22.781249   15.965200   23.020931 C.3        1 MOL1         0.1053
     114    H54     22.037174   16.700014   22.694684 H          1 MOL1         0.0783
     115    O28     23.468272   16.462509   24.170964 O.3        1 MOL1        -0.5519
     116    H55     22.806897   16.391915   24.896598 H          1 MOL1         0.3769
     117    C34     23.764456   15.740241   21.841524 C.3        1 MOL1         0.1018
     118    H56     24.692949   15.302941   22.229871 H          1 MOL1         0.0783
     119    C35     23.169944   14.848372   20.710163 C.3        1 MOL1         0.1043
     120    H57     22.474618   15.468832   20.129916 H          1 MOL1         0.0783
     121    O29     22.437940   13.718743   21.249253 O.3        1 MOL1        -0.3740
     122    C36     24.232956   14.316270   19.718587 C.3        1 MOL1         0.0138
     123    H58     24.669708   15.166912   19.177858 H          1 MOL1         0.0794
     124    H59     23.726434   13.687345   18.974459 H          1 MOL1         0.0794
     125    O30     25.265638   13.563626   20.369178 O.3        1 MOL1        -0.5486
     126    H60     25.817849   14.182363   20.890334 H          1 MOL1         0.3769
     127    C1      20.974401   19.282743   23.533379 C.3        1 MOL1        -0.1693
     128    H1      21.399886   19.886791   22.725753 H          1 MOL1         0.0829
     129    H2      21.793681   18.895772   24.150278 H          1 MOL1         0.0829
     130    C2      19.913162   18.235854   23.065430 C.3        1 MOL1        -0.1768
     131    H3      20.053197   17.818851   22.062918 H          1 MOL1         0.0829
     132    H4      19.749582   17.413156   23.771453 H          1 MOL1         0.0829
     133    C3      18.888462   19.400530   23.171113 C.3        1 MOL1         0.1211
     134    H5      18.850532   20.045700   22.284042 H          1 MOL1         0.0786
     135    C4      19.794449   19.954149   24.309468 C.3        1 MOL1        -0.1768
     136    H6      19.598382   19.527330   25.300331 H          1 MOL1         0.0829
     137    H7      19.829617   21.045365   24.397594 H          1 MOL1         0.0829
     138    O1      17.595859   19.015283   23.564052 O.3        1 MOL1        -0.5515
     139    H8      17.696983   18.429431   24.338463 H          1 MOL1         0.3773
@<TRIPOS>BOND
    1     1     2    1
    2     1     3    1
    3     1     4    1
    4     4     5    1
    5     4     6    1
    6     6     7    1
    7     4     8    1
    8     8     9    1
    9     8    10    1
   10    10    11    1
   11     8    12    1
   12    12    13    1
   13    12    14    1
   14    14    15    1
   15     1    16    1
   16    14    16    1
   17    14    17    1
   18    17    18    1
   19    17    19    1
   20    17    20    1
   21    20    21    1
   22    22    23    1
   23    22    24    1
   24    22    25    1
   25    25    26    1
   26    25    27    1
   27    27    28    1
   28    25    29    1
   29    29    30    1
   30    29    31    1
   31    31    32    1
   32     3    33    1
   33    29    33    1
   34    33    34    1
   35    33    35    1
   36    35    36    1
   37    22    37    1
   38    35    37    1
   39    35    38    1
   40    38    39    1
   41    38    40    1
   42    38    41    1
   43    41    42    1
   44    43    44    1
   45    43    45    1
   46    43    46    1
   47    46    47    1
   48    46    48    1
   49    48    49    1
   50    46    50    1
   51    50    51    1
   52    50    52    1
   53    52    53    1
   54    24    54    1
   55    50    54    1
   56    54    55    1
   57    54    56    1
   58    56    57    1
   59    43    58    1
   60    56    58    1
   61    56    59    1
   62    59    60    1
   63    59    61    1
   64    59    62    1
   65    62    63    1
   66    64    65    1
   67    64    66    1
   68    64    67    1
   69    67    68    1
   70    67    69    1
   71    69    70    1
   72    67    71    1
   73    71    72    1
   74    71    73    1
   75    73    74    1
   76    45    75    1
   77    71    75    1
   78    75    76    1
   79    75    77    1
   80    77    78    1
   81    64    79    1
   82    77    79    1
   83    77    80    1
   84    80    81    1
   85    80    82    1
   86    80    83    1
   87    83    84    1
   88    85    86    1
   89    85    87    1
   90    85    88    1
   91    88    89    1
   92    88    90    1
   93    90    91    1
   94    88    92    1
   95    92    93    1
   96    92    94    1
   97    94    95    1
   98    66    96    1
   99    92    96    1
  100    96    97    1
  101    96    98    1
  102    98    99    1
  103    85   100    1
  104    98   100    1
  105    98   101    1
  106   101   102    1
  107   101   103    1
  108   101   104    1
  109   104   105    1
  110   106   107    1
  111    12   108    1
  112   106   108    1
  113   106   109    1
  114   109   110    1
  115   109   111    1
  116   111   112    1
  117   109   113    1
  118   113   114    1
  119   113   115    1
  120   115   116    1
  121    87   117    1
  122   113   117    1
  123   117   118    1
  124   117   119    1
  125   119   120    1
  126   106   121    1
  127   119   121    1
  128   119   122    1
  129   122   123    1
  130   122   124    1
  131   122   125    1
  132   125   126    1
  133   127   128    1
  134   127   129    1
  135   127   130    1
  136   130   131    1
  137   130   132    1
  138   130   133    1
  139   133   134    1
  140   127   135    1
  141   133   135    1
  142   135   136    1
  143   135   137    1
  144   133   138    1
  145   138   139    1
@<TRIPOS>SUBSTRUCTURE
       1 MOL1            1 RESIDUE      1      MOL     
       2 MOL1          139 RESIDUE      1      MOL     
@<SCITEGIC>MOL_PROPERTY
feprocess Rank
SciTegic.value.IntegerValue
169

@<SCITEGIC>MOL_PROPERTY
Conf_Id
SciTegic.value.IntegerValue
559

@<SCITEGIC>MOL_PROPERTY
Probability
SciTegic.value.DoubleValue
0.00

@<SCITEGIC>MOL_PROPERTY
G
SciTegic.value.DoubleValue
550.164

@<SCITEGIC>MOL_PROPERTY
E
SciTegic.value.DoubleValue
373.182

@<SCITEGIC>MOL_PROPERTY
-TS
SciTegic.value.DoubleValue
176.982

@<SCITEGIC>MOL_PROPERTY
U+W
SciTegic.value.DoubleValue
250.671

@<SCITEGIC>MOL_PROPERTY
U
SciTegic.value.DoubleValue
288.787

@<SCITEGIC>MOL_PROPERTY
W
SciTegic.value.DoubleValue
-38.116

@<SCITEGIC>MOL_PROPERTY
W(PB)
SciTegic.value.DoubleValue
-44.062

@<SCITEGIC>MOL_PROPERTY
W(SA)
SciTegic.value.DoubleValue
5.946

@<SCITEGIC>MOL_PROPERTY
Valence
SciTegic.value.DoubleValue
152.573

@<SCITEGIC>MOL_PROPERTY
Coulomb
SciTegic.value.DoubleValue
157.779

@<SCITEGIC>MOL_PROPERTY
VdW
SciTegic.value.DoubleValue
-21.566

@<SCITEGIC>MOL_PROPERTY
VdW6
SciTegic.value.DoubleValue
-167.048

@<SCITEGIC>MOL_PROPERTY
VdW12
SciTegic.value.DoubleValue
145.482

@<SCITEGIC>MOL_PROPERTY
Bond
SciTegic.value.DoubleValue
4.707

@<SCITEGIC>MOL_PROPERTY
Angle
SciTegic.value.DoubleValue
13.692

@<SCITEGIC>MOL_PROPERTY
Pdih
SciTegic.value.DoubleValue
134.174

@<SCITEGIC>MOL_PROPERTY
Idih
SciTegic.value.DoubleValue
0.000

@<SCITEGIC>MOL_PROPERTY
Tether
SciTegic.value.DoubleValue
0.000

@<TRIPOS>MOLECULE
CD_guest-s16_fast_vm2_rndm.mol2 : feprocess host+ligand conformer 170
         139         145           2
SMALL
USER_CHARGES
 
@<TRIPOS>ATOM
       1    C1      16.216718   15.167053   21.278974 C.3        1 MOL1         0.2972
       2    H1      15.156602   14.951169   21.093792 H          1 MOL1         0.0751
       3    O1      16.438776   16.572583   21.499543 O.3        1 MOL1        -0.3740
       4    C2      16.690013   14.414778   22.548411 C.3        1 MOL1         0.1003
       5    H2      16.532295   13.342157   22.376149 H          1 MOL1         0.0783
       6    O2      15.922865   14.829702   23.689604 O.3        1 MOL1        -0.5519
       7    H3      15.614765   15.750253   23.502068 H          1 MOL1         0.3769
       8    C3      18.200220   14.642610   22.798526 C.3        1 MOL1         0.1053
       9    H4      18.351376   15.700863   23.053252 H          1 MOL1         0.0783
      10    O3      18.634500   13.815202   23.882386 O.3        1 MOL1        -0.5519
      11    H5      17.946738   13.927127   24.576537 H          1 MOL1         0.3769
      12    C4      19.018004   14.323383   21.523758 C.3        1 MOL1         0.1018
      13    H6      18.990468   13.239807   21.348515 H          1 MOL1         0.0783
      14    C5      18.446048   15.052701   20.277807 C.3        1 MOL1         0.1043
      15    H7      18.571080   16.131177   20.426898 H          1 MOL1         0.0783
      16    O4      17.031602   14.751982   20.157594 O.3        1 MOL1        -0.3740
      17    C6      19.155318   14.702202   18.943728 C.3        1 MOL1         0.0138
      18    H8      20.000457   15.389523   18.810351 H          1 MOL1         0.0794
      19    H9      18.458929   14.890075   18.115542 H          1 MOL1         0.0794
      20    O5      19.629548   13.351464   18.892334 O.3        1 MOL1        -0.5486
      21    H10     20.446360   13.311574   19.441797 H          1 MOL1         0.3769
      22    C7      14.696174   20.312358   20.791216 C.3        1 MOL1         0.2972
      23    H11     14.024232   21.108704   20.447445 H          1 MOL1         0.0751
      24    O6      15.846545   20.856969   21.467876 O.3        1 MOL1        -0.3740
      25    C8      13.951133   19.399431   21.799833 C.3        1 MOL1         0.1003
      26    H12     13.055649   19.011771   21.297092 H          1 MOL1         0.0783
      27    O7      13.560866   20.160527   22.953407 O.3        1 MOL1        -0.5519
      28    H13     14.323788   20.752793   23.160087 H          1 MOL1         0.3769
      29    C9      14.822325   18.191552   22.227007 C.3        1 MOL1         0.1053
      30    H14     15.649178   18.572068   22.838522 H          1 MOL1         0.0783
      31    O8      14.034502   17.277631   22.997936 O.3        1 MOL1        -0.5519
      32    H15     13.565381   17.836115   23.656704 H          1 MOL1         0.3769
      33    C10     15.424724   17.465180   21.000236 C.3        1 MOL1         0.1018
      34    H16     14.621690   16.930043   20.476651 H          1 MOL1         0.0783
      35    C11     16.096584   18.465021   20.023213 C.3        1 MOL1         0.1043
      36    H17     16.951088   18.915707   20.541121 H          1 MOL1         0.0783
      37    O9      15.141132   19.500485   19.682336 O.3        1 MOL1        -0.3740
      38    C12     16.635276   17.834899   18.712280 C.3        1 MOL1         0.0138
      39    H18     17.663897   17.496422   18.886635 H          1 MOL1         0.0794
      40    H19     16.685634   18.615077   17.941871 H          1 MOL1         0.0794
      41    O10     15.842660   16.738615   18.242542 O.3        1 MOL1        -0.5486
      42    H20     16.074586   15.958716   18.798523 H          1 MOL1         0.3769
      43    C13     18.482225   24.111524   21.261143 C.3        1 MOL1         0.2972
      44    H21     18.916113   25.105222   21.090276 H          1 MOL1         0.0751
      45    O11     19.484871   23.155807   21.659459 O.3        1 MOL1        -0.3740
      46    C14     17.405352   24.170977   22.373885 C.3        1 MOL1         0.1003
      47    H22     16.651262   24.903827   22.058809 H          1 MOL1         0.0783
      48    O12     17.983238   24.594278   23.620187 O.3        1 MOL1        -0.5519
      49    H23     18.824647   24.086196   23.743677 H          1 MOL1         0.3769
      50    C15     16.695271   22.804161   22.545955 C.3        1 MOL1         0.1053
      51    H24     17.419180   22.094906   22.968443 H          1 MOL1         0.0783
      52    O13     15.590041   22.959570   23.443768 O.3        1 MOL1        -0.5519
      53    H25     15.950921   23.455204   24.211621 H          1 MOL1         0.3769
      54    C16     16.198341   22.230296   21.193473 C.3        1 MOL1         0.1018
      55    H26     15.327201   22.815387   20.871202 H          1 MOL1         0.0783
      56    C17     17.313869   22.292208   20.107198 C.3        1 MOL1         0.1043
      57    H27     18.110305   21.598479   20.396821 H          1 MOL1         0.0783
      58    O14     17.852198   23.634588   20.055301 O.3        1 MOL1        -0.3740
      59    C18     16.883686   21.917014   18.667282 C.3        1 MOL1         0.0138
      60    H28     16.965066   20.830753   18.548072 H          1 MOL1         0.0794
      61    H29     17.600992   22.361868   17.964715 H          1 MOL1         0.0794
      62    O15     15.556665   22.346031   18.344161 O.3        1 MOL1        -0.5486
      63    H30     14.970432   21.569562   18.479577 H          1 MOL1         0.3769
      64    C19     23.577626   22.663277   21.928992 C.3        1 MOL1         0.2972
      65    H31     24.666565   22.769808   22.019371 H          1 MOL1         0.0751
      66    O16     23.196806   21.298848   21.667925 O.3        1 MOL1        -0.3740
      67    C20     22.894583   23.112843   23.242212 C.3        1 MOL1         0.1003
      68    H32     23.128277   24.174494   23.395300 H          1 MOL1         0.0783
      69    O17     23.387486   22.348397   24.354818 O.3        1 MOL1        -0.5519
      70    H33     23.900053   21.590989   23.978925 H          1 MOL1         0.3769
      71    C21     21.361960   22.965094   23.123762 C.3        1 MOL1         0.1053
      72    H34     21.145008   21.895400   23.036116 H          1 MOL1         0.0783
      73    O18     20.730317   23.493366   24.294433 O.3        1 MOL1        -0.5519
      74    H35     21.255072   23.136330   25.045614 H          1 MOL1         0.3769
      75    C22     20.814807   23.675923   21.862642 C.3        1 MOL1         0.1018
      76    H36     20.808594   24.756870   22.056013 H          1 MOL1         0.0783
      77    C23     21.647549   23.364931   20.583952 C.3        1 MOL1         0.1043
      78    H37     21.422271   22.335406   20.282659 H          1 MOL1         0.0783
      79    O19     23.070549   23.477760   20.851149 O.3        1 MOL1        -0.3740
      80    C24     21.308108   24.277631   19.381265 C.3        1 MOL1         0.0138
      81    H38     20.314594   24.003494   19.002322 H          1 MOL1         0.0794
      82    H39     22.028192   24.079203   18.575976 H          1 MOL1         0.0794
      83    O20     21.327657   25.665855   19.736087 O.3        1 MOL1        -0.5486
      84    H40     21.173755   26.184844   18.916658 H          1 MOL1         0.3769
      85    C25     24.900597   17.639673   20.630367 C.3        1 MOL1         0.2972
      86    H41     25.530518   16.838962   20.221707 H          1 MOL1         0.0751
      87    O21     23.660761   17.128570   21.156458 O.3        1 MOL1        -0.3740
      88    C26     25.627260   18.409051   21.766936 C.3        1 MOL1         0.1003
      89    H42     26.523787   18.866762   21.328936 H          1 MOL1         0.0783
      90    O22     26.025930   17.530405   22.830057 O.3        1 MOL1        -0.5519
      91    H43     25.219588   17.034838   23.123628 H          1 MOL1         0.3769
      92    C27     24.726988   19.548071   22.309689 C.3        1 MOL1         0.1053
      93    H44     23.847828   19.094350   22.787456 H          1 MOL1         0.0783
      94    O23     25.451295   20.324711   23.269513 O.3        1 MOL1        -0.5519
      95    H45     25.924467   19.666230   23.826283 H          1 MOL1         0.3769
      96    C28     24.239143   20.454009   21.151795 C.3        1 MOL1         0.1018
      97    H46     25.091925   21.035761   20.777550 H          1 MOL1         0.0783
      98    C29     23.636197   19.634852   19.979600 C.3        1 MOL1         0.1043
      99    H47     22.706354   19.170483   20.327123 H          1 MOL1         0.0783
     100    O24     24.574761   18.598255   19.596242 O.3        1 MOL1        -0.3740
     101    C30     23.268683   20.478244   18.730271 C.3        1 MOL1         0.0138
     102    H48     22.229579   20.814959   18.835046 H          1 MOL1         0.0794
     103    H49     23.302756   19.828004   17.845982 H          1 MOL1         0.0794
     104    O25     24.120744   21.615053   18.539380 O.3        1 MOL1        -0.5486
     105    H50     23.910050   22.261956   19.252036 H          1 MOL1         0.3769
     106    C31     21.380124   13.795008   21.865258 C.3        1 MOL1         0.2972
     107    H51     20.953180   12.798722   22.037904 H          1 MOL1         0.0751
     108    O26     20.357184   14.803030   21.742320 O.3        1 MOL1        -0.3740
     109    C32     22.307413   14.181156   23.041647 C.3        1 MOL1         0.1003
     110    H52     23.132701   13.457572   23.064765 H          1 MOL1         0.0783
     111    O27     21.597105   14.129844   24.289208 O.3        1 MOL1        -0.5519
     112    H53     20.635883   14.241963   24.080883 H          1 MOL1         0.3769
     113    C33     22.909507   15.586502   22.819738 C.3        1 MOL1         0.1053
     114    H54     22.091279   16.314161   22.885824 H          1 MOL1         0.0783
     115    O28     23.868095   15.856168   23.846797 O.3        1 MOL1        -0.5519
     116    H55     23.425195   15.580208   24.680615 H          1 MOL1         0.3769
     117    C34     23.571656   15.716142   21.422680 C.3        1 MOL1         0.1018
     118    H56     24.559647   15.238055   21.455579 H          1 MOL1         0.0783
     119    C35     22.710144   15.104189   20.277939 C.3        1 MOL1         0.1043
     120    H57     21.877711   15.792898   20.085760 H          1 MOL1         0.0783
     121    O29     22.168327   13.811551   20.657427 O.3        1 MOL1        -0.3740
     122    C36     23.480336   14.942081   18.945932 C.3        1 MOL1         0.0138
     123    H58     23.665868   15.940379   18.526845 H          1 MOL1         0.0794
     124    H59     22.840661   14.403168   18.234082 H          1 MOL1         0.0794
     125    O30     24.723014   14.250727   19.122149 O.3        1 MOL1        -0.5486
     126    H60     25.118793   14.117647   18.233163 H          1 MOL1         0.3769
     127    C1      20.334732   18.223785   21.906051 C.3        1 MOL1        -0.1693
     128    H1      21.231414   17.856581   21.403928 H          1 MOL1         0.0829
     129    H2      19.584612   17.426309   21.909264 H          1 MOL1         0.0829
     130    C2      19.803405   19.613401   21.434566 C.3        1 MOL1        -0.1768
     131    H3      20.581859   20.321874   21.132506 H          1 MOL1         0.0829
     132    H4      19.033939   19.586894   20.660321 H          1 MOL1         0.0829
     133    C3      19.306509   19.795877   22.903136 C.3        1 MOL1         0.1211
     134    H5      19.333269   20.824874   23.278353 H          1 MOL1         0.0786
     135    C4      20.534083   18.913552   23.294815 C.3        1 MOL1        -0.1768
     136    H6      20.404398   18.270511   24.171961 H          1 MOL1         0.0829
     137    H7      21.475458   19.466165   23.399783 H          1 MOL1         0.0829
     138    O1      18.048579   19.223242   23.185945 O.3        1 MOL1        -0.5515
     139    H8      17.951070   19.200839   24.157272 H          1 MOL1         0.3773
@<TRIPOS>BOND
    1     1     2    1
    2     1     3    1
    3     1     4    1
    4     4     5    1
    5     4     6    1
    6     6     7    1
    7     4     8    1
    8     8     9    1
    9     8    10    1
   10    10    11    1
   11     8    12    1
   12    12    13    1
   13    12    14    1
   14    14    15    1
   15     1    16    1
   16    14    16    1
   17    14    17    1
   18    17    18    1
   19    17    19    1
   20    17    20    1
   21    20    21    1
   22    22    23    1
   23    22    24    1
   24    22    25    1
   25    25    26    1
   26    25    27    1
   27    27    28    1
   28    25    29    1
   29    29    30    1
   30    29    31    1
   31    31    32    1
   32     3    33    1
   33    29    33    1
   34    33    34    1
   35    33    35    1
   36    35    36    1
   37    22    37    1
   38    35    37    1
   39    35    38    1
   40    38    39    1
   41    38    40    1
   42    38    41    1
   43    41    42    1
   44    43    44    1
   45    43    45    1
   46    43    46    1
   47    46    47    1
   48    46    48    1
   49    48    49    1
   50    46    50    1
   51    50    51    1
   52    50    52    1
   53    52    53    1
   54    24    54    1
   55    50    54    1
   56    54    55    1
   57    54    56    1
   58    56    57    1
   59    43    58    1
   60    56    58    1
   61    56    59    1
   62    59    60    1
   63    59    61    1
   64    59    62    1
   65    62    63    1
   66    64    65    1
   67    64    66    1
   68    64    67    1
   69    67    68    1
   70    67    69    1
   71    69    70    1
   72    67    71    1
   73    71    72    1
   74    71    73    1
   75    73    74    1
   76    45    75    1
   77    71    75    1
   78    75    76    1
   79    75    77    1
   80    77    78    1
   81    64    79    1
   82    77    79    1
   83    77    80    1
   84    80    81    1
   85    80    82    1
   86    80    83    1
   87    83    84    1
   88    85    86    1
   89    85    87    1
   90    85    88    1
   91    88    89    1
   92    88    90    1
   93    90    91    1
   94    88    92    1
   95    92    93    1
   96    92    94    1
   97    94    95    1
   98    66    96    1
   99    92    96    1
  100    96    97    1
  101    96    98    1
  102    98    99    1
  103    85   100    1
  104    98   100    1
  105    98   101    1
  106   101   102    1
  107   101   103    1
  108   101   104    1
  109   104   105    1
  110   106   107    1
  111    12   108    1
  112   106   108    1
  113   106   109    1
  114   109   110    1
  115   109   111    1
  116   111   112    1
  117   109   113    1
  118   113   114    1
  119   113   115    1
  120   115   116    1
  121    87   117    1
  122   113   117    1
  123   117   118    1
  124   117   119    1
  125   119   120    1
  126   106   121    1
  127   119   121    1
  128   119   122    1
  129   122   123    1
  130   122   124    1
  131   122   125    1
  132   125   126    1
  133   127   128    1
  134   127   129    1
  135   127   130    1
  136   130   131    1
  137   130   132    1
  138   130   133    1
  139   133   134    1
  140   127   135    1
  141   133   135    1
  142   135   136    1
  143   135   137    1
  144   133   138    1
  145   138   139    1
@<TRIPOS>SUBSTRUCTURE
       1 MOL1            1 RESIDUE      1      MOL     
       2 MOL1          139 RESIDUE      1      MOL     
@<SCITEGIC>MOL_PROPERTY
feprocess Rank
SciTegic.value.IntegerValue
170

@<SCITEGIC>MOL_PROPERTY
Conf_Id
SciTegic.value.IntegerValue
288

@<SCITEGIC>MOL_PROPERTY
Probability
SciTegic.value.DoubleValue
0.00

@<SCITEGIC>MOL_PROPERTY
G
SciTegic.value.DoubleValue
550.175

@<SCITEGIC>MOL_PROPERTY
E
SciTegic.value.DoubleValue
373.402

@<SCITEGIC>MOL_PROPERTY
-TS
SciTegic.value.DoubleValue
176.773

@<SCITEGIC>MOL_PROPERTY
U+W
SciTegic.value.DoubleValue
250.891

@<SCITEGIC>MOL_PROPERTY
U
SciTegic.value.DoubleValue
288.181

@<SCITEGIC>MOL_PROPERTY
W
SciTegic.value.DoubleValue
-37.291

@<SCITEGIC>MOL_PROPERTY
W(PB)
SciTegic.value.DoubleValue
-43.240

@<SCITEGIC>MOL_PROPERTY
W(SA)
SciTegic.value.DoubleValue
5.949

@<SCITEGIC>MOL_PROPERTY
Valence
SciTegic.value.DoubleValue
155.199

@<SCITEGIC>MOL_PROPERTY
Coulomb
SciTegic.value.DoubleValue
155.022

@<SCITEGIC>MOL_PROPERTY
VdW
SciTegic.value.DoubleValue
-22.039

@<SCITEGIC>MOL_PROPERTY
VdW6
SciTegic.value.DoubleValue
-169.126

@<SCITEGIC>MOL_PROPERTY
VdW12
SciTegic.value.DoubleValue
147.087

@<SCITEGIC>MOL_PROPERTY
Bond
SciTegic.value.DoubleValue
4.602

@<SCITEGIC>MOL_PROPERTY
Angle
SciTegic.value.DoubleValue
11.785

@<SCITEGIC>MOL_PROPERTY
Pdih
SciTegic.value.DoubleValue
138.813

@<SCITEGIC>MOL_PROPERTY
Idih
SciTegic.value.DoubleValue
0.000

@<SCITEGIC>MOL_PROPERTY
Tether
SciTegic.value.DoubleValue
0.000

@<TRIPOS>MOLECULE
CD_guest-s16_fast_vm2_rndm.mol2 : feprocess host+ligand conformer 171
         139         145           2
SMALL
USER_CHARGES
 
@<TRIPOS>ATOM
       1    C1      16.374677   15.351082   20.542783 C.3        1 MOL1         0.2972
       2    H1      15.376852   15.220483   20.104545 H          1 MOL1         0.0751
       3    O1      16.543751   16.674937   21.091564 O.3        1 MOL1        -0.3740
       4    C2      16.612164   14.318431   21.676482 C.3        1 MOL1         0.1003
       5    H2      16.485621   13.319581   21.239078 H          1 MOL1         0.0783
       6    O2      15.660739   14.489122   22.739599 O.3        1 MOL1        -0.5519
       7    H3      15.629959   15.455066   22.959055 H          1 MOL1         0.3769
       8    C3      18.057848   14.416425   22.224294 C.3        1 MOL1         0.1053
       9    H4      18.163184   15.383460   22.734477 H          1 MOL1         0.0783
      10    O3      18.293986   13.351457   23.151834 O.3        1 MOL1        -0.5519
      11    H5      17.499494   13.334584   23.730555 H          1 MOL1         0.3769
      12    C4      19.098028   14.355978   21.077739 C.3        1 MOL1         0.1018
      13    H6      19.107068   13.336817   20.669460 H          1 MOL1         0.0783
      14    C5      18.751977   15.367169   19.947458 C.3        1 MOL1         0.1043
      15    H7      18.846243   16.382835   20.350372 H          1 MOL1         0.0783
      16    O4      17.383729   15.148007   19.530553 O.3        1 MOL1        -0.3740
      17    C6      19.649294   15.287650   18.685488 C.3        1 MOL1         0.0138
      18    H8      20.513684   15.946468   18.825714 H          1 MOL1         0.0794
      19    H9      19.085307   15.688297   17.832582 H          1 MOL1         0.0794
      20    O5      20.099382   13.960390   18.392918 O.3        1 MOL1        -0.5486
      21    H10     20.877949   13.791337   18.972250 H          1 MOL1         0.3769
      22    C7      14.578155   20.328089   21.336155 C.3        1 MOL1         0.2972
      23    H11     13.857612   21.155146   21.340595 H          1 MOL1         0.0751
      24    O6      15.940180   20.803923   21.367817 O.3        1 MOL1        -0.3740
      25    C8      14.337317   19.370344   22.532273 C.3        1 MOL1         0.1003
      26    H12     13.344140   18.923892   22.391663 H          1 MOL1         0.0783
      27    O7      14.350310   20.063711   23.787871 O.3        1 MOL1        -0.5519
      28    H13     15.193928   20.579945   23.836392 H          1 MOL1         0.3769
      29    C9      15.373810   18.220338   22.516507 C.3        1 MOL1         0.1053
      30    H14     16.373342   18.648720   22.670268 H          1 MOL1         0.0783
      31    O8      15.075372   17.293758   23.565983 O.3        1 MOL1        -0.5519
      32    H15     14.876940   17.852446   24.350595 H          1 MOL1         0.3769
      33    C10     15.352660   17.487574   21.151761 C.3        1 MOL1         0.1018
      34    H16     14.441942   16.874864   21.115627 H          1 MOL1         0.0783
      35    C11     15.374335   18.468281   19.941112 C.3        1 MOL1         0.1043
      36    H17     16.379975   18.900061   19.864948 H          1 MOL1         0.0783
      37    O9      14.416017   19.540797   20.137602 O.3        1 MOL1        -0.3740
      38    C12     15.065571   17.787389   18.585858 C.3        1 MOL1         0.0138
      39    H18     15.923281   17.161290   18.305585 H          1 MOL1         0.0794
      40    H19     14.967241   18.566063   17.817680 H          1 MOL1         0.0794
      41    O10     13.876740   16.988381   18.639943 O.3        1 MOL1        -0.5486
      42    H20     13.703914   16.650644   17.734042 H          1 MOL1         0.3769
      43    C13     18.542817   23.961325   21.735561 C.3        1 MOL1         0.2972
      44    H21     19.050094   24.924011   21.876740 H          1 MOL1         0.0751
      45    O11     19.424188   22.977285   21.158909 O.3        1 MOL1        -0.3740
      46    C14     18.019878   23.424003   23.090782 C.3        1 MOL1         0.1003
      47    H22     17.340884   24.181709   23.503107 H          1 MOL1         0.0783
      48    O12     19.099669   23.190234   24.010789 O.3        1 MOL1        -0.5519
      49    H23     19.836812   23.796277   23.753394 H          1 MOL1         0.3769
      50    C15     17.232387   22.109154   22.901994 C.3        1 MOL1         0.1053
      51    H24     17.955840   21.344936   22.617948 H          1 MOL1         0.0783
      52    O13     16.629664   21.749249   24.146063 O.3        1 MOL1        -0.5519
      53    H25     17.330825   21.910032   24.817755 H          1 MOL1         0.3769
      54    C16     16.176187   22.170894   21.770436 C.3        1 MOL1         0.1018
      55    H26     15.271200   22.658513   22.154328 H          1 MOL1         0.0783
      56    C17     16.699338   22.907643   20.503733 C.3        1 MOL1         0.1043
      57    H27     17.395788   22.233856   19.987557 H          1 MOL1         0.0783
      58    O14     17.405491   24.121771   20.862110 O.3        1 MOL1        -0.3740
      59    C18     15.584408   23.266253   19.491362 C.3        1 MOL1         0.0138
      60    H28     15.164162   22.336321   19.084346 H          1 MOL1         0.0794
      61    H29     16.041602   23.807890   18.652698 H          1 MOL1         0.0794
      62    O15     14.543965   24.061701   20.075000 O.3        1 MOL1        -0.5486
      63    H30     14.011374   23.487289   20.662860 H          1 MOL1         0.3769
      64    C19     23.507167   22.504198   20.421756 C.3        1 MOL1         0.2972
      65    H31     24.540265   22.596079   20.062612 H          1 MOL1         0.0751
      66    O16     23.267215   21.214411   21.019552 O.3        1 MOL1        -0.3740
      67    C20     23.167146   23.613951   21.452273 C.3        1 MOL1         0.1003
      68    H32     23.269338   24.575875   20.933242 H          1 MOL1         0.0783
      69    O17     24.066425   23.596037   22.570785 O.3        1 MOL1        -0.5519
      70    H33     23.998960   22.697477   22.984024 H          1 MOL1         0.3769
      71    C21     21.698517   23.489190   21.931891 C.3        1 MOL1         0.1053
      72    H34     21.606551   22.549553   22.490926 H          1 MOL1         0.0783
      73    O18     21.397960   24.597613   22.788600 O.3        1 MOL1        -0.5519
      74    H35     22.204529   24.713411   23.340832 H          1 MOL1         0.3769
      75    C22     20.720066   23.439635   20.723358 C.3        1 MOL1         0.1018
      76    H36     20.654234   24.439627   20.276263 H          1 MOL1         0.0783
      77    C23     21.189274   22.429847   19.640863 C.3        1 MOL1         0.1043
      78    H37     21.073468   21.418881   20.048674 H          1 MOL1         0.0783
      79    O19     22.584715   22.655520   19.320260 O.3        1 MOL1        -0.3740
      80    C24     20.357586   22.482006   18.335189 C.3        1 MOL1         0.0138
      81    H38     19.388499   22.000140   18.521253 H          1 MOL1         0.0794
      82    H39     20.872489   21.886247   17.569940 H          1 MOL1         0.0794
      83    O20     20.147897   23.818048   17.861747 O.3        1 MOL1        -0.5486
      84    H40     19.505769   24.246115   18.468278 H          1 MOL1         0.3769
      85    C25     25.023625   17.704088   22.300943 C.3        1 MOL1         0.2972
      86    H41     25.690924   16.901533   22.640981 H          1 MOL1         0.0751
      87    O21     23.695276   17.214639   22.044985 O.3        1 MOL1        -0.3740
      88    C26     24.924107   18.801460   23.386463 C.3        1 MOL1         0.1003
      89    H42     25.932186   19.208535   23.538503 H          1 MOL1         0.0783
      90    O22     24.449154   18.238130   24.620062 O.3        1 MOL1        -0.5519
      91    H43     23.969499   17.407621   24.385812 H          1 MOL1         0.3769
      92    C27     24.006482   19.959372   22.925007 C.3        1 MOL1         0.1053
      93    H44     22.977025   19.581624   22.869515 H          1 MOL1         0.0783
      94    O23     24.078730   21.018846   23.884253 O.3        1 MOL1        -0.5519
      95    H45     23.874538   20.591114   24.745246 H          1 MOL1         0.3769
      96    C28     24.405163   20.484507   21.521116 C.3        1 MOL1         0.1018
      97    H46     25.293425   21.122296   21.621129 H          1 MOL1         0.0783
      98    C29     24.677470   19.336627   20.505947 C.3        1 MOL1         0.1043
      99    H47     23.708838   18.894442   20.242946 H          1 MOL1         0.0783
     100    O24     25.520769   18.308366   21.088801 O.3        1 MOL1        -0.3740
     101    C30     25.331367   19.818228   19.188970 C.3        1 MOL1         0.0138
     102    H48     24.588781   20.396274   18.622307 H          1 MOL1         0.0794
     103    H49     25.591121   18.939107   18.583964 H          1 MOL1         0.0794
     104    O25     26.493999   20.621514   19.426416 O.3        1 MOL1        -0.5486
     105    H50     26.899422   20.824183   18.555153 H          1 MOL1         0.3769
     106    C31     21.453137   13.782364   21.487669 C.3        1 MOL1         0.2972
     107    H51     21.087012   12.766091   21.293504 H          1 MOL1         0.0751
     108    O26     20.364943   14.714137   21.663676 O.3        1 MOL1        -0.3740
     109    C32     22.292129   13.798372   22.789510 C.3        1 MOL1         0.1003
     110    H52     23.143016   13.119115   22.649188 H          1 MOL1         0.0783
     111    O27     21.494550   13.346812   23.895521 O.3        1 MOL1        -0.5519
     112    H53     20.565747   13.625417   23.705235 H          1 MOL1         0.3769
     113    C33     22.845695   15.216578   23.067208 C.3        1 MOL1         0.1053
     114    H54     21.992096   15.861809   23.305295 H          1 MOL1         0.0783
     115    O28     23.740996   15.181914   24.182551 O.3        1 MOL1        -0.5519
     116    H55     23.283933   14.636174   24.860827 H          1 MOL1         0.3769
     117    C34     23.566393   15.798818   21.825041 C.3        1 MOL1         0.1018
     118    H56     24.539393   15.302812   21.712864 H          1 MOL1         0.0783
     119    C35     22.740263   15.619097   20.523031 C.3        1 MOL1         0.1043
     120    H57     21.863725   16.268767   20.602278 H          1 MOL1         0.0783
     121    O29     22.292042   14.245253   20.405762 O.3        1 MOL1        -0.3740
     122    C36     23.480793   16.026152   19.221560 C.3        1 MOL1         0.0138
     123    H58     23.264619   17.081866   19.015575 H          1 MOL1         0.0794
     124    H59     23.063915   15.449478   18.385032 H          1 MOL1         0.0794
     125    O30     24.898912   15.835524   19.289904 O.3        1 MOL1        -0.5486
     126    H60     25.259237   16.543961   19.872524 H          1 MOL1         0.3769
     127    C1      20.550066   18.685128   21.071233 C.3        1 MOL1        -0.1693
     128    H1      20.557299   17.983695   20.232981 H          1 MOL1         0.0829
     129    H2      21.407829   19.358079   20.970664 H          1 MOL1         0.0829
     130    C2      20.375251   18.083528   22.505132 C.3        1 MOL1        -0.1768
     131    H3      19.773261   17.170474   22.554296 H          1 MOL1         0.0829
     132    H4      21.292163   17.936731   23.082116 H          1 MOL1         0.0829
     133    C3      19.589074   19.381998   22.850621 C.3        1 MOL1         0.1211
     134    H5      18.755049   19.235984   23.548650 H          1 MOL1         0.0786
     135    C4      19.188121   19.396489   21.340836 C.3        1 MOL1        -0.1768
     136    H6      19.062975   20.378787   20.877601 H          1 MOL1         0.0829
     137    H7      18.308225   18.788152   21.109490 H          1 MOL1         0.0829
     138    O1      20.397090   20.459695   23.281853 O.3        1 MOL1        -0.5515
     139    H8      19.830606   21.253179   23.402171 H          1 MOL1         0.3773
@<TRIPOS>BOND
    1     1     2    1
    2     1     3    1
    3     1     4    1
    4     4     5    1
    5     4     6    1
    6     6     7    1
    7     4     8    1
    8     8     9    1
    9     8    10    1
   10    10    11    1
   11     8    12    1
   12    12    13    1
   13    12    14    1
   14    14    15    1
   15     1    16    1
   16    14    16    1
   17    14    17    1
   18    17    18    1
   19    17    19    1
   20    17    20    1
   21    20    21    1
   22    22    23    1
   23    22    24    1
   24    22    25    1
   25    25    26    1
   26    25    27    1
   27    27    28    1
   28    25    29    1
   29    29    30    1
   30    29    31    1
   31    31    32    1
   32     3    33    1
   33    29    33    1
   34    33    34    1
   35    33    35    1
   36    35    36    1
   37    22    37    1
   38    35    37    1
   39    35    38    1
   40    38    39    1
   41    38    40    1
   42    38    41    1
   43    41    42    1
   44    43    44    1
   45    43    45    1
   46    43    46    1
   47    46    47    1
   48    46    48    1
   49    48    49    1
   50    46    50    1
   51    50    51    1
   52    50    52    1
   53    52    53    1
   54    24    54    1
   55    50    54    1
   56    54    55    1
   57    54    56    1
   58    56    57    1
   59    43    58    1
   60    56    58    1
   61    56    59    1
   62    59    60    1
   63    59    61    1
   64    59    62    1
   65    62    63    1
   66    64    65    1
   67    64    66    1
   68    64    67    1
   69    67    68    1
   70    67    69    1
   71    69    70    1
   72    67    71    1
   73    71    72    1
   74    71    73    1
   75    73    74    1
   76    45    75    1
   77    71    75    1
   78    75    76    1
   79    75    77    1
   80    77    78    1
   81    64    79    1
   82    77    79    1
   83    77    80    1
   84    80    81    1
   85    80    82    1
   86    80    83    1
   87    83    84    1
   88    85    86    1
   89    85    87    1
   90    85    88    1
   91    88    89    1
   92    88    90    1
   93    90    91    1
   94    88    92    1
   95    92    93    1
   96    92    94    1
   97    94    95    1
   98    66    96    1
   99    92    96    1
  100    96    97    1
  101    96    98    1
  102    98    99    1
  103    85   100    1
  104    98   100    1
  105    98   101    1
  106   101   102    1
  107   101   103    1
  108   101   104    1
  109   104   105    1
  110   106   107    1
  111    12   108    1
  112   106   108    1
  113   106   109    1
  114   109   110    1
  115   109   111    1
  116   111   112    1
  117   109   113    1
  118   113   114    1
  119   113   115    1
  120   115   116    1
  121    87   117    1
  122   113   117    1
  123   117   118    1
  124   117   119    1
  125   119   120    1
  126   106   121    1
  127   119   121    1
  128   119   122    1
  129   122   123    1
  130   122   124    1
  131   122   125    1
  132   125   126    1
  133   127   128    1
  134   127   129    1
  135   127   130    1
  136   130   131    1
  137   130   132    1
  138   130   133    1
  139   133   134    1
  140   127   135    1
  141   133   135    1
  142   135   136    1
  143   135   137    1
  144   133   138    1
  145   138   139    1
@<TRIPOS>SUBSTRUCTURE
       1 MOL1            1 RESIDUE      1      MOL     
       2 MOL1          139 RESIDUE      1      MOL     
@<SCITEGIC>MOL_PROPERTY
feprocess Rank
SciTegic.value.IntegerValue
171

@<SCITEGIC>MOL_PROPERTY
Conf_Id
SciTegic.value.IntegerValue
848

@<SCITEGIC>MOL_PROPERTY
Probability
SciTegic.value.DoubleValue
0.00

@<SCITEGIC>MOL_PROPERTY
G
SciTegic.value.DoubleValue
550.204

@<SCITEGIC>MOL_PROPERTY
E
SciTegic.value.DoubleValue
371.093

@<SCITEGIC>MOL_PROPERTY
-TS
SciTegic.value.DoubleValue
179.110

@<SCITEGIC>MOL_PROPERTY
U+W
SciTegic.value.DoubleValue
248.582

@<SCITEGIC>MOL_PROPERTY
U
SciTegic.value.DoubleValue
287.055

@<SCITEGIC>MOL_PROPERTY
W
SciTegic.value.DoubleValue
-38.473

@<SCITEGIC>MOL_PROPERTY
W(PB)
SciTegic.value.DoubleValue
-44.456

@<SCITEGIC>MOL_PROPERTY
W(SA)
SciTegic.value.DoubleValue
5.983

@<SCITEGIC>MOL_PROPERTY
Valence
SciTegic.value.DoubleValue
153.903

@<SCITEGIC>MOL_PROPERTY
Coulomb
SciTegic.value.DoubleValue
154.726

@<SCITEGIC>MOL_PROPERTY
VdW
SciTegic.value.DoubleValue
-21.574

@<SCITEGIC>MOL_PROPERTY
VdW6
SciTegic.value.DoubleValue
-171.088

@<SCITEGIC>MOL_PROPERTY
VdW12
SciTegic.value.DoubleValue
149.515

@<SCITEGIC>MOL_PROPERTY
Bond
SciTegic.value.DoubleValue
4.713

@<SCITEGIC>MOL_PROPERTY
Angle
SciTegic.value.DoubleValue
12.604

@<SCITEGIC>MOL_PROPERTY
Pdih
SciTegic.value.DoubleValue
136.585

@<SCITEGIC>MOL_PROPERTY
Idih
SciTegic.value.DoubleValue
0.000

@<SCITEGIC>MOL_PROPERTY
Tether
SciTegic.value.DoubleValue
0.000

@<TRIPOS>MOLECULE
CD_guest-s16_fast_vm2_rndm.mol2 : feprocess host+ligand conformer 172
         139         145           2
SMALL
USER_CHARGES
 
@<TRIPOS>ATOM
       1    C1      16.204153   15.276219   20.773341 C.3        1 MOL1         0.2972
       2    H1      15.210751   15.111893   20.336524 H          1 MOL1         0.0751
       3    O1      16.209436   16.424092   21.641918 O.3        1 MOL1        -0.3740
       4    C2      16.622131   14.048950   21.628952 C.3        1 MOL1         0.1003
       5    H2      16.570850   13.162710   20.983208 H          1 MOL1         0.0783
       6    O2      15.721588   13.887655   22.735392 O.3        1 MOL1        -0.5519
       7    H3      15.602542   14.787326   23.120826 H          1 MOL1         0.3769
       8    C3      18.076644   14.182489   22.148995 C.3        1 MOL1         0.1053
       9    H4      18.103673   15.000300   22.881182 H          1 MOL1         0.0783
      10    O3      18.478994   12.959158   22.774968 O.3        1 MOL1        -0.5519
      11    H5      17.722123   12.701729   23.347416 H          1 MOL1         0.3769
      12    C4      19.042187   14.538461   20.993672 C.3        1 MOL1         0.1018
      13    H6      19.102613   13.687589   20.301765 H          1 MOL1         0.0783
      14    C5      18.532887   15.774205   20.212865 C.3        1 MOL1         0.1043
      15    H7      18.505664   16.627461   20.898956 H          1 MOL1         0.0783
      16    O4      17.196257   15.481956   19.741131 O.3        1 MOL1        -0.3740
      17    C6      19.411114   16.186871   19.005036 C.3        1 MOL1         0.0138
      18    H8      20.187362   16.874103   19.364228 H          1 MOL1         0.0794
      19    H9      18.790677   16.754557   18.299050 H          1 MOL1         0.0794
      20    O5      20.018152   15.069516   18.342394 O.3        1 MOL1        -0.5486
      21    H10     20.660682   14.667830   18.971912 H          1 MOL1         0.3769
      22    C7      14.750687   20.296769   21.538674 C.3        1 MOL1         0.2972
      23    H11     14.138581   21.207697   21.509229 H          1 MOL1         0.0751
      24    O6      16.157305   20.607191   21.524177 O.3        1 MOL1        -0.3740
      25    C8      14.414559   19.494028   22.815264 C.3        1 MOL1         0.1003
      26    H12     13.345751   19.246820   22.773074 H          1 MOL1         0.0783
      27    O7      14.674227   20.278198   23.991477 O.3        1 MOL1        -0.5519
      28    H13     15.117666   21.111269   23.693992 H          1 MOL1         0.3769
      29    C9      15.208418   18.171180   22.868346 C.3        1 MOL1         0.1053
      30    H14     16.263842   18.421992   23.034411 H          1 MOL1         0.0783
      31    O8      14.727682   17.386088   23.964941 O.3        1 MOL1        -0.5519
      32    H15     14.698436   18.007536   24.725853 H          1 MOL1         0.3769
      33    C10     15.109203   17.357109   21.551111 C.3        1 MOL1         0.1018
      34    H16     14.145865   16.831091   21.544413 H          1 MOL1         0.0783
      35    C11     15.245952   18.244061   20.267972 C.3        1 MOL1         0.1043
      36    H17     16.304837   18.498026   20.142980 H          1 MOL1         0.0783
      37    O9      14.472186   19.466170   20.397294 O.3        1 MOL1        -0.3740
      38    C12     14.770296   17.574693   18.952882 C.3        1 MOL1         0.0138
      39    H18     15.533106   16.869765   18.604183 H          1 MOL1         0.0794
      40    H19     14.687787   18.350703   18.179800 H          1 MOL1         0.0794
      41    O10     13.514951   16.901669   19.108913 O.3        1 MOL1        -0.5486
      42    H20     13.234300   16.585376   18.222472 H          1 MOL1         0.3769
      43    C13     18.549481   23.995967   20.824425 C.3        1 MOL1         0.2972
      44    H21     18.904309   24.971137   20.466484 H          1 MOL1         0.0751
      45    O11     19.591496   23.259425   21.489333 O.3        1 MOL1        -0.3740
      46    C14     17.409536   24.172933   21.862319 C.3        1 MOL1         0.1003
      47    H22     16.603704   24.738935   21.377249 H          1 MOL1         0.0783
      48    O12     17.882673   24.901047   23.007894 O.3        1 MOL1        -0.5519
      49    H23     18.775906   24.538610   23.230863 H          1 MOL1         0.3769
      50    C15     16.838366   22.799359   22.301780 C.3        1 MOL1         0.1053
      51    H24     17.613822   22.270648   22.872820 H          1 MOL1         0.0783
      52    O13     15.683158   23.000122   23.123029 O.3        1 MOL1        -0.5519
      53    H25     15.936643   23.714264   23.750066 H          1 MOL1         0.3769
      54    C16     16.474062   21.938071   21.068078 C.3        1 MOL1         0.1018
      55    H26     15.622587   22.404865   20.554794 H          1 MOL1         0.0783
      56    C17     17.656326   21.850078   20.067943 C.3        1 MOL1         0.1043
      57    H27     18.498504   21.342237   20.552667 H          1 MOL1         0.0783
      58    O14     18.055216   23.197612   19.723392 O.3        1 MOL1        -0.3740
      59    C18     17.338367   21.063152   18.769962 C.3        1 MOL1         0.0138
      60    H28     17.549775   20.000999   18.949258 H          1 MOL1         0.0794
      61    H29     18.027064   21.394892   17.981723 H          1 MOL1         0.0794
      62    O15     15.980612   21.214276   18.335392 O.3        1 MOL1        -0.5486
      63    H30     15.411157   20.727756   18.975461 H          1 MOL1         0.3769
      64    C19     23.656835   22.812806   21.747737 C.3        1 MOL1         0.2972
      65    H31     24.749535   22.911161   21.786056 H          1 MOL1         0.0751
      66    O16     23.246744   21.432662   21.828665 O.3        1 MOL1        -0.3740
      67    C20     23.025133   23.588604   22.927227 C.3        1 MOL1         0.1003
      68    H32     23.298227   24.645909   22.814718 H          1 MOL1         0.0783
      69    O17     23.531056   23.094568   24.177713 O.3        1 MOL1        -0.5519
      70    H33     23.896555   22.192977   24.000564 H          1 MOL1         0.3769
      71    C21     21.484711   23.483174   22.887601 C.3        1 MOL1         0.1053
      72    H34     21.220058   22.443363   23.108086 H          1 MOL1         0.0783
      73    O18     20.911729   24.339554   23.881837 O.3        1 MOL1        -0.5519
      74    H35     21.430838   24.163456   24.697924 H          1 MOL1         0.3769
      75    C22     20.907704   23.841062   21.496010 C.3        1 MOL1         0.1018
      76    H36     20.877146   24.934720   21.403879 H          1 MOL1         0.0783
      77    C23     21.707948   23.216260   20.315707 C.3        1 MOL1         0.1043
      78    H37     21.457105   22.149680   20.281468 H          1 MOL1         0.0783
      79    O19     23.137554   23.361397   20.520118 O.3        1 MOL1        -0.3740
      80    C24     21.362462   23.815590   18.931011 C.3        1 MOL1         0.0138
      81    H38     20.367548   23.462880   18.631216 H          1 MOL1         0.0794
      82    H39     22.076847   23.426629   18.192909 H          1 MOL1         0.0794
      83    O20     21.389629   25.248203   18.941373 O.3        1 MOL1        -0.5486
      84    H40     21.228362   25.555767   18.022739 H          1 MOL1         0.3769
      85    C25     25.004132   17.631990   21.305598 C.3        1 MOL1         0.2972
      86    H41     25.721021   16.858131   21.002047 H          1 MOL1         0.0751
      87    O21     23.813677   17.051065   21.870239 O.3        1 MOL1        -0.3740
      88    C26     25.626553   18.541134   22.399675 C.3        1 MOL1         0.1003
      89    H42     26.566340   18.943451   21.999727 H          1 MOL1         0.0783
      90    O22     25.900762   17.774330   23.583259 O.3        1 MOL1        -0.5519
      91    H43     25.132596   17.165515   23.704471 H          1 MOL1         0.3769
      92    C27     24.700264   19.736960   22.742679 C.3        1 MOL1         0.1053
      93    H44     23.803833   19.346562   23.242911 H          1 MOL1         0.0783
      94    O23     25.385910   20.643042   23.613861 O.3        1 MOL1        -0.5519
      95    H45     25.799565   20.074704   24.301241 H          1 MOL1         0.3769
      96    C28     24.252193   20.471162   21.456937 C.3        1 MOL1         0.1018
      97    H46     25.127727   20.951826   21.000233 H          1 MOL1         0.0783
      98    C29     23.643615   19.475518   20.436369 C.3        1 MOL1         0.1043
      99    H47     22.747815   19.020522   20.876859 H          1 MOL1         0.0783
     100    O24     24.631587   18.452172   20.175500 O.3        1 MOL1        -0.3740
     101    C30     23.223217   20.102467   19.082299 C.3        1 MOL1         0.0138
     102    H48     22.189150   20.457270   19.168668 H          1 MOL1         0.0794
     103    H49     23.221320   19.313404   18.318623 H          1 MOL1         0.0794
     104    O25     24.073133   21.180364   18.670646 O.3        1 MOL1        -0.5486
     105    H50     23.886617   21.944424   19.264936 H          1 MOL1         0.3769
     106    C31     21.308245   13.805451   21.451803 C.3        1 MOL1         0.2972
     107    H51     20.834727   12.824221   21.316058 H          1 MOL1         0.0751
     108    O26     20.326060   14.854380   21.563228 O.3        1 MOL1        -0.3740
     109    C32     22.174270   13.790575   22.731277 C.3        1 MOL1         0.1003
     110    H52     22.957564   13.033552   22.595143 H          1 MOL1         0.0783
     111    O27     21.372846   13.449596   23.874005 O.3        1 MOL1        -0.5519
     112    H53     20.429133   13.530840   23.592252 H          1 MOL1         0.3769
     113    C33     22.856730   15.159784   22.935869 C.3        1 MOL1         0.1053
     114    H54     22.065974   15.884409   23.160012 H          1 MOL1         0.0783
     115    O28     23.763944   15.083583   24.040936 O.3        1 MOL1        -0.5519
     116    H55     23.255879   14.637505   24.754457 H          1 MOL1         0.3769
     117    C34     23.611401   15.635750   21.667298 C.3        1 MOL1         0.1018
     118    H56     24.564802   15.093867   21.617321 H          1 MOL1         0.0783
     119    C35     22.798689   15.420672   20.351695 C.3        1 MOL1         0.1043
     120    H57     22.024815   16.195771   20.312943 H          1 MOL1         0.0783
     121    O29     22.164196   14.115046   20.336035 O.3        1 MOL1        -0.3740
     122    C36     23.633023   15.526244   19.050826 C.3        1 MOL1         0.0138
     123    H58     23.841133   16.580988   18.839968 H          1 MOL1         0.0794
     124    H59     23.024346   15.153872   18.215749 H          1 MOL1         0.0794
     125    O30     24.859744   14.790065   19.132701 O.3        1 MOL1        -0.5486
     126    H60     25.303659   14.853685   18.259053 H          1 MOL1         0.3769
     127    C1      20.873334   18.298065   22.941002 C.3        1 MOL1        -0.1693
     128    H1      21.758665   18.071083   23.544471 H          1 MOL1         0.0829
     129    H2      20.980642   17.827004   21.956179 H          1 MOL1         0.0829
     130    C2      20.450599   19.800627   22.904678 C.3        1 MOL1        -0.1768
     131    H3      20.691161   20.356919   23.817757 H          1 MOL1         0.0829
     132    H4      20.788760   20.374250   22.036228 H          1 MOL1         0.0829
     133    C3      18.981868   19.289841   22.836568 C.3        1 MOL1         0.1211
     134    H5      18.255721   19.910414   23.376730 H          1 MOL1         0.0786
     135    C4      19.491390   18.045528   23.625959 C.3        1 MOL1        -0.1768
     136    H6      19.002311   17.096853   23.384188 H          1 MOL1         0.0829
     137    H7      19.493069   18.173241   24.714733 H          1 MOL1         0.0829
     138    O1      18.517065   19.020535   21.531647 O.3        1 MOL1        -0.5515
     139    H8      17.629902   19.433486   21.467416 H          1 MOL1         0.3773
@<TRIPOS>BOND
    1     1     2    1
    2     1     3    1
    3     1     4    1
    4     4     5    1
    5     4     6    1
    6     6     7    1
    7     4     8    1
    8     8     9    1
    9     8    10    1
   10    10    11    1
   11     8    12    1
   12    12    13    1
   13    12    14    1
   14    14    15    1
   15     1    16    1
   16    14    16    1
   17    14    17    1
   18    17    18    1
   19    17    19    1
   20    17    20    1
   21    20    21    1
   22    22    23    1
   23    22    24    1
   24    22    25    1
   25    25    26    1
   26    25    27    1
   27    27    28    1
   28    25    29    1
   29    29    30    1
   30    29    31    1
   31    31    32    1
   32     3    33    1
   33    29    33    1
   34    33    34    1
   35    33    35    1
   36    35    36    1
   37    22    37    1
   38    35    37    1
   39    35    38    1
   40    38    39    1
   41    38    40    1
   42    38    41    1
   43    41    42    1
   44    43    44    1
   45    43    45    1
   46    43    46    1
   47    46    47    1
   48    46    48    1
   49    48    49    1
   50    46    50    1
   51    50    51    1
   52    50    52    1
   53    52    53    1
   54    24    54    1
   55    50    54    1
   56    54    55    1
   57    54    56    1
   58    56    57    1
   59    43    58    1
   60    56    58    1
   61    56    59    1
   62    59    60    1
   63    59    61    1
   64    59    62    1
   65    62    63    1
   66    64    65    1
   67    64    66    1
   68    64    67    1
   69    67    68    1
   70    67    69    1
   71    69    70    1
   72    67    71    1
   73    71    72    1
   74    71    73    1
   75    73    74    1
   76    45    75    1
   77    71    75    1
   78    75    76    1
   79    75    77    1
   80    77    78    1
   81    64    79    1
   82    77    79    1
   83    77    80    1
   84    80    81    1
   85    80    82    1
   86    80    83    1
   87    83    84    1
   88    85    86    1
   89    85    87    1
   90    85    88    1
   91    88    89    1
   92    88    90    1
   93    90    91    1
   94    88    92    1
   95    92    93    1
   96    92    94    1
   97    94    95    1
   98    66    96    1
   99    92    96    1
  100    96    97    1
  101    96    98    1
  102    98    99    1
  103    85   100    1
  104    98   100    1
  105    98   101    1
  106   101   102    1
  107   101   103    1
  108   101   104    1
  109   104   105    1
  110   106   107    1
  111    12   108    1
  112   106   108    1
  113   106   109    1
  114   109   110    1
  115   109   111    1
  116   111   112    1
  117   109   113    1
  118   113   114    1
  119   113   115    1
  120   115   116    1
  121    87   117    1
  122   113   117    1
  123   117   118    1
  124   117   119    1
  125   119   120    1
  126   106   121    1
  127   119   121    1
  128   119   122    1
  129   122   123    1
  130   122   124    1
  131   122   125    1
  132   125   126    1
  133   127   128    1
  134   127   129    1
  135   127   130    1
  136   130   131    1
  137   130   132    1
  138   130   133    1
  139   133   134    1
  140   127   135    1
  141   133   135    1
  142   135   136    1
  143   135   137    1
  144   133   138    1
  145   138   139    1
@<TRIPOS>SUBSTRUCTURE
       1 MOL1            1 RESIDUE      1      MOL     
       2 MOL1          139 RESIDUE      1      MOL     
@<SCITEGIC>MOL_PROPERTY
feprocess Rank
SciTegic.value.IntegerValue
172

@<SCITEGIC>MOL_PROPERTY
Conf_Id
SciTegic.value.IntegerValue
388

@<SCITEGIC>MOL_PROPERTY
Probability
SciTegic.value.DoubleValue
0.00

@<SCITEGIC>MOL_PROPERTY
G
SciTegic.value.DoubleValue
550.208

@<SCITEGIC>MOL_PROPERTY
E
SciTegic.value.DoubleValue
372.778

@<SCITEGIC>MOL_PROPERTY
-TS
SciTegic.value.DoubleValue
177.430

@<SCITEGIC>MOL_PROPERTY
U+W
SciTegic.value.DoubleValue
250.267

@<SCITEGIC>MOL_PROPERTY
U
SciTegic.value.DoubleValue
284.575

@<SCITEGIC>MOL_PROPERTY
W
SciTegic.value.DoubleValue
-34.308

@<SCITEGIC>MOL_PROPERTY
W(PB)
SciTegic.value.DoubleValue
-40.204

@<SCITEGIC>MOL_PROPERTY
W(SA)
SciTegic.value.DoubleValue
5.896

@<SCITEGIC>MOL_PROPERTY
Valence
SciTegic.value.DoubleValue
153.675

@<SCITEGIC>MOL_PROPERTY
Coulomb
SciTegic.value.DoubleValue
153.174

@<SCITEGIC>MOL_PROPERTY
VdW
SciTegic.value.DoubleValue
-22.275

@<SCITEGIC>MOL_PROPERTY
VdW6
SciTegic.value.DoubleValue
-168.958

@<SCITEGIC>MOL_PROPERTY
VdW12
SciTegic.value.DoubleValue
146.684

@<SCITEGIC>MOL_PROPERTY
Bond
SciTegic.value.DoubleValue
4.574

@<SCITEGIC>MOL_PROPERTY
Angle
SciTegic.value.DoubleValue
11.941

@<SCITEGIC>MOL_PROPERTY
Pdih
SciTegic.value.DoubleValue
137.159

@<SCITEGIC>MOL_PROPERTY
Idih
SciTegic.value.DoubleValue
0.000

@<SCITEGIC>MOL_PROPERTY
Tether
SciTegic.value.DoubleValue
0.000

@<TRIPOS>MOLECULE
CD_guest-s16_fast_vm2_rndm.mol2 : feprocess host+ligand conformer 173
         139         145           2
SMALL
USER_CHARGES
 
@<TRIPOS>ATOM
       1    C1      16.259556   15.221945   21.676303 C.3        1 MOL1         0.2972
       2    H1      15.171965   15.074294   21.652101 H          1 MOL1         0.0751
       3    O1      16.610151   16.608329   21.504933 O.3        1 MOL1        -0.3740
       4    C2      16.822225   14.757802   23.040769 C.3        1 MOL1         0.1003
       5    H2      16.600581   13.687766   23.146019 H          1 MOL1         0.0783
       6    O2      16.197898   15.481824   24.113344 O.3        1 MOL1        -0.5519
       7    H3      15.778560   16.281406   23.711508 H          1 MOL1         0.3769
       8    C3      18.356881   14.939717   23.086553 C.3        1 MOL1         0.1053
       9    H4      18.570397   16.015850   23.059801 H          1 MOL1         0.0783
      10    O3      18.865799   14.379989   24.299958 O.3        1 MOL1        -0.5519
      11    H5      18.247169   14.690274   24.999097 H          1 MOL1         0.3769
      12    C4      19.039564   14.275430   21.864682 C.3        1 MOL1         0.1018
      13    H6      19.023900   13.186786   22.003142 H          1 MOL1         0.0783
      14    C5      18.342655   14.639011   20.522965 C.3        1 MOL1         0.1043
      15    H7      18.553588   15.691878   20.310577 H          1 MOL1         0.0783
      16    O4      16.906125   14.462247   20.631049 O.3        1 MOL1        -0.3740
      17    C6      18.856847   13.830733   19.306236 C.3        1 MOL1         0.0138
      18    H8      19.850000   14.208296   19.028656 H          1 MOL1         0.0794
      19    H9      18.189853   14.021089   18.454812 H          1 MOL1         0.0794
      20    O5      18.931898   12.424452   19.566282 O.3        1 MOL1        -0.5486
      21    H10     19.793795   12.253472   20.003250 H          1 MOL1         0.3769
      22    C7      15.009604   20.246142   20.264901 C.3        1 MOL1         0.2972
      23    H11     14.406068   21.031472   19.791831 H          1 MOL1         0.0751
      24    O6      16.192339   20.784943   20.892716 O.3        1 MOL1        -0.3740
      25    C8      14.191718   19.503276   21.354677 C.3        1 MOL1         0.1003
      26    H12     13.318296   19.056220   20.862421 H          1 MOL1         0.0783
      27    O7      13.743693   20.410694   22.374284 O.3        1 MOL1        -0.5519
      28    H13     14.509887   20.992144   22.613047 H          1 MOL1         0.3769
      29    C9      15.026667   18.356756   21.978584 C.3        1 MOL1         0.1053
      30    H14     15.861602   18.807659   22.529912 H          1 MOL1         0.0783
      31    O8      14.214330   17.595192   22.877645 O.3        1 MOL1        -0.5519
      32    H15     13.715625   18.263258   23.399372 H          1 MOL1         0.3769
      33    C10     15.610288   17.432758   20.880633 C.3        1 MOL1         0.1018
      34    H16     14.794648   16.839227   20.446883 H          1 MOL1         0.0783
      35    C11     16.310637   18.235855   19.753520 C.3        1 MOL1         0.1043
      36    H17     17.202749   18.700889   20.180881 H          1 MOL1         0.0783
      37    O9      15.417757   19.271324   19.278204 O.3        1 MOL1        -0.3740
      38    C12     16.784268   17.384746   18.546098 C.3        1 MOL1         0.0138
      39    H18     17.813988   17.057212   18.735347 H          1 MOL1         0.0794
      40    H19     16.817036   18.027796   17.656504 H          1 MOL1         0.0794
      41    O10     15.956769   16.241806   18.295707 O.3        1 MOL1        -0.5486
      42    H20     16.133802   15.589884   19.013290 H          1 MOL1         0.3769
      43    C13     18.472191   24.208104   21.305726 C.3        1 MOL1         0.2972
      44    H21     18.899485   25.219047   21.320027 H          1 MOL1         0.0751
      45    O11     19.474165   23.200054   21.555780 O.3        1 MOL1        -0.3740
      46    C14     17.340782   24.060106   22.355519 C.3        1 MOL1         0.1003
      47    H22     16.535987   24.748186   22.065456 H          1 MOL1         0.0783
      48    O12     17.790105   24.404260   23.674508 O.3        1 MOL1        -0.5519
      49    H23     18.606143   23.873754   23.858992 H          1 MOL1         0.3769
      50    C15     16.767923   22.621792   22.325656 C.3        1 MOL1         0.1053
      51    H24     17.557713   21.932328   22.648035 H          1 MOL1         0.0783
      52    O13     15.653903   22.530804   23.219611 O.3        1 MOL1        -0.5519
      53    H25     15.944407   22.994925   24.036443 H          1 MOL1         0.3769
      54    C16     16.327365   22.221137   20.895040 C.3        1 MOL1         0.1018
      55    H26     15.374773   22.723063   20.680162 H          1 MOL1         0.0783
      56    C17     17.380009   22.594335   19.810222 C.3        1 MOL1         0.1043
      57    H27     18.219509   21.894038   19.892064 H          1 MOL1         0.0783
      58    O14     17.878088   23.940956   20.017325 O.3        1 MOL1        -0.3740
      59    C18     16.836500   22.489817   18.365039 C.3        1 MOL1         0.0138
      60    H28     16.697086   21.428084   18.121004 H          1 MOL1         0.0794
      61    H29     17.594746   22.885524   17.676188 H          1 MOL1         0.0794
      62    O15     15.598126   23.192591   18.200258 O.3        1 MOL1        -0.5486
      63    H30     15.345791   23.132585   17.253030 H          1 MOL1         0.3769
      64    C19     23.397096   22.389015   22.470137 C.3        1 MOL1         0.2972
      65    H31     24.452874   22.397769   22.769998 H          1 MOL1         0.0751
      66    O16     23.034857   21.119112   21.884383 O.3        1 MOL1        -0.3740
      67    C20     22.505356   22.661026   23.707010 C.3        1 MOL1         0.1003
      68    H32     22.779471   23.650590   24.095219 H          1 MOL1         0.0783
      69    O17     22.719715   21.675528   24.731122 O.3        1 MOL1        -0.5519
      70    H33     22.501377   20.794487   24.344407 H          1 MOL1         0.3769
      71    C21     21.013576   22.696444   23.316873 C.3        1 MOL1         0.1053
      72    H34     20.738772   21.684003   23.016554 H          1 MOL1         0.0783
      73    O18     20.237002   23.085397   24.452636 O.3        1 MOL1        -0.5519
      74    H35     20.602446   22.563472   25.201845 H          1 MOL1         0.3769
      75    C22     20.730502   23.634931   22.118294 C.3        1 MOL1         0.1018
      76    H36     20.691604   24.671348   22.478910 H          1 MOL1         0.0783
      77    C23     21.780566   23.493194   20.980530 C.3        1 MOL1         0.1043
      78    H37     21.558944   22.557476   20.458024 H          1 MOL1         0.0783
      79    O19     23.135714   23.425983   21.498274 O.3        1 MOL1        -0.3740
      80    C24     21.704000   24.630246   19.933849 C.3        1 MOL1         0.0138
      81    H38     20.766710   24.522712   19.370986 H          1 MOL1         0.0794
      82    H39     22.529007   24.509611   19.219097 H          1 MOL1         0.0794
      83    O20     21.758207   25.925810   20.543320 O.3        1 MOL1        -0.5486
      84    H40     21.770734   26.593756   19.823329 H          1 MOL1         0.3769
      85    C25     24.720720   17.757144   20.175574 C.3        1 MOL1         0.2972
      86    H41     25.281045   17.003880   19.608358 H          1 MOL1         0.0751
      87    O21     23.520126   17.201796   20.755535 O.3        1 MOL1        -0.3740
      88    C26     25.599183   18.399300   21.279173 C.3        1 MOL1         0.1003
      89    H42     26.418241   18.923441   20.769450 H          1 MOL1         0.0783
      90    O22     26.162678   17.413362   22.156247 O.3        1 MOL1        -0.5519
      91    H43     25.408006   16.997247   22.644372 H          1 MOL1         0.3769
      92    C27     24.789449   19.452487   22.075479 C.3        1 MOL1         0.1053
      93    H44     24.019145   18.923351   22.651899 H          1 MOL1         0.0783
      94    O23     25.676374   20.137710   22.964632 O.3        1 MOL1        -0.5519
      95    H45     26.179953   19.431786   23.426082 H          1 MOL1         0.3769
      96    C28     24.087839   20.473325   21.133647 C.3        1 MOL1         0.1018
      97    H46     24.842646   21.194785   20.795207 H          1 MOL1         0.0783
      98    C29     23.425985   19.812459   19.887557 C.3        1 MOL1         0.1043
      99    H47     22.514681   19.303207   20.217029 H          1 MOL1         0.0783
     100    O24     24.323309   18.836006   19.303194 O.3        1 MOL1        -0.3740
     101    C30     22.992518   20.805561   18.777481 C.3        1 MOL1         0.0138
     102    H48     21.958428   21.114697   18.971559 H          1 MOL1         0.0794
     103    H49     22.980582   20.272255   17.817479 H          1 MOL1         0.0794
     104    O25     23.837143   21.960345   18.683575 O.3        1 MOL1        -0.5486
     105    H50     23.755653   22.459419   19.527731 H          1 MOL1         0.3769
     106    C31     21.457464   13.855650   21.952010 C.3        1 MOL1         0.2972
     107    H51     21.095140   12.861767   22.243201 H          1 MOL1         0.0751
     108    O26     20.379363   14.802245   21.806347 O.3        1 MOL1        -0.3740
     109    C32     22.440772   14.395731   23.017067 C.3        1 MOL1         0.1003
     110    H52     23.299906   13.713000   23.047677 H          1 MOL1         0.0783
     111    O27     21.825792   14.433500   24.314567 O.3        1 MOL1        -0.5519
     112    H53     20.858168   14.592849   24.179015 H          1 MOL1         0.3769
     113    C33     22.962618   15.796265   22.620654 C.3        1 MOL1         0.1053
     114    H54     22.121058   16.497312   22.675736 H          1 MOL1         0.0783
     115    O28     23.975108   16.190861   23.550406 O.3        1 MOL1        -0.5519
     116    H55     23.573237   16.041257   24.435440 H          1 MOL1         0.3769
     117    C34     23.522676   15.820549   21.172076 C.3        1 MOL1         0.1018
     118    H56     24.532627   15.391682   21.177354 H          1 MOL1         0.0783
     119    C35     22.618198   15.057359   20.158633 C.3        1 MOL1         0.1043
     120    H57     21.738164   15.682912   19.958947 H          1 MOL1         0.0783
     121    O29     22.173311   13.788414   20.702635 O.3        1 MOL1        -0.3740
     122    C36     23.302048   14.790239   18.795709 C.3        1 MOL1         0.0138
     123    H58     23.488545   15.751903   18.298783 H          1 MOL1         0.0794
     124    H59     22.601384   14.230893   18.161701 H          1 MOL1         0.0794
     125    O30     24.527907   14.058078   18.927650 O.3        1 MOL1        -0.5486
     126    H60     25.183446   14.629142   19.378234 H          1 MOL1         0.3769
     127    C1      19.652332   19.676409   21.360437 C.3        1 MOL1        -0.1693
     128    H1      18.920854   19.861956   20.571158 H          1 MOL1         0.0829
     129    H2      20.459474   20.407254   21.244884 H          1 MOL1         0.0829
     130    C2      20.120622   18.195560   21.538051 C.3        1 MOL1        -0.1768
     131    H3      19.344419   17.454668   21.328329 H          1 MOL1         0.0829
     132    H4      21.028490   17.897480   21.010189 H          1 MOL1         0.0829
     133    C3      20.276994   18.537276   23.053167 C.3        1 MOL1         0.1211
     134    H5      20.064007   17.711113   23.742900 H          1 MOL1         0.0786
     135    C4      19.085133   19.513661   22.813038 C.3        1 MOL1        -0.1768
     136    H6      18.100887   19.034916   22.864531 H          1 MOL1         0.0829
     137    H7      19.061616   20.404142   23.447297 H          1 MOL1         0.0829
     138    O1      21.499401   19.154889   23.403315 O.3        1 MOL1        -0.5515
     139    H8      21.791687   19.656998   22.613942 H          1 MOL1         0.3773
@<TRIPOS>BOND
    1     1     2    1
    2     1     3    1
    3     1     4    1
    4     4     5    1
    5     4     6    1
    6     6     7    1
    7     4     8    1
    8     8     9    1
    9     8    10    1
   10    10    11    1
   11     8    12    1
   12    12    13    1
   13    12    14    1
   14    14    15    1
   15     1    16    1
   16    14    16    1
   17    14    17    1
   18    17    18    1
   19    17    19    1
   20    17    20    1
   21    20    21    1
   22    22    23    1
   23    22    24    1
   24    22    25    1
   25    25    26    1
   26    25    27    1
   27    27    28    1
   28    25    29    1
   29    29    30    1
   30    29    31    1
   31    31    32    1
   32     3    33    1
   33    29    33    1
   34    33    34    1
   35    33    35    1
   36    35    36    1
   37    22    37    1
   38    35    37    1
   39    35    38    1
   40    38    39    1
   41    38    40    1
   42    38    41    1
   43    41    42    1
   44    43    44    1
   45    43    45    1
   46    43    46    1
   47    46    47    1
   48    46    48    1
   49    48    49    1
   50    46    50    1
   51    50    51    1
   52    50    52    1
   53    52    53    1
   54    24    54    1
   55    50    54    1
   56    54    55    1
   57    54    56    1
   58    56    57    1
   59    43    58    1
   60    56    58    1
   61    56    59    1
   62    59    60    1
   63    59    61    1
   64    59    62    1
   65    62    63    1
   66    64    65    1
   67    64    66    1
   68    64    67    1
   69    67    68    1
   70    67    69    1
   71    69    70    1
   72    67    71    1
   73    71    72    1
   74    71    73    1
   75    73    74    1
   76    45    75    1
   77    71    75    1
   78    75    76    1
   79    75    77    1
   80    77    78    1
   81    64    79    1
   82    77    79    1
   83    77    80    1
   84    80    81    1
   85    80    82    1
   86    80    83    1
   87    83    84    1
   88    85    86    1
   89    85    87    1
   90    85    88    1
   91    88    89    1
   92    88    90    1
   93    90    91    1
   94    88    92    1
   95    92    93    1
   96    92    94    1
   97    94    95    1
   98    66    96    1
   99    92    96    1
  100    96    97    1
  101    96    98    1
  102    98    99    1
  103    85   100    1
  104    98   100    1
  105    98   101    1
  106   101   102    1
  107   101   103    1
  108   101   104    1
  109   104   105    1
  110   106   107    1
  111    12   108    1
  112   106   108    1
  113   106   109    1
  114   109   110    1
  115   109   111    1
  116   111   112    1
  117   109   113    1
  118   113   114    1
  119   113   115    1
  120   115   116    1
  121    87   117    1
  122   113   117    1
  123   117   118    1
  124   117   119    1
  125   119   120    1
  126   106   121    1
  127   119   121    1
  128   119   122    1
  129   122   123    1
  130   122   124    1
  131   122   125    1
  132   125   126    1
  133   127   128    1
  134   127   129    1
  135   127   130    1
  136   130   131    1
  137   130   132    1
  138   130   133    1
  139   133   134    1
  140   127   135    1
  141   133   135    1
  142   135   136    1
  143   135   137    1
  144   133   138    1
  145   138   139    1
@<TRIPOS>SUBSTRUCTURE
       1 MOL1            1 RESIDUE      1      MOL     
       2 MOL1          139 RESIDUE      1      MOL     
@<SCITEGIC>MOL_PROPERTY
feprocess Rank
SciTegic.value.IntegerValue
173

@<SCITEGIC>MOL_PROPERTY
Conf_Id
SciTegic.value.IntegerValue
100

@<SCITEGIC>MOL_PROPERTY
Probability
SciTegic.value.DoubleValue
0.00

@<SCITEGIC>MOL_PROPERTY
G
SciTegic.value.DoubleValue
550.220

@<SCITEGIC>MOL_PROPERTY
E
SciTegic.value.DoubleValue
371.117

@<SCITEGIC>MOL_PROPERTY
-TS
SciTegic.value.DoubleValue
179.103

@<SCITEGIC>MOL_PROPERTY
U+W
SciTegic.value.DoubleValue
248.605

@<SCITEGIC>MOL_PROPERTY
U
SciTegic.value.DoubleValue
287.144

@<SCITEGIC>MOL_PROPERTY
W
SciTegic.value.DoubleValue
-38.539

@<SCITEGIC>MOL_PROPERTY
W(PB)
SciTegic.value.DoubleValue
-44.499

@<SCITEGIC>MOL_PROPERTY
W(SA)
SciTegic.value.DoubleValue
5.960

@<SCITEGIC>MOL_PROPERTY
Valence
SciTegic.value.DoubleValue
154.143

@<SCITEGIC>MOL_PROPERTY
Coulomb
SciTegic.value.DoubleValue
154.796

@<SCITEGIC>MOL_PROPERTY
VdW
SciTegic.value.DoubleValue
-21.795

@<SCITEGIC>MOL_PROPERTY
VdW6
SciTegic.value.DoubleValue
-171.856

@<SCITEGIC>MOL_PROPERTY
VdW12
SciTegic.value.DoubleValue
150.061

@<SCITEGIC>MOL_PROPERTY
Bond
SciTegic.value.DoubleValue
4.779

@<SCITEGIC>MOL_PROPERTY
Angle
SciTegic.value.DoubleValue
13.229

@<SCITEGIC>MOL_PROPERTY
Pdih
SciTegic.value.DoubleValue
136.135

@<SCITEGIC>MOL_PROPERTY
Idih
SciTegic.value.DoubleValue
0.000

@<SCITEGIC>MOL_PROPERTY
Tether
SciTegic.value.DoubleValue
0.000

@<TRIPOS>MOLECULE
CD_guest-s16_fast_vm2_rndm.mol2 : feprocess host+ligand conformer 174
         139         145           2
SMALL
USER_CHARGES
 
@<TRIPOS>ATOM
       1    C1      16.166991   15.074745   21.035403 C.3        1 MOL1         0.2972
       2    H1      15.118215   14.938915   20.742109 H          1 MOL1         0.0751
       3    O1      16.415686   16.412074   21.518231 O.3        1 MOL1        -0.3740
       4    C2      16.521915   14.085874   22.171368 C.3        1 MOL1         0.1003
       5    H2      16.355110   13.068109   21.795266 H          1 MOL1         0.0783
       6    O2      15.678395   14.322514   23.309899 O.3        1 MOL1        -0.5519
       7    H3      15.520629   15.297616   23.347886 H          1 MOL1         0.3769
       8    C3      18.010931   14.217346   22.567258 C.3        1 MOL1         0.1053
       9    H4      18.128233   15.195067   23.046294 H          1 MOL1         0.0783
      10    O3      18.359163   13.185209   23.494677 O.3        1 MOL1        -0.5519
      11    H5      17.644531   13.193257   24.169343 H          1 MOL1         0.3769
      12    C4      18.947907   14.152394   21.332364 C.3        1 MOL1         0.1018
      13    H6      18.978288   13.110754   20.986564 H          1 MOL1         0.0783
      14    C5      18.453556   15.065552   20.172139 C.3        1 MOL1         0.1043
      15    H7      18.579288   16.107353   20.486950 H          1 MOL1         0.0783
      16    O4      17.047767   14.815261   19.923204 O.3        1 MOL1        -0.3740
      17    C6      19.207447   14.905778   18.827088 C.3        1 MOL1         0.0138
      18    H8      20.063925   15.589506   18.823151 H          1 MOL1         0.0794
      19    H9      18.543922   15.229259   18.014024 H          1 MOL1         0.0794
      20    O5      19.656015   13.568902   18.583378 O.3        1 MOL1        -0.5486
      21    H10     20.521205   13.473448   19.045028 H          1 MOL1         0.3769
      22    C7      14.917676   20.313091   20.999541 C.3        1 MOL1         0.2972
      23    H11     14.267692   21.148070   20.707590 H          1 MOL1         0.0751
      24    O6      16.170485   20.777820   21.533488 O.3        1 MOL1        -0.3740
      25    C8      14.235646   19.446100   22.090547 C.3        1 MOL1         0.1003
      26    H12     13.268865   19.114950   21.689709 H          1 MOL1         0.0783
      27    O7      14.015925   20.215388   23.284965 O.3        1 MOL1        -0.5519
      28    H13     14.847703   20.721700   23.465151 H          1 MOL1         0.3769
      29    C9      15.075883   18.184420   22.413971 C.3        1 MOL1         0.1053
      30    H14     15.999373   18.508000   22.913295 H          1 MOL1         0.0783
      31    O8      14.330862   17.322772   23.281984 O.3        1 MOL1        -0.5519
      32    H15     13.975191   17.910775   23.984741 H          1 MOL1         0.3769
      33    C10     15.464450   17.421460   21.123498 C.3        1 MOL1         0.1018
      34    H16     14.553580   16.981081   20.696847 H          1 MOL1         0.0783
      35    C11     16.112948   18.378918   20.084461 C.3        1 MOL1         0.1043
      36    H17     17.053863   18.759580   20.501967 H          1 MOL1         0.0783
      37    O9      15.203313   19.480967   19.855108 O.3        1 MOL1        -0.3740
      38    C12     16.447085   17.751578   18.707819 C.3        1 MOL1         0.0138
      39    H18     17.443823   17.298524   18.762486 H          1 MOL1         0.0794
      40    H19     16.508159   18.557874   17.964753 H          1 MOL1         0.0794
      41    O10     15.493088   16.770990   18.286878 O.3        1 MOL1        -0.5486
      42    H20     15.786574   15.912789   18.669793 H          1 MOL1         0.3769
      43    C13     18.508592   24.166708   21.762679 C.3        1 MOL1         0.2972
      44    H21     18.924544   25.180321   21.829575 H          1 MOL1         0.0751
      45    O11     19.542784   23.176682   21.608106 O.3        1 MOL1        -0.3740
      46    C14     17.717932   23.840483   23.052100 C.3        1 MOL1         0.1003
      47    H22     16.893590   24.561290   23.129770 H          1 MOL1         0.0783
      48    O12     18.569624   23.962206   24.202496 O.3        1 MOL1        -0.5519
      49    H23     19.495889   23.825601   23.886333 H          1 MOL1         0.3769
      50    C15     17.110939   22.421176   22.976304 C.3        1 MOL1         0.1053
      51    H24     17.938914   21.703187   23.003659 H          1 MOL1         0.0783
      52    O13     16.250268   22.201016   24.099172 O.3        1 MOL1        -0.5519
      53    H25     16.764371   22.510972   24.877617 H          1 MOL1         0.3769
      54    C16     16.318178   22.205402   21.663980 C.3        1 MOL1         0.1018
      55    H26     15.348207   22.710450   21.764301 H          1 MOL1         0.0783
      56    C17     17.067277   22.728181   20.402001 C.3        1 MOL1         0.1043
      57    H27     17.889820   22.033049   20.192555 H          1 MOL1         0.0783
      58    O14     17.612976   24.052251   20.638909 O.3        1 MOL1        -0.3740
      59    C18     16.188383   22.796042   19.129707 C.3        1 MOL1         0.0138
      60    H28     16.001111   21.773798   18.775846 H          1 MOL1         0.0794
      61    H29     16.752917   23.312108   18.341461 H          1 MOL1         0.0794
      62    O15     14.943964   23.465085   19.368629 O.3        1 MOL1        -0.5486
      63    H30     14.475623   23.539135   18.508596 H          1 MOL1         0.3769
      64    C19     23.514808   22.695122   20.512550 C.3        1 MOL1         0.2972
      65    H31     24.535437   22.798852   20.122351 H          1 MOL1         0.0751
      66    O16     23.234536   21.329130   20.894958 O.3        1 MOL1        -0.3740
      67    C20     23.272381   23.650068   21.715091 C.3        1 MOL1         0.1003
      68    H32     23.373287   24.674817   21.334341 H          1 MOL1         0.0783
      69    O17     24.228413   23.458933   22.767583 O.3        1 MOL1        -0.5519
      70    H33     24.075129   22.551036   23.131854 H          1 MOL1         0.3769
      71    C21     21.828556   23.484335   22.247257 C.3        1 MOL1         0.1053
      72    H34     21.725546   22.469652   22.655475 H          1 MOL1         0.0783
      73    O18     21.574496   24.446480   23.276560 O.3        1 MOL1        -0.5519
      74    H35     22.374450   24.431413   23.847679 H          1 MOL1         0.3769
      75    C22     20.800291   23.658985   21.102481 C.3        1 MOL1         0.1018
      76    H36     20.759249   24.724095   20.839462 H          1 MOL1         0.0783
      77    C23     21.164754   22.835251   19.832581 C.3        1 MOL1         0.1043
      78    H37     21.026778   21.771039   20.053527 H          1 MOL1         0.0783
      79    O19     22.556333   23.065483   19.494106 O.3        1 MOL1        -0.3740
      80    C24     20.288057   23.137619   18.588481 C.3        1 MOL1         0.0138
      81    H38     19.432815   22.450459   18.591504 H          1 MOL1         0.0794
      82    H39     20.871739   22.910279   17.686451 H          1 MOL1         0.0794
      83    O20     19.812583   24.488073   18.538076 O.3        1 MOL1        -0.5486
      84    H40     19.071783   24.556718   19.184537 H          1 MOL1         0.3769
      85    C25     24.905130   17.708013   22.022501 C.3        1 MOL1         0.2972
      86    H41     25.556951   16.886563   22.346721 H          1 MOL1         0.0751
      87    O21     23.635091   17.220296   21.544612 O.3        1 MOL1        -0.3740
      88    C26     24.671424   18.704513   23.188398 C.3        1 MOL1         0.1003
      89    H42     25.654163   19.106439   23.467637 H          1 MOL1         0.0783
      90    O22     24.086717   18.066494   24.334563 O.3        1 MOL1        -0.5519
      91    H43     24.063047   17.096456   24.149546 H          1 MOL1         0.3769
      92    C27     23.784268   19.887282   22.739282 C.3        1 MOL1         0.1053
      93    H44     22.780982   19.497675   22.533338 H          1 MOL1         0.0783
      94    O23     23.716355   20.837889   23.805742 O.3        1 MOL1        -0.5519
      95    H45     23.541810   20.292298   24.606069 H          1 MOL1         0.3769
      96    C28     24.320155   20.552114   21.444811 C.3        1 MOL1         0.1018
      97    H46     25.186634   21.176013   21.700498 H          1 MOL1         0.0783
      98    C29     24.722700   19.507404   20.363702 C.3        1 MOL1         0.1043
      99    H47     23.801243   19.075285   19.952062 H          1 MOL1         0.0783
     100    O24     25.523239   18.445659   20.946739 O.3        1 MOL1        -0.3740
     101    C30     25.508037   20.119399   19.178997 C.3        1 MOL1         0.0138
     102    H48     24.818163   20.733737   18.584711 H          1 MOL1         0.0794
     103    H49     25.858041   19.303707   18.532203 H          1 MOL1         0.0794
     104    O25     26.614365   20.918192   19.617172 O.3        1 MOL1        -0.5486
     105    H50     27.110247   21.204013   18.818936 H          1 MOL1         0.3769
     106    C31     21.353850   13.732033   21.501033 C.3        1 MOL1         0.2972
     107    H51     21.017615   12.692267   21.398812 H          1 MOL1         0.0751
     108    O26     20.243660   14.613267   21.781066 O.3        1 MOL1        -0.3740
     109    C32     22.364738   13.828346   22.670041 C.3        1 MOL1         0.1003
     110    H52     23.190806   13.142543   22.440561 H          1 MOL1         0.0783
     111    O27     21.745886   13.422463   23.900781 O.3        1 MOL1        -0.5519
     112    H53     20.797960   13.688741   23.845060 H          1 MOL1         0.3769
     113    C33     22.959467   15.251371   22.807011 C.3        1 MOL1         0.1053
     114    H54     22.169309   15.923802   23.160726 H          1 MOL1         0.0783
     115    O28     24.021283   15.208637   23.765316 O.3        1 MOL1        -0.5519
     116    H55     23.674227   14.653624   24.500694 H          1 MOL1         0.3769
     117    C34     23.476415   15.789820   21.446821 C.3        1 MOL1         0.1018
     118    H56     24.423976   15.294717   21.198812 H          1 MOL1         0.0783
     119    C35     22.459601   15.550591   20.297773 C.3        1 MOL1         0.1043
     120    H57     21.595200   16.202147   20.470754 H          1 MOL1         0.0783
     121    O29     22.013339   14.172001   20.294993 O.3        1 MOL1        -0.3740
     122    C36     23.017483   15.899949   18.894741 C.3        1 MOL1         0.0138
     123    H58     23.052410   16.993105   18.795528 H          1 MOL1         0.0794
     124    H59     22.317243   15.528491   18.135187 H          1 MOL1         0.0794
     125    O30     24.321540   15.354405   18.663829 O.3        1 MOL1        -0.5486
     126    H60     24.959688   15.887285   19.185617 H          1 MOL1         0.3769
     127    C1      19.753580   19.813736   22.014710 C.3        1 MOL1        -0.1693
     128    H1      18.785696   20.120870   21.603828 H          1 MOL1         0.0829
     129    H2      20.495235   20.585696   21.795047 H          1 MOL1         0.0829
     130    C2      20.168425   18.352095   21.663228 C.3        1 MOL1        -0.1768
     131    H3      21.240294   18.153544   21.739897 H          1 MOL1         0.0829
     132    H4      19.808176   17.976262   20.701560 H          1 MOL1         0.0829
     133    C3      19.351491   17.934803   22.921361 C.3        1 MOL1         0.1211
     134    H5      18.278726   17.801221   22.734724 H          1 MOL1         0.0786
     135    C4      19.721976   19.330938   23.499396 C.3        1 MOL1        -0.1768
     136    H6      20.691579   19.364108   24.011346 H          1 MOL1         0.0829
     137    H7      18.967393   19.793362   24.144360 H          1 MOL1         0.0829
     138    O1      19.878897   16.846991   23.639718 O.3        1 MOL1        -0.5515
     139    H8      19.929857   16.085359   23.023104 H          1 MOL1         0.3773
@<TRIPOS>BOND
    1     1     2    1
    2     1     3    1
    3     1     4    1
    4     4     5    1
    5     4     6    1
    6     6     7    1
    7     4     8    1
    8     8     9    1
    9     8    10    1
   10    10    11    1
   11     8    12    1
   12    12    13    1
   13    12    14    1
   14    14    15    1
   15     1    16    1
   16    14    16    1
   17    14    17    1
   18    17    18    1
   19    17    19    1
   20    17    20    1
   21    20    21    1
   22    22    23    1
   23    22    24    1
   24    22    25    1
   25    25    26    1
   26    25    27    1
   27    27    28    1
   28    25    29    1
   29    29    30    1
   30    29    31    1
   31    31    32    1
   32     3    33    1
   33    29    33    1
   34    33    34    1
   35    33    35    1
   36    35    36    1
   37    22    37    1
   38    35    37    1
   39    35    38    1
   40    38    39    1
   41    38    40    1
   42    38    41    1
   43    41    42    1
   44    43    44    1
   45    43    45    1
   46    43    46    1
   47    46    47    1
   48    46    48    1
   49    48    49    1
   50    46    50    1
   51    50    51    1
   52    50    52    1
   53    52    53    1
   54    24    54    1
   55    50    54    1
   56    54    55    1
   57    54    56    1
   58    56    57    1
   59    43    58    1
   60    56    58    1
   61    56    59    1
   62    59    60    1
   63    59    61    1
   64    59    62    1
   65    62    63    1
   66    64    65    1
   67    64    66    1
   68    64    67    1
   69    67    68    1
   70    67    69    1
   71    69    70    1
   72    67    71    1
   73    71    72    1
   74    71    73    1
   75    73    74    1
   76    45    75    1
   77    71    75    1
   78    75    76    1
   79    75    77    1
   80    77    78    1
   81    64    79    1
   82    77    79    1
   83    77    80    1
   84    80    81    1
   85    80    82    1
   86    80    83    1
   87    83    84    1
   88    85    86    1
   89    85    87    1
   90    85    88    1
   91    88    89    1
   92    88    90    1
   93    90    91    1
   94    88    92    1
   95    92    93    1
   96    92    94    1
   97    94    95    1
   98    66    96    1
   99    92    96    1
  100    96    97    1
  101    96    98    1
  102    98    99    1
  103    85   100    1
  104    98   100    1
  105    98   101    1
  106   101   102    1
  107   101   103    1
  108   101   104    1
  109   104   105    1
  110   106   107    1
  111    12   108    1
  112   106   108    1
  113   106   109    1
  114   109   110    1
  115   109   111    1
  116   111   112    1
  117   109   113    1
  118   113   114    1
  119   113   115    1
  120   115   116    1
  121    87   117    1
  122   113   117    1
  123   117   118    1
  124   117   119    1
  125   119   120    1
  126   106   121    1
  127   119   121    1
  128   119   122    1
  129   122   123    1
  130   122   124    1
  131   122   125    1
  132   125   126    1
  133   127   128    1
  134   127   129    1
  135   127   130    1
  136   130   131    1
  137   130   132    1
  138   130   133    1
  139   133   134    1
  140   127   135    1
  141   133   135    1
  142   135   136    1
  143   135   137    1
  144   133   138    1
  145   138   139    1
@<TRIPOS>SUBSTRUCTURE
       1 MOL1            1 RESIDUE      1      MOL     
       2 MOL1          139 RESIDUE      1      MOL     
@<SCITEGIC>MOL_PROPERTY
feprocess Rank
SciTegic.value.IntegerValue
174

@<SCITEGIC>MOL_PROPERTY
Conf_Id
SciTegic.value.IntegerValue
117

@<SCITEGIC>MOL_PROPERTY
Probability
SciTegic.value.DoubleValue
0.00

@<SCITEGIC>MOL_PROPERTY
G
SciTegic.value.DoubleValue
550.246

@<SCITEGIC>MOL_PROPERTY
E
SciTegic.value.DoubleValue
371.943

@<SCITEGIC>MOL_PROPERTY
-TS
SciTegic.value.DoubleValue
178.303

@<SCITEGIC>MOL_PROPERTY
U+W
SciTegic.value.DoubleValue
249.432

@<SCITEGIC>MOL_PROPERTY
U
SciTegic.value.DoubleValue
287.294

@<SCITEGIC>MOL_PROPERTY
W
SciTegic.value.DoubleValue
-37.862

@<SCITEGIC>MOL_PROPERTY
W(PB)
SciTegic.value.DoubleValue
-43.843

@<SCITEGIC>MOL_PROPERTY
W(SA)
SciTegic.value.DoubleValue
5.981

@<SCITEGIC>MOL_PROPERTY
Valence
SciTegic.value.DoubleValue
154.091

@<SCITEGIC>MOL_PROPERTY
Coulomb
SciTegic.value.DoubleValue
154.782

@<SCITEGIC>MOL_PROPERTY
VdW
SciTegic.value.DoubleValue
-21.580

@<SCITEGIC>MOL_PROPERTY
VdW6
SciTegic.value.DoubleValue
-169.084

@<SCITEGIC>MOL_PROPERTY
VdW12
SciTegic.value.DoubleValue
147.504

@<SCITEGIC>MOL_PROPERTY
Bond
SciTegic.value.DoubleValue
4.692

@<SCITEGIC>MOL_PROPERTY
Angle
SciTegic.value.DoubleValue
11.771

@<SCITEGIC>MOL_PROPERTY
Pdih
SciTegic.value.DoubleValue
137.629

@<SCITEGIC>MOL_PROPERTY
Idih
SciTegic.value.DoubleValue
0.000

@<SCITEGIC>MOL_PROPERTY
Tether
SciTegic.value.DoubleValue
0.000

@<TRIPOS>MOLECULE
CD_guest-s16_fast_vm2_rndm.mol2 : feprocess host+ligand conformer 175
         139         145           2
SMALL
USER_CHARGES
 
@<TRIPOS>ATOM
       1    C1      15.970447   14.942346   21.389064 C.3        1 MOL1         0.2972
       2    H1      14.885536   14.784277   21.436458 H          1 MOL1         0.0751
       3    O1      16.331469   16.311581   21.652997 O.3        1 MOL1        -0.3740
       4    C2      16.681251   14.068751   22.447055 C.3        1 MOL1         0.1003
       5    H2      16.497910   13.015789   22.196451 H          1 MOL1         0.0783
       6    O2      16.160791   14.352850   23.756032 O.3        1 MOL1        -0.5519
       7    H3      15.957082   15.320953   23.781500 H          1 MOL1         0.3769
       8    C3      18.205189   14.321824   22.407751 C.3        1 MOL1         0.1053
       9    H4      18.376124   15.341969   22.768353 H          1 MOL1         0.0783
      10    O3      18.875529   13.397818   23.270819 O.3        1 MOL1        -0.5519
      11    H5      18.357770   13.407061   24.106527 H          1 MOL1         0.3769
      12    C4      18.785108   14.217760   20.974377 C.3        1 MOL1         0.1018
      13    H6      18.952089   13.156526   20.747062 H          1 MOL1         0.0783
      14    C5      17.892242   14.873852   19.878494 C.3        1 MOL1         0.1043
      15    H7      18.036168   15.960462   19.940037 H          1 MOL1         0.0783
      16    O4      16.488773   14.575830   20.095544 O.3        1 MOL1        -0.3740
      17    C6      18.263577   14.450088   18.437065 C.3        1 MOL1         0.0138
      18    H8      19.223834   14.912673   18.172334 H          1 MOL1         0.0794
      19    H9      17.508531   14.852076   17.748275 H          1 MOL1         0.0794
      20    O5      18.354771   13.026885   18.298660 O.3        1 MOL1        -0.5486
      21    H10     18.515915   12.829145   17.350190 H          1 MOL1         0.3769
      22    C7      14.802745   20.180519   21.610921 C.3        1 MOL1         0.2972
      23    H11     14.135221   21.050396   21.560791 H          1 MOL1         0.0751
      24    O6      16.183947   20.577552   21.709177 O.3        1 MOL1        -0.3740
      25    C8      14.457986   19.332121   22.860605 C.3        1 MOL1         0.1003
      26    H12     13.408965   19.021375   22.770903 H          1 MOL1         0.0783
      27    O7      14.621760   20.111544   24.056222 O.3        1 MOL1        -0.5519
      28    H13     15.252105   20.842037   23.837709 H          1 MOL1         0.3769
      29    C9      15.330845   18.057248   22.921889 C.3        1 MOL1         0.1053
      30    H14     16.370105   18.363211   23.101097 H          1 MOL1         0.0783
      31    O8      14.884499   17.215028   23.990521 O.3        1 MOL1        -0.5519
      32    H15     14.773252   17.818663   24.758570 H          1 MOL1         0.3769
      33    C10     15.277148   17.283920   21.583241 C.3        1 MOL1         0.1018
      34    H16     14.286517   16.820957   21.484628 H          1 MOL1         0.0783
      35    C11     15.550998   18.212210   20.367878 C.3        1 MOL1         0.1043
      36    H17     16.591217   18.554285   20.438504 H          1 MOL1         0.0783
      37    O9      14.662826   19.357382   20.431903 O.3        1 MOL1        -0.3740
      38    C12     15.392524   17.542296   18.978754 C.3        1 MOL1         0.0138
      39    H18     16.342169   17.061627   18.712379 H          1 MOL1         0.0794
      40    H19     15.212950   18.326219   18.230821 H          1 MOL1         0.0794
      41    O10     14.339907   16.573220   18.936204 O.3        1 MOL1        -0.5486
      42    H20     14.731261   15.718995   19.227448 H          1 MOL1         0.3769
      43    C13     18.610498   23.906514   20.958757 C.3        1 MOL1         0.2972
      44    H21     18.963235   24.896801   20.642675 H          1 MOL1         0.0751
      45    O11     19.689937   23.097238   21.458317 O.3        1 MOL1        -0.3740
      46    C14     17.567808   24.060748   22.095204 C.3        1 MOL1         0.1003
      47    H22     16.741370   24.669982   21.706784 H          1 MOL1         0.0783
      48    O12     18.155858   24.724076   23.224867 O.3        1 MOL1        -0.5519
      49    H23     19.126281   24.544006   23.179817 H          1 MOL1         0.3769
      50    C15     16.994645   22.685621   22.511709 C.3        1 MOL1         0.1053
      51    H24     17.803302   22.100890   22.972331 H          1 MOL1         0.0783
      52    O13     15.930544   22.870830   23.451379 O.3        1 MOL1        -0.5519
      53    H25     16.278305   23.520377   24.102547 H          1 MOL1         0.3769
      54    C16     16.479388   21.916565   21.272729 C.3        1 MOL1         0.1018
      55    H26     15.590721   22.431082   20.883711 H          1 MOL1         0.0783
      56    C17     17.557159   21.849988   20.157054 C.3        1 MOL1         0.1043
      57    H27     18.400454   21.262058   20.539285 H          1 MOL1         0.0783
      58    O14     18.005673   23.196380   19.854522 O.3        1 MOL1        -0.3740
      59    C18     17.094117   21.177942   18.838787 C.3        1 MOL1         0.0138
      60    H28     17.255719   20.096408   18.922810 H          1 MOL1         0.0794
      61    H29     17.736655   21.530938   18.021045 H          1 MOL1         0.0794
      62    O15     15.720027   21.434094   18.527967 O.3        1 MOL1        -0.5486
      63    H30     15.180090   20.841409   19.101061 H          1 MOL1         0.3769
      64    C19     23.864847   22.818002   21.319549 C.3        1 MOL1         0.2972
      65    H31     24.917576   22.978459   21.053870 H          1 MOL1         0.0751
      66    O16     23.728194   21.726484   22.253815 O.3        1 MOL1        -0.3740
      67    C20     23.290563   24.100226   21.978330 C.3        1 MOL1         0.1003
      68    H32     23.435009   24.925794   21.269312 H          1 MOL1         0.0783
      69    O17     23.992043   24.390577   23.196106 O.3        1 MOL1        -0.5519
      70    H33     24.036832   23.541200   23.691439 H          1 MOL1         0.3769
      71    C21     21.773139   23.971978   22.259095 C.3        1 MOL1         0.1053
      72    H34     21.637662   23.241443   23.065840 H          1 MOL1         0.0783
      73    O18     21.252521   25.240664   22.670057 O.3        1 MOL1        -0.5519
      74    H35     21.881401   25.571226   23.349112 H          1 MOL1         0.3769
      75    C22     21.007034   23.465558   21.013448 C.3        1 MOL1         0.1018
      76    H36     20.981840   24.268174   20.264564 H          1 MOL1         0.0783
      77    C23     21.681425   22.213815   20.392566 C.3        1 MOL1         0.1043
      78    H37     21.612356   21.388489   21.109610 H          1 MOL1         0.0783
      79    O19     23.072756   22.521329   20.146615 O.3        1 MOL1        -0.3740
      80    C24     21.046360   21.713774   19.069537 C.3        1 MOL1         0.0138
      81    H38     20.245020   21.006066   19.314043 H          1 MOL1         0.0794
      82    H39     21.804962   21.151527   18.508863 H          1 MOL1         0.0794
      83    O20     20.521798   22.770502   18.257769 O.3        1 MOL1        -0.5486
      84    H40     19.686251   23.074986   18.682747 H          1 MOL1         0.3769
      85    C25     24.865932   17.747140   22.093835 C.3        1 MOL1         0.2972
      86    H41     25.386690   16.780634   22.093168 H          1 MOL1         0.0751
      87    O21     23.458684   17.586261   21.823907 O.3        1 MOL1        -0.3740
      88    C26     25.054268   18.427553   23.464556 C.3        1 MOL1         0.1003
      89    H42     26.130858   18.581713   23.614373 H          1 MOL1         0.0783
      90    O22     24.537329   17.591278   24.513325 O.3        1 MOL1        -0.5519
      91    H43     24.186541   16.774782   24.081577 H          1 MOL1         0.3769
      92    C27     24.358989   19.803152   23.479790 C.3        1 MOL1         0.1053
      93    H44     23.283639   19.611002   23.416106 H          1 MOL1         0.0783
      94    O23     24.652552   20.463612   24.713944 O.3        1 MOL1        -0.5519
      95    H45     24.518631   19.777386   25.405249 H          1 MOL1         0.3769
      96    C28     24.755204   20.700972   22.275105 C.3        1 MOL1         0.1018
      97    H46     25.737553   21.142808   22.484976 H          1 MOL1         0.0783
      98    C29     24.805795   19.914198   20.918138 C.3        1 MOL1         0.1043
      99    H47     23.775332   19.783224   20.568586 H          1 MOL1         0.0783
     100    O24     25.419026   18.610118   21.087105 O.3        1 MOL1        -0.3740
     101    C30     25.618448   20.593991   19.782664 C.3        1 MOL1         0.0138
     102    H48     25.022249   21.383153   19.313238 H          1 MOL1         0.0794
     103    H49     25.807460   19.847705   18.998987 H          1 MOL1         0.0794
     104    O25     26.859983   21.133388   20.251665 O.3        1 MOL1        -0.5486
     105    H50     27.360037   21.454806   19.469736 H          1 MOL1         0.3769
     106    C31     21.132517   14.407152   20.303810 C.3        1 MOL1         0.2972
     107    H51     20.840751   13.529103   19.713034 H          1 MOL1         0.0751
     108    O26     20.014483   14.965307   21.013386 O.3        1 MOL1        -0.3740
     109    C32     22.207594   14.032503   21.361298 C.3        1 MOL1         0.1003
     110    H52     23.062811   13.606420   20.820813 H          1 MOL1         0.0783
     111    O27     21.704295   13.055506   22.287384 O.3        1 MOL1        -0.5519
     112    H53     20.804373   13.352859   22.575330 H          1 MOL1         0.3769
     113    C33     22.702955   15.290158   22.121274 C.3        1 MOL1         0.1053
     114    H54     21.869988   15.689203   22.716106 H          1 MOL1         0.0783
     115    O28     23.787691   14.932049   22.985010 O.3        1 MOL1        -0.5519
     116    H55     23.503066   14.095509   23.417224 H          1 MOL1         0.3769
     117    C34     23.145600   16.375862   21.109364 C.3        1 MOL1         0.1018
     118    H56     24.017847   16.003144   20.555190 H          1 MOL1         0.0783
     119    C35     22.020757   16.681414   20.089850 C.3        1 MOL1         0.1043
     120    H57     21.152676   17.082204   20.628351 H          1 MOL1         0.0783
     121    O29     21.661255   15.439032   19.438104 O.3        1 MOL1        -0.3740
     122    C36     22.410532   17.721506   19.008550 C.3        1 MOL1         0.0138
     123    H58     22.223972   18.724180   19.412882 H          1 MOL1         0.0794
     124    H59     21.744039   17.597590   18.144651 H          1 MOL1         0.0794
     125    O30     23.779443   17.616319   18.595585 O.3        1 MOL1        -0.5486
     126    H60     24.341986   17.826928   19.375716 H          1 MOL1         0.3769
     127    C1      19.470110   17.802578   23.391959 C.3        1 MOL1        -0.1693
     128    H1      19.778173   17.167850   22.553644 H          1 MOL1         0.0829
     129    H2      18.728209   17.263611   23.992480 H          1 MOL1         0.0829
     130    C2      19.090260   19.264053   22.993052 C.3        1 MOL1        -0.1768
     131    H3      18.646928   19.389483   22.000964 H          1 MOL1         0.0829
     132    H4      18.471775   19.794429   23.727337 H          1 MOL1         0.0829
     133    C3      20.614115   19.564673   23.098644 C.3        1 MOL1         0.1211
     134    H5      21.178771   19.316610   22.190223 H          1 MOL1         0.0786
     135    C4      20.649830   18.450775   24.185953 C.3        1 MOL1        -0.1768
     136    H6      21.574188   17.865356   24.240063 H          1 MOL1         0.0829
     137    H7      20.388519   18.793435   25.194524 H          1 MOL1         0.0829
     138    O1      20.935970   20.856338   23.556734 O.3        1 MOL1        -0.5515
     139    H8      21.907447   20.907488   23.669416 H          1 MOL1         0.3773
@<TRIPOS>BOND
    1     1     2    1
    2     1     3    1
    3     1     4    1
    4     4     5    1
    5     4     6    1
    6     6     7    1
    7     4     8    1
    8     8     9    1
    9     8    10    1
   10    10    11    1
   11     8    12    1
   12    12    13    1
   13    12    14    1
   14    14    15    1
   15     1    16    1
   16    14    16    1
   17    14    17    1
   18    17    18    1
   19    17    19    1
   20    17    20    1
   21    20    21    1
   22    22    23    1
   23    22    24    1
   24    22    25    1
   25    25    26    1
   26    25    27    1
   27    27    28    1
   28    25    29    1
   29    29    30    1
   30    29    31    1
   31    31    32    1
   32     3    33    1
   33    29    33    1
   34    33    34    1
   35    33    35    1
   36    35    36    1
   37    22    37    1
   38    35    37    1
   39    35    38    1
   40    38    39    1
   41    38    40    1
   42    38    41    1
   43    41    42    1
   44    43    44    1
   45    43    45    1
   46    43    46    1
   47    46    47    1
   48    46    48    1
   49    48    49    1
   50    46    50    1
   51    50    51    1
   52    50    52    1
   53    52    53    1
   54    24    54    1
   55    50    54    1
   56    54    55    1
   57    54    56    1
   58    56    57    1
   59    43    58    1
   60    56    58    1
   61    56    59    1
   62    59    60    1
   63    59    61    1
   64    59    62    1
   65    62    63    1
   66    64    65    1
   67    64    66    1
   68    64    67    1
   69    67    68    1
   70    67    69    1
   71    69    70    1
   72    67    71    1
   73    71    72    1
   74    71    73    1
   75    73    74    1
   76    45    75    1
   77    71    75    1
   78    75    76    1
   79    75    77    1
   80    77    78    1
   81    64    79    1
   82    77    79    1
   83    77    80    1
   84    80    81    1
   85    80    82    1
   86    80    83    1
   87    83    84    1
   88    85    86    1
   89    85    87    1
   90    85    88    1
   91    88    89    1
   92    88    90    1
   93    90    91    1
   94    88    92    1
   95    92    93    1
   96    92    94    1
   97    94    95    1
   98    66    96    1
   99    92    96    1
  100    96    97    1
  101    96    98    1
  102    98    99    1
  103    85   100    1
  104    98   100    1
  105    98   101    1
  106   101   102    1
  107   101   103    1
  108   101   104    1
  109   104   105    1
  110   106   107    1
  111    12   108    1
  112   106   108    1
  113   106   109    1
  114   109   110    1
  115   109   111    1
  116   111   112    1
  117   109   113    1
  118   113   114    1
  119   113   115    1
  120   115   116    1
  121    87   117    1
  122   113   117    1
  123   117   118    1
  124   117   119    1
  125   119   120    1
  126   106   121    1
  127   119   121    1
  128   119   122    1
  129   122   123    1
  130   122   124    1
  131   122   125    1
  132   125   126    1
  133   127   128    1
  134   127   129    1
  135   127   130    1
  136   130   131    1
  137   130   132    1
  138   130   133    1
  139   133   134    1
  140   127   135    1
  141   133   135    1
  142   135   136    1
  143   135   137    1
  144   133   138    1
  145   138   139    1
@<TRIPOS>SUBSTRUCTURE
       1 MOL1            1 RESIDUE      1      MOL     
       2 MOL1          139 RESIDUE      1      MOL     
@<SCITEGIC>MOL_PROPERTY
feprocess Rank
SciTegic.value.IntegerValue
175

@<SCITEGIC>MOL_PROPERTY
Conf_Id
SciTegic.value.IntegerValue
826

@<SCITEGIC>MOL_PROPERTY
Probability
SciTegic.value.DoubleValue
0.00

@<SCITEGIC>MOL_PROPERTY
G
SciTegic.value.DoubleValue
550.257

@<SCITEGIC>MOL_PROPERTY
E
SciTegic.value.DoubleValue
374.165

@<SCITEGIC>MOL_PROPERTY
-TS
SciTegic.value.DoubleValue
176.092

@<SCITEGIC>MOL_PROPERTY
U+W
SciTegic.value.DoubleValue
251.654

@<SCITEGIC>MOL_PROPERTY
U
SciTegic.value.DoubleValue
287.509

@<SCITEGIC>MOL_PROPERTY
W
SciTegic.value.DoubleValue
-35.855

@<SCITEGIC>MOL_PROPERTY
W(PB)
SciTegic.value.DoubleValue
-41.730

@<SCITEGIC>MOL_PROPERTY
W(SA)
SciTegic.value.DoubleValue
5.874

@<SCITEGIC>MOL_PROPERTY
Valence
SciTegic.value.DoubleValue
153.802

@<SCITEGIC>MOL_PROPERTY
Coulomb
SciTegic.value.DoubleValue
156.726

@<SCITEGIC>MOL_PROPERTY
VdW
SciTegic.value.DoubleValue
-23.018

@<SCITEGIC>MOL_PROPERTY
VdW6
SciTegic.value.DoubleValue
-168.077

@<SCITEGIC>MOL_PROPERTY
VdW12
SciTegic.value.DoubleValue
145.059

@<SCITEGIC>MOL_PROPERTY
Bond
SciTegic.value.DoubleValue
4.602

@<SCITEGIC>MOL_PROPERTY
Angle
SciTegic.value.DoubleValue
12.323

@<SCITEGIC>MOL_PROPERTY
Pdih
SciTegic.value.DoubleValue
136.876

@<SCITEGIC>MOL_PROPERTY
Idih
SciTegic.value.DoubleValue
0.000

@<SCITEGIC>MOL_PROPERTY
Tether
SciTegic.value.DoubleValue
0.000

@<TRIPOS>MOLECULE
CD_guest-s16_fast_vm2_rndm.mol2 : feprocess host+ligand conformer 176
         139         145           2
SMALL
USER_CHARGES
 
@<TRIPOS>ATOM
       1    C1      16.243866   15.235404   20.808668 C.3        1 MOL1         0.2972
       2    H1      15.196376   15.033343   20.552266 H          1 MOL1         0.0751
       3    O1      16.439815   16.603572   21.221796 O.3        1 MOL1        -0.3740
       4    C2      16.686032   14.311956   21.970153 C.3        1 MOL1         0.1003
       5    H2      16.564648   13.276363   21.626420 H          1 MOL1         0.0783
       6    O2      15.864182   14.519427   23.129980 O.3        1 MOL1        -0.5519
       7    H3      15.624237   15.480327   23.154473 H          1 MOL1         0.3769
       8    C3      18.179182   14.520905   22.320409 C.3        1 MOL1         0.1053
       9    H4      18.289304   15.523713   22.750629 H          1 MOL1         0.0783
      10    O3      18.553594   13.539137   23.293491 O.3        1 MOL1        -0.5519
      11    H5      17.785048   13.491534   23.907391 H          1 MOL1         0.3769
      12    C4      19.071975   14.423599   21.048659 C.3        1 MOL1         0.1018
      13    H6      19.132279   13.372883   20.737436 H          1 MOL1         0.0783
      14    C5      18.502719   15.265600   19.871896 C.3        1 MOL1         0.1043
      15    H7      18.610173   16.325380   20.126145 H          1 MOL1         0.0783
      16    O4      17.097433   14.971406   19.675402 O.3        1 MOL1        -0.3740
      17    C6      19.251504   15.051062   18.533321 C.3        1 MOL1         0.0138
      18    H8      20.224079   15.557813   18.592938 H          1 MOL1         0.0794
      19    H9      18.681200   15.539113   17.731940 H          1 MOL1         0.0794
      20    O5      19.448125   13.666218   18.223983 O.3        1 MOL1        -0.5486
      21    H10     20.135296   13.323280   18.835104 H          1 MOL1         0.3769
      22    C7      14.537294   20.326277   21.172159 C.3        1 MOL1         0.2972
      23    H11     13.820356   21.148405   21.054925 H          1 MOL1         0.0751
      24    O6      15.837037   20.797842   21.567717 O.3        1 MOL1        -0.3740
      25    C8      14.062947   19.345836   22.275171 C.3        1 MOL1         0.1003
      26    H12     13.088226   18.946015   21.966690 H          1 MOL1         0.0783
      27    O7      13.919304   20.030248   23.530591 O.3        1 MOL1        -0.5519
      28    H13     14.656746   20.688428   23.590904 H          1 MOL1         0.3769
      29    C9      15.046484   18.155966   22.417631 C.3        1 MOL1         0.1053
      30    H14     15.999950   18.539025   22.806806 H          1 MOL1         0.0783
      31    O8      14.503749   17.195072   23.328715 O.3        1 MOL1        -0.5519
      32    H15     14.183585   17.722869   24.094208 H          1 MOL1         0.3769
      33    C10     15.314219   17.488507   21.046510 C.3        1 MOL1         0.1018
      34    H16     14.406250   16.950332   20.744612 H          1 MOL1         0.0783
      35    C11     15.680161   18.534216   19.957720 C.3        1 MOL1         0.1043
      36    H17     16.648598   18.972282   20.220748 H          1 MOL1         0.0783
      37    O9      14.680264   19.584872   19.939873 O.3        1 MOL1        -0.3740
      38    C12     15.824709   17.951803   18.529669 C.3        1 MOL1         0.0138
      39    H18     16.811295   17.477319   18.444615 H          1 MOL1         0.0794
      40    H19     15.803881   18.781963   17.811253 H          1 MOL1         0.0794
      41    O10     14.806038   16.998079   18.208873 O.3        1 MOL1        -0.5486
      42    H20     15.158010   16.112161   18.444994 H          1 MOL1         0.3769
      43    C13     18.361460   24.078306   21.735540 C.3        1 MOL1         0.2972
      44    H21     18.791335   25.088065   21.737162 H          1 MOL1         0.0751
      45    O11     19.382887   23.066491   21.851767 O.3        1 MOL1        -0.3740
      46    C14     17.394254   23.926122   22.934555 C.3        1 MOL1         0.1003
      47    H22     16.607798   24.684223   22.825615 H          1 MOL1         0.0783
      48    O12     18.094765   24.140532   24.170485 O.3        1 MOL1        -0.5519
      49    H23     19.034362   23.869517   24.018709 H          1 MOL1         0.3769
      50    C15     16.721709   22.533980   22.927811 C.3        1 MOL1         0.1053
      51    H24     17.498975   21.785682   23.132199 H          1 MOL1         0.0783
      52    O13     15.720915   22.476564   23.949593 O.3        1 MOL1        -0.5519
      53    H25     16.149977   22.860114   24.746943 H          1 MOL1         0.3769
      54    C16     16.085807   22.214262   21.551730 C.3        1 MOL1         0.1018
      55    H26     15.163399   22.799363   21.443808 H          1 MOL1         0.0783
      56    C17     17.057292   22.513546   20.374664 C.3        1 MOL1         0.1043
      57    H27     17.867684   21.775407   20.412876 H          1 MOL1         0.0783
      58    O14     17.622353   23.842045   20.518166 O.3        1 MOL1        -0.3740
      59    C18     16.413420   22.404312   18.970874 C.3        1 MOL1         0.0138
      60    H28     16.268777   21.343128   18.729538 H          1 MOL1         0.0794
      61    H29     17.120253   22.807636   18.233603 H          1 MOL1         0.0794
      62    O15     15.164348   23.099060   18.879692 O.3        1 MOL1        -0.5486
      63    H30     14.459020   22.474598   19.151630 H          1 MOL1         0.3769
      64    C19     23.525363   22.652051   21.184355 C.3        1 MOL1         0.2972
      65    H31     24.558606   22.903915   20.913426 H          1 MOL1         0.0751
      66    O16     23.378449   21.244786   21.468318 O.3        1 MOL1        -0.3740
      67    C20     23.099453   23.438287   22.453606 C.3        1 MOL1         0.1003
      68    H32     23.238393   24.505587   22.237705 H          1 MOL1         0.0783
      69    O17     23.919159   23.076791   23.577205 O.3        1 MOL1        -0.5519
      70    H33     24.107399   22.106927   23.504884 H          1 MOL1         0.3769
      71    C21     21.600866   23.214158   22.780686 C.3        1 MOL1         0.1053
      72    H34     21.464477   22.164903   23.077428 H          1 MOL1         0.0783
      73    O18     21.208197   24.079949   23.851382 O.3        1 MOL1        -0.5519
      74    H35     21.919245   23.990892   24.524605 H          1 MOL1         0.3769
      75    C22     20.724959   23.487171   21.534637 C.3        1 MOL1         0.1018
      76    H36     20.775306   24.559142   21.302260 H          1 MOL1         0.0783
      77    C23     21.237230   22.679058   20.313679 C.3        1 MOL1         0.1043
      78    H37     21.148212   21.611739   20.545437 H          1 MOL1         0.0783
      79    O19     22.631566   23.001385   20.104091 O.3        1 MOL1        -0.3740
      80    C24     20.472832   22.937090   18.989973 C.3        1 MOL1         0.0138
      81    H38     19.589276   22.288213   18.963447 H          1 MOL1         0.0794
      82    H39     21.115196   22.634879   18.152213 H          1 MOL1         0.0794
      83    O20     20.066321   24.300693   18.830394 O.3        1 MOL1        -0.5486
      84    H40     19.223337   24.405427   19.329626 H          1 MOL1         0.3769
      85    C25     25.272874   17.586304   20.936329 C.3        1 MOL1         0.2972
      86    H41     25.961897   16.759660   20.723882 H          1 MOL1         0.0751
      87    O21     23.915925   17.115375   21.089891 O.3        1 MOL1        -0.3740
      88    C26     25.723090   18.385834   22.188170 C.3        1 MOL1         0.1003
      89    H42     26.685096   18.851857   21.937288 H          1 MOL1         0.0783
      90    O22     25.918390   17.543448   23.332088 O.3        1 MOL1        -0.5519
      91    H43     25.030899   17.183001   23.580302 H          1 MOL1         0.3769
      92    C27     24.715803   19.524622   22.482536 C.3        1 MOL1         0.1053
      93    H44     23.741733   19.079171   22.728227 H          1 MOL1         0.0783
      94    O23     25.184371   20.310016   23.584144 O.3        1 MOL1        -0.5519
      95    H45     25.481633   19.658923   24.257926 H          1 MOL1         0.3769
      96    C28     24.546773   20.429117   21.236103 C.3        1 MOL1         0.1018
      97    H46     25.456418   21.036781   21.143213 H          1 MOL1         0.0783
      98    C29     24.329744   19.618519   19.923501 C.3        1 MOL1         0.1043
      99    H47     23.312443   19.208799   19.934356 H          1 MOL1         0.0783
     100    O24     25.279581   18.522759   19.838021 O.3        1 MOL1        -0.3740
     101    C30     24.466717   20.473368   18.640690 C.3        1 MOL1         0.0138
     102    H48     23.597556   21.139983   18.569874 H          1 MOL1         0.0794
     103    H49     24.434100   19.805155   17.769800 H          1 MOL1         0.0794
     104    O25     25.674733   21.245154   18.630721 O.3        1 MOL1        -0.5486
     105    H50     25.709116   21.732128   17.778659 H          1 MOL1         0.3769
     106    C31     21.304805   14.076360   22.007095 C.3        1 MOL1         0.2972
     107    H51     20.813889   13.142735   22.308624 H          1 MOL1         0.0751
     108    O26     20.385844   14.957583   21.326832 O.3        1 MOL1        -0.3740
     109    C32     21.878815   14.801219   23.250572 C.3        1 MOL1         0.1003
     110    H52     22.552460   14.094613   23.752696 H          1 MOL1         0.0783
     111    O27     20.831786   15.193110   24.155781 O.3        1 MOL1        -0.5519
     112    H53     20.115558   14.517581   24.073554 H          1 MOL1         0.3769
     113    C33     22.694178   16.053047   22.858200 C.3        1 MOL1         0.1053
     114    H54     21.982976   16.804331   22.516045 H          1 MOL1         0.0783
     115    O28     23.364689   16.538759   24.022773 O.3        1 MOL1        -0.5519
     116    H55     22.670920   16.562139   24.719867 H          1 MOL1         0.3769
     117    C34     23.691850   15.821137   21.693762 C.3        1 MOL1         0.1018
     118    H56     24.613649   15.379271   22.092504 H          1 MOL1         0.0783
     119    C35     23.101177   14.925318   20.567264 C.3        1 MOL1         0.1043
     120    H57     22.385585   15.530178   19.995162 H          1 MOL1         0.0783
     121    O29     22.404886   13.783422   21.121828 O.3        1 MOL1        -0.3740
     122    C36     24.163878   14.412818   19.564854 C.3        1 MOL1         0.0138
     123    H58     24.576738   15.271501   19.018131 H          1 MOL1         0.0794
     124    H59     23.662079   13.772399   18.827386 H          1 MOL1         0.0794
     125    O30     25.219855   13.683069   20.204257 O.3        1 MOL1        -0.5486
     126    H60     25.754790   14.311776   20.731401 H          1 MOL1         0.3769
     127    C1      19.538322   19.221436   20.336193 C.3        1 MOL1        -0.1693
     128    H1      18.798290   18.627328   19.788699 H          1 MOL1         0.0829
     129    H2      19.891606   20.019085   19.677104 H          1 MOL1         0.0829
     130    C2      20.641277   18.379194   21.049936 C.3        1 MOL1        -0.1768
     131    H3      21.534696   18.942182   21.345398 H          1 MOL1         0.0829
     132    H4      20.952512   17.465979   20.534105 H          1 MOL1         0.0829
     133    C3      19.590816   18.208612   22.192206 C.3        1 MOL1         0.1211
     134    H5      18.833136   17.442255   22.001078 H          1 MOL1         0.0786
     135    C4      19.126068   19.633900   21.789051 C.3        1 MOL1        -0.1768
     136    H6      19.717926   20.441938   22.234520 H          1 MOL1         0.0829
     137    H7      18.069822   19.832760   21.964965 H          1 MOL1         0.0829
     138    O1      20.091580   18.090739   23.504395 O.3        1 MOL1        -0.5515
     139    H8      20.310709   17.143431   23.663625 H          1 MOL1         0.3773
@<TRIPOS>BOND
    1     1     2    1
    2     1     3    1
    3     1     4    1
    4     4     5    1
    5     4     6    1
    6     6     7    1
    7     4     8    1
    8     8     9    1
    9     8    10    1
   10    10    11    1
   11     8    12    1
   12    12    13    1
   13    12    14    1
   14    14    15    1
   15     1    16    1
   16    14    16    1
   17    14    17    1
   18    17    18    1
   19    17    19    1
   20    17    20    1
   21    20    21    1
   22    22    23    1
   23    22    24    1
   24    22    25    1
   25    25    26    1
   26    25    27    1
   27    27    28    1
   28    25    29    1
   29    29    30    1
   30    29    31    1
   31    31    32    1
   32     3    33    1
   33    29    33    1
   34    33    34    1
   35    33    35    1
   36    35    36    1
   37    22    37    1
   38    35    37    1
   39    35    38    1
   40    38    39    1
   41    38    40    1
   42    38    41    1
   43    41    42    1
   44    43    44    1
   45    43    45    1
   46    43    46    1
   47    46    47    1
   48    46    48    1
   49    48    49    1
   50    46    50    1
   51    50    51    1
   52    50    52    1
   53    52    53    1
   54    24    54    1
   55    50    54    1
   56    54    55    1
   57    54    56    1
   58    56    57    1
   59    43    58    1
   60    56    58    1
   61    56    59    1
   62    59    60    1
   63    59    61    1
   64    59    62    1
   65    62    63    1
   66    64    65    1
   67    64    66    1
   68    64    67    1
   69    67    68    1
   70    67    69    1
   71    69    70    1
   72    67    71    1
   73    71    72    1
   74    71    73    1
   75    73    74    1
   76    45    75    1
   77    71    75    1
   78    75    76    1
   79    75    77    1
   80    77    78    1
   81    64    79    1
   82    77    79    1
   83    77    80    1
   84    80    81    1
   85    80    82    1
   86    80    83    1
   87    83    84    1
   88    85    86    1
   89    85    87    1
   90    85    88    1
   91    88    89    1
   92    88    90    1
   93    90    91    1
   94    88    92    1
   95    92    93    1
   96    92    94    1
   97    94    95    1
   98    66    96    1
   99    92    96    1
  100    96    97    1
  101    96    98    1
  102    98    99    1
  103    85   100    1
  104    98   100    1
  105    98   101    1
  106   101   102    1
  107   101   103    1
  108   101   104    1
  109   104   105    1
  110   106   107    1
  111    12   108    1
  112   106   108    1
  113   106   109    1
  114   109   110    1
  115   109   111    1
  116   111   112    1
  117   109   113    1
  118   113   114    1
  119   113   115    1
  120   115   116    1
  121    87   117    1
  122   113   117    1
  123   117   118    1
  124   117   119    1
  125   119   120    1
  126   106   121    1
  127   119   121    1
  128   119   122    1
  129   122   123    1
  130   122   124    1
  131   122   125    1
  132   125   126    1
  133   127   128    1
  134   127   129    1
  135   127   130    1
  136   130   131    1
  137   130   132    1
  138   130   133    1
  139   133   134    1
  140   127   135    1
  141   133   135    1
  142   135   136    1
  143   135   137    1
  144   133   138    1
  145   138   139    1
@<TRIPOS>SUBSTRUCTURE
       1 MOL1            1 RESIDUE      1      MOL     
       2 MOL1          139 RESIDUE      1      MOL     
@<SCITEGIC>MOL_PROPERTY
feprocess Rank
SciTegic.value.IntegerValue
176

@<SCITEGIC>MOL_PROPERTY
Conf_Id
SciTegic.value.IntegerValue
847

@<SCITEGIC>MOL_PROPERTY
Probability
SciTegic.value.DoubleValue
0.00

@<SCITEGIC>MOL_PROPERTY
G
SciTegic.value.DoubleValue
550.324

@<SCITEGIC>MOL_PROPERTY
E
SciTegic.value.DoubleValue
372.676

@<SCITEGIC>MOL_PROPERTY
-TS
SciTegic.value.DoubleValue
177.648

@<SCITEGIC>MOL_PROPERTY
U+W
SciTegic.value.DoubleValue
250.164

@<SCITEGIC>MOL_PROPERTY
U
SciTegic.value.DoubleValue
290.767

@<SCITEGIC>MOL_PROPERTY
W
SciTegic.value.DoubleValue
-40.603

@<SCITEGIC>MOL_PROPERTY
W(PB)
SciTegic.value.DoubleValue
-46.595

@<SCITEGIC>MOL_PROPERTY
W(SA)
SciTegic.value.DoubleValue
5.992

@<SCITEGIC>MOL_PROPERTY
Valence
SciTegic.value.DoubleValue
155.228

@<SCITEGIC>MOL_PROPERTY
Coulomb
SciTegic.value.DoubleValue
157.158

@<SCITEGIC>MOL_PROPERTY
VdW
SciTegic.value.DoubleValue
-21.619

@<SCITEGIC>MOL_PROPERTY
VdW6
SciTegic.value.DoubleValue
-169.280

@<SCITEGIC>MOL_PROPERTY
VdW12
SciTegic.value.DoubleValue
147.661

@<SCITEGIC>MOL_PROPERTY
Bond
SciTegic.value.DoubleValue
4.756

@<SCITEGIC>MOL_PROPERTY
Angle
SciTegic.value.DoubleValue
13.127

@<SCITEGIC>MOL_PROPERTY
Pdih
SciTegic.value.DoubleValue
137.344

@<SCITEGIC>MOL_PROPERTY
Idih
SciTegic.value.DoubleValue
0.000

@<SCITEGIC>MOL_PROPERTY
Tether
SciTegic.value.DoubleValue
0.000

@<TRIPOS>MOLECULE
CD_guest-s16_fast_vm2_rndm.mol2 : feprocess host+ligand conformer 177
         139         145           2
SMALL
USER_CHARGES
 
@<TRIPOS>ATOM
       1    C1      16.256454   15.259617   21.985339 C.3        1 MOL1         0.2972
       2    H1      15.200066   15.109929   22.243948 H          1 MOL1         0.0751
       3    O1      16.552955   16.651194   21.761683 O.3        1 MOL1        -0.3740
       4    C2      17.151400   14.750561   23.139987 C.3        1 MOL1         0.1003
       5    H2      16.945271   13.680280   23.270813 H          1 MOL1         0.0783
       6    O2      16.838458   15.447570   24.356868 O.3        1 MOL1        -0.5519
       7    H3      16.349052   16.265309   24.097858 H          1 MOL1         0.3769
       8    C3      18.649708   14.910294   22.793548 C.3        1 MOL1         0.1053
       9    H4      18.879966   15.982702   22.772775 H          1 MOL1         0.0783
      10    O3      19.438697   14.267400   23.800033 O.3        1 MOL1        -0.5519
      11    H5      19.104511   14.628207   24.651099 H          1 MOL1         0.3769
      12    C4      18.987602   14.318298   21.402432 C.3        1 MOL1         0.1018
      13    H6      19.048648   13.225178   21.488507 H          1 MOL1         0.0783
      14    C5      17.955348   14.716265   20.308630 C.3        1 MOL1         0.1043
      15    H7      18.114338   15.776920   20.078000 H          1 MOL1         0.0783
      16    O4      16.597408   14.534101   20.786434 O.3        1 MOL1        -0.3740
      17    C6      18.116091   13.931808   18.984495 C.3        1 MOL1         0.0138
      18    H8      19.035033   14.270573   18.487227 H          1 MOL1         0.0794
      19    H9      17.276362   14.183947   18.322897 H          1 MOL1         0.0794
      20    O5      18.173318   12.516422   19.199830 O.3        1 MOL1        -0.5486
      21    H10     18.186916   12.080998   18.319586 H          1 MOL1         0.3769
      22    C7      14.679712   20.292897   21.064826 C.3        1 MOL1         0.2972
      23    H11     13.973733   21.094439   20.812506 H          1 MOL1         0.0751
      24    O6      15.983588   20.816966   21.382613 O.3        1 MOL1        -0.3740
      25    C8      14.180521   19.526847   22.315447 C.3        1 MOL1         0.1003
      26    H12     13.198095   19.099319   22.076329 H          1 MOL1         0.0783
      27    O7      14.053638   20.427065   23.427414 O.3        1 MOL1        -0.5519
      28    H13     14.764385   21.104868   23.321965 H          1 MOL1         0.3769
      29    C9      15.139932   18.365023   22.670024 C.3        1 MOL1         0.1053
      30    H14     16.088903   18.798629   23.009545 H          1 MOL1         0.0783
      31    O8      14.577466   17.574904   23.722282 O.3        1 MOL1        -0.5519
      32    H15     14.251107   18.224916   24.383946 H          1 MOL1         0.3769
      33    C10     15.420967   17.476694   21.433078 C.3        1 MOL1         0.1018
      34    H16     14.522567   16.882272   21.220602 H          1 MOL1         0.0783
      35    C11     15.790218   18.304057   20.170208 C.3        1 MOL1         0.1043
      36    H17     16.773004   18.759620   20.335670 H          1 MOL1         0.0783
      37    O9      14.808798   19.354061   19.973227 O.3        1 MOL1        -0.3740
      38    C12     15.903796   17.472182   18.864953 C.3        1 MOL1         0.0138
      39    H18     16.941657   17.132829   18.758948 H          1 MOL1         0.0794
      40    H19     15.698517   18.130599   18.010307 H          1 MOL1         0.0794
      41    O10     15.026468   16.339940   18.831969 O.3        1 MOL1        -0.5486
      42    H20     15.392315   15.668891   19.454332 H          1 MOL1         0.3769
      43    C13     18.624089   23.932381   20.568265 C.3        1 MOL1         0.2972
      44    H21     19.104814   24.850407   20.206437 H          1 MOL1         0.0751
      45    O11     19.576583   23.042694   21.185316 O.3        1 MOL1        -0.3740
      46    C14     17.502941   24.254373   21.591801 C.3        1 MOL1         0.1003
      47    H22     16.762923   24.880233   21.076288 H          1 MOL1         0.0783
      48    O12     18.014064   24.973227   22.725202 O.3        1 MOL1        -0.5519
      49    H23     18.744325   24.428747   23.115293 H          1 MOL1         0.3769
      50    C15     16.792055   22.957124   22.050283 C.3        1 MOL1         0.1053
      51    H24     17.510822   22.362500   22.630365 H          1 MOL1         0.0783
      52    O13     15.668347   23.289273   22.873057 O.3        1 MOL1        -0.5519
      53    H25     15.999154   23.972530   23.497482 H          1 MOL1         0.3769
      54    C16     16.323664   22.107357   20.841310 C.3        1 MOL1         0.1018
      55    H26     15.458218   22.605127   20.384705 H          1 MOL1         0.0783
      56    C17     17.449867   21.929651   19.780257 C.3        1 MOL1         0.1043
      57    H27     18.232188   21.291961   20.210185 H          1 MOL1         0.0783
      58    O14     18.013705   23.226988   19.465761 O.3        1 MOL1        -0.3740
      59    C18     17.013159   21.262541   18.450312 C.3        1 MOL1         0.0138
      60    H28     17.143849   20.178021   18.543680 H          1 MOL1         0.0794
      61    H29     17.694815   21.592936   17.655166 H          1 MOL1         0.0794
      62    O15     15.659730   21.552987   18.085148 O.3        1 MOL1        -0.5486
      63    H30     15.092779   20.917006   18.578983 H          1 MOL1         0.3769
      64    C19     23.526977   22.690576   22.321933 C.3        1 MOL1         0.2972
      65    H31     24.572430   22.833735   22.624954 H          1 MOL1         0.0751
      66    O16     23.231908   21.303570   22.071528 O.3        1 MOL1        -0.3740
      67    C20     22.582733   23.186695   23.441881 C.3        1 MOL1         0.1003
      68    H32     22.769307   24.259066   23.584790 H          1 MOL1         0.0783
      69    O17     22.849390   22.487117   24.668589 O.3        1 MOL1        -0.5519
      70    H33     23.395365   21.697197   24.435984 H          1 MOL1         0.3769
      71    C21     21.104962   23.004392   23.027406 C.3        1 MOL1         0.1053
      72    H34     20.907375   21.927735   22.970957 H          1 MOL1         0.0783
      73    O18     20.257147   23.597121   24.015870 O.3        1 MOL1        -0.5519
      74    H35     20.616673   23.282871   24.875711 H          1 MOL1         0.3769
      75    C22     20.816586   23.623646   21.636320 C.3        1 MOL1         0.1018
      76    H36     20.746404   24.714215   21.745367 H          1 MOL1         0.0783
      77    C23     21.897997   23.256024   20.579466 C.3        1 MOL1         0.1043
      78    H37     21.753925   22.200733   20.317331 H          1 MOL1         0.0783
      79    O19     23.234409   23.431034   21.118935 O.3        1 MOL1        -0.3740
      80    C24     21.790620   24.071226   19.268607 C.3        1 MOL1         0.0138
      81    H38     20.895429   23.741330   18.724238 H          1 MOL1         0.0794
      82    H39     22.659155   23.838104   18.637935 H          1 MOL1         0.0794
      83    O20     21.717665   25.480764   19.515396 O.3        1 MOL1        -0.5486
      84    H40     21.737728   25.937177   18.645968 H          1 MOL1         0.3769
      85    C25     25.094645   17.636353   21.464239 C.3        1 MOL1         0.2972
      86    H41     25.824326   16.847230   21.241754 H          1 MOL1         0.0751
      87    O21     23.780402   17.080094   21.695641 O.3        1 MOL1        -0.3740
      88    C26     25.533655   18.396135   22.742917 C.3        1 MOL1         0.1003
      89    H42     26.535221   18.805153   22.556441 H          1 MOL1         0.0783
      90    O22     25.588480   17.497172   23.861027 O.3        1 MOL1        -0.5519
      91    H43     24.862642   16.842210   23.733041 H          1 MOL1         0.3769
      92    C27     24.585272   19.579486   23.049530 C.3        1 MOL1         0.1053
      93    H44     23.618040   19.165101   23.349654 H          1 MOL1         0.0783
      94    O23     25.114634   20.366230   24.121025 O.3        1 MOL1        -0.5519
      95    H45     25.395539   19.715233   24.802470 H          1 MOL1         0.3769
      96    C28     24.367875   20.465304   21.799642 C.3        1 MOL1         0.1018
      97    H46     25.280614   21.047679   21.616456 H          1 MOL1         0.0783
      98    C29     24.031971   19.632051   20.534981 C.3        1 MOL1         0.1043
      99    H47     23.044794   19.176983   20.682161 H          1 MOL1         0.0783
     100    O24     25.018743   18.582786   20.375138 O.3        1 MOL1        -0.3740
     101    C30     23.960508   20.458598   19.222330 C.3        1 MOL1         0.0138
     102    H48     22.924337   20.787370   19.074806 H          1 MOL1         0.0794
     103    H49     24.205951   19.800675   18.378103 H          1 MOL1         0.0794
     104    O25     24.828200   21.598778   19.217330 O.3        1 MOL1        -0.5486
     105    H50     24.441361   22.264267   19.832968 H          1 MOL1         0.3769
     106    C31     21.229571   14.030564   20.431372 C.3        1 MOL1         0.2972
     107    H51     20.764616   13.149137   19.971416 H          1 MOL1         0.0751
     108    O26     20.246222   14.904488   21.019979 O.3        1 MOL1        -0.3740
     109    C32     22.264150   13.621322   21.512156 C.3        1 MOL1         0.1003
     110    H52     23.040341   13.028001   21.011615 H          1 MOL1         0.0783
     111    O27     21.660732   12.827654   22.545735 O.3        1 MOL1        -0.5519
     112    H53     20.935769   13.372315   22.945933 H          1 MOL1         0.3769
     113    C33     22.938421   14.874716   22.120895 C.3        1 MOL1         0.1053
     114    H54     22.171311   15.409141   22.693629 H          1 MOL1         0.0783
     115    O28     23.998448   14.472230   22.994321 O.3        1 MOL1        -0.5519
     116    H55     23.615045   13.763525   23.556718 H          1 MOL1         0.3769
     117    C34     23.495278   15.827449   21.028092 C.3        1 MOL1         0.1018
     118    H56     24.403778   15.367686   20.617576 H          1 MOL1         0.0783
     119    C35     22.472217   16.067246   19.875198 C.3        1 MOL1         0.1043
     120    H57     21.655391   16.686926   20.264816 H          1 MOL1         0.0783
     121    O29     21.939670   14.793238   19.435005 O.3        1 MOL1        -0.3740
     122    C36     23.022665   16.789972   18.619324 C.3        1 MOL1         0.0138
     123    H58     22.882093   17.868704   18.746233 H          1 MOL1         0.0794
     124    H59     22.411630   16.497404   17.754891 H          1 MOL1         0.0794
     125    O30     24.401099   16.507206   18.357157 O.3        1 MOL1        -0.5486
     126    H60     24.925153   17.124319   18.918135 H          1 MOL1         0.3769
     127    C1      19.017534   19.576525   22.395878 C.3        1 MOL1        -0.1693
     128    H1      19.198731   20.654675   22.343209 H          1 MOL1         0.0829
     129    H2      18.004184   19.376396   22.048151 H          1 MOL1         0.0829
     130    C2      19.406405   18.915141   23.755174 C.3        1 MOL1        -0.1768
     131    H3      19.313192   19.548602   24.643624 H          1 MOL1         0.0829
     132    H4      18.918884   17.954129   23.955747 H          1 MOL1         0.0829
     133    C3      20.837530   18.803393   23.153513 C.3        1 MOL1         0.1211
     134    H5      21.435610   19.715080   23.274597 H          1 MOL1         0.0786
     135    C4      20.135585   18.686230   21.768055 C.3        1 MOL1        -0.1768
     136    H6      20.672247   19.122052   20.919568 H          1 MOL1         0.0829
     137    H7      19.813136   17.672969   21.502747 H          1 MOL1         0.0829
     138    O1      21.564003   17.669554   23.558332 O.3        1 MOL1        -0.5515
     139    H8      22.284422   17.527295   22.907557 H          1 MOL1         0.3773
@<TRIPOS>BOND
    1     1     2    1
    2     1     3    1
    3     1     4    1
    4     4     5    1
    5     4     6    1
    6     6     7    1
    7     4     8    1
    8     8     9    1
    9     8    10    1
   10    10    11    1
   11     8    12    1
   12    12    13    1
   13    12    14    1
   14    14    15    1
   15     1    16    1
   16    14    16    1
   17    14    17    1
   18    17    18    1
   19    17    19    1
   20    17    20    1
   21    20    21    1
   22    22    23    1
   23    22    24    1
   24    22    25    1
   25    25    26    1
   26    25    27    1
   27    27    28    1
   28    25    29    1
   29    29    30    1
   30    29    31    1
   31    31    32    1
   32     3    33    1
   33    29    33    1
   34    33    34    1
   35    33    35    1
   36    35    36    1
   37    22    37    1
   38    35    37    1
   39    35    38    1
   40    38    39    1
   41    38    40    1
   42    38    41    1
   43    41    42    1
   44    43    44    1
   45    43    45    1
   46    43    46    1
   47    46    47    1
   48    46    48    1
   49    48    49    1
   50    46    50    1
   51    50    51    1
   52    50    52    1
   53    52    53    1
   54    24    54    1
   55    50    54    1
   56    54    55    1
   57    54    56    1
   58    56    57    1
   59    43    58    1
   60    56    58    1
   61    56    59    1
   62    59    60    1
   63    59    61    1
   64    59    62    1
   65    62    63    1
   66    64    65    1
   67    64    66    1
   68    64    67    1
   69    67    68    1
   70    67    69    1
   71    69    70    1
   72    67    71    1
   73    71    72    1
   74    71    73    1
   75    73    74    1
   76    45    75    1
   77    71    75    1
   78    75    76    1
   79    75    77    1
   80    77    78    1
   81    64    79    1
   82    77    79    1
   83    77    80    1
   84    80    81    1
   85    80    82    1
   86    80    83    1
   87    83    84    1
   88    85    86    1
   89    85    87    1
   90    85    88    1
   91    88    89    1
   92    88    90    1
   93    90    91    1
   94    88    92    1
   95    92    93    1
   96    92    94    1
   97    94    95    1
   98    66    96    1
   99    92    96    1
  100    96    97    1
  101    96    98    1
  102    98    99    1
  103    85   100    1
  104    98   100    1
  105    98   101    1
  106   101   102    1
  107   101   103    1
  108   101   104    1
  109   104   105    1
  110   106   107    1
  111    12   108    1
  112   106   108    1
  113   106   109    1
  114   109   110    1
  115   109   111    1
  116   111   112    1
  117   109   113    1
  118   113   114    1
  119   113   115    1
  120   115   116    1
  121    87   117    1
  122   113   117    1
  123   117   118    1
  124   117   119    1
  125   119   120    1
  126   106   121    1
  127   119   121    1
  128   119   122    1
  129   122   123    1
  130   122   124    1
  131   122   125    1
  132   125   126    1
  133   127   128    1
  134   127   129    1
  135   127   130    1
  136   130   131    1
  137   130   132    1
  138   130   133    1
  139   133   134    1
  140   127   135    1
  141   133   135    1
  142   135   136    1
  143   135   137    1
  144   133   138    1
  145   138   139    1
@<TRIPOS>SUBSTRUCTURE
       1 MOL1            1 RESIDUE      1      MOL     
       2 MOL1          139 RESIDUE      1      MOL     
@<SCITEGIC>MOL_PROPERTY
feprocess Rank
SciTegic.value.IntegerValue
177

@<SCITEGIC>MOL_PROPERTY
Conf_Id
SciTegic.value.IntegerValue
271

@<SCITEGIC>MOL_PROPERTY
Probability
SciTegic.value.DoubleValue
0.00

@<SCITEGIC>MOL_PROPERTY
G
SciTegic.value.DoubleValue
550.331

@<SCITEGIC>MOL_PROPERTY
E
SciTegic.value.DoubleValue
371.804

@<SCITEGIC>MOL_PROPERTY
-TS
SciTegic.value.DoubleValue
178.528

@<SCITEGIC>MOL_PROPERTY
U+W
SciTegic.value.DoubleValue
249.292

@<SCITEGIC>MOL_PROPERTY
U
SciTegic.value.DoubleValue
286.254

@<SCITEGIC>MOL_PROPERTY
W
SciTegic.value.DoubleValue
-36.961

@<SCITEGIC>MOL_PROPERTY
W(PB)
SciTegic.value.DoubleValue
-42.944

@<SCITEGIC>MOL_PROPERTY
W(SA)
SciTegic.value.DoubleValue
5.982

@<SCITEGIC>MOL_PROPERTY
Valence
SciTegic.value.DoubleValue
154.158

@<SCITEGIC>MOL_PROPERTY
Coulomb
SciTegic.value.DoubleValue
154.542

@<SCITEGIC>MOL_PROPERTY
VdW
SciTegic.value.DoubleValue
-22.446

@<SCITEGIC>MOL_PROPERTY
VdW6
SciTegic.value.DoubleValue
-169.778

@<SCITEGIC>MOL_PROPERTY
VdW12
SciTegic.value.DoubleValue
147.332

@<SCITEGIC>MOL_PROPERTY
Bond
SciTegic.value.DoubleValue
4.645

@<SCITEGIC>MOL_PROPERTY
Angle
SciTegic.value.DoubleValue
11.626

@<SCITEGIC>MOL_PROPERTY
Pdih
SciTegic.value.DoubleValue
137.887

@<SCITEGIC>MOL_PROPERTY
Idih
SciTegic.value.DoubleValue
0.000

@<SCITEGIC>MOL_PROPERTY
Tether
SciTegic.value.DoubleValue
0.000

@<TRIPOS>MOLECULE
CD_guest-s16_fast_vm2_rndm.mol2 : feprocess host+ligand conformer 178
         139         145           2
SMALL
USER_CHARGES
 
@<TRIPOS>ATOM
       1    C1      16.325467   15.186358   20.809208 C.3        1 MOL1         0.2972
       2    H1      15.264896   15.130966   20.533860 H          1 MOL1         0.0751
       3    O1      16.726260   16.552553   21.072435 O.3        1 MOL1        -0.3740
       4    C2      16.611730   14.295066   22.047514 C.3        1 MOL1         0.1003
       5    H2      16.332662   13.269128   21.774230 H          1 MOL1         0.0783
       6    O2      15.835807   14.697996   23.186655 O.3        1 MOL1        -0.5519
       7    H3      16.077720   15.637781   23.386988 H          1 MOL1         0.3769
       8    C3      18.118843   14.295498   22.394960 C.3        1 MOL1         0.1053
       9    H4      18.381125   15.300001   22.752780 H          1 MOL1         0.0783
      10    O3      18.369567   13.337604   23.430021 O.3        1 MOL1        -0.5519
      11    H5      17.672449   13.498460   24.103753 H          1 MOL1         0.3769
      12    C4      19.002258   13.972225   21.161834 C.3        1 MOL1         0.1018
      13    H6      18.954454   12.891694   20.975218 H          1 MOL1         0.0783
      14    C5      18.562809   14.762610   19.894064 C.3        1 MOL1         0.1043
      15    H7      18.838049   15.810050   20.042969 H          1 MOL1         0.0783
      16    O4      17.127886   14.677536   19.725070 O.3        1 MOL1        -0.3740
      17    C6      19.217289   14.304822   18.566904 C.3        1 MOL1         0.0138
      18    H8      20.215783   14.750251   18.489286 H          1 MOL1         0.0794
      19    H9      18.627651   14.711809   17.734635 H          1 MOL1         0.0794
      20    O5      19.305603   12.880216   18.449038 O.3        1 MOL1        -0.5486
      21    H10     20.204096   12.619285   18.744492 H          1 MOL1         0.3769
      22    C7      14.979919   20.304776   21.701860 C.3        1 MOL1         0.2972
      23    H11     14.287551   21.125343   21.929822 H          1 MOL1         0.0751
      24    O6      16.209119   20.793128   21.130589 O.3        1 MOL1        -0.3740
      25    C8      15.295575   19.490197   22.985760 C.3        1 MOL1         0.1003
      26    H12     14.341992   19.092717   23.357180 H          1 MOL1         0.0783
      27    O7      15.891797   20.308600   24.005060 O.3        1 MOL1        -0.5519
      28    H13     15.729746   21.250746   23.756398 H          1 MOL1         0.3769
      29    C9      16.222679   18.294801   22.667105 C.3        1 MOL1         0.1053
      30    H14     17.194562   18.703193   22.367011 H          1 MOL1         0.0783
      31    O8      16.374690   17.489011   23.839116 O.3        1 MOL1        -0.5519
      32    H15     16.590767   18.130492   24.552916 H          1 MOL1         0.3769
      33    C10     15.665592   17.437574   21.504448 C.3        1 MOL1         0.1018
      34    H16     14.797961   16.878079   21.879498 H          1 MOL1         0.0783
      35    C11     15.232013   18.310775   20.292053 C.3        1 MOL1         0.1043
      36    H17     16.136094   18.721165   19.823916 H          1 MOL1         0.0783
      37    O9      14.388152   19.402237   20.743461 O.3        1 MOL1        -0.3740
      38    C12     14.463419   17.527392   19.200888 C.3        1 MOL1         0.0138
      39    H18     15.168454   16.858958   18.688334 H          1 MOL1         0.0794
      40    H19     14.091396   18.242025   18.454514 H          1 MOL1         0.0794
      41    O10     13.377987   16.765779   19.745090 O.3        1 MOL1        -0.5486
      42    H20     12.883143   16.373089   18.993101 H          1 MOL1         0.3769
      43    C13     18.423282   24.240564   20.732773 C.3        1 MOL1         0.2972
      44    H21     18.852587   25.226431   20.512817 H          1 MOL1         0.0751
      45    O11     19.427752   23.295586   21.163589 O.3        1 MOL1        -0.3740
      46    C14     17.337273   24.336148   21.833394 C.3        1 MOL1         0.1003
      47    H22     16.521085   24.950834   21.431653 H          1 MOL1         0.0783
      48    O12     17.842374   24.958399   23.024001 O.3        1 MOL1        -0.5519
      49    H23     18.703364   24.520555   23.245734 H          1 MOL1         0.3769
      50    C15     16.761976   22.933125   22.150097 C.3        1 MOL1         0.1053
      51    H24     17.560778   22.332032   22.606835 H          1 MOL1         0.0783
      52    O13     15.676353   23.077034   23.072518 O.3        1 MOL1        -0.5519
      53    H25     15.974917   23.769995   23.705282 H          1 MOL1         0.3769
      54    C16     16.286662   22.207792   20.859297 C.3        1 MOL1         0.1018
      55    H26     15.313198   22.613502   20.556418 H          1 MOL1         0.0783
      56    C17     17.288365   22.351111   19.678485 C.3        1 MOL1         0.1043
      57    H27     18.143687   21.704503   19.888787 H          1 MOL1         0.0783
      58    O14     17.768099   23.711626   19.561156 O.3        1 MOL1        -0.3740
      59    C18     16.714088   21.897851   18.313927 C.3        1 MOL1         0.0138
      60    H28     16.610751   20.804387   18.324204 H          1 MOL1         0.0794
      61    H29     17.442734   22.146717   17.531103 H          1 MOL1         0.0794
      62    O15     15.449146   22.501442   18.016296 O.3        1 MOL1        -0.5486
      63    H30     14.771139   22.056766   18.568790 H          1 MOL1         0.3769
      64    C19     23.481438   22.807240   21.895108 C.3        1 MOL1         0.2972
      65    H31     24.556536   22.951935   22.060506 H          1 MOL1         0.0751
      66    O16     23.133837   21.408083   21.826233 O.3        1 MOL1        -0.3740
      67    C20     22.683946   23.467526   23.047097 C.3        1 MOL1         0.1003
      68    H32     22.913238   24.541043   23.028944 H          1 MOL1         0.0783
      69    O17     23.067173   22.931067   24.322806 O.3        1 MOL1        -0.5519
      70    H33     23.412798   22.016025   24.166593 H          1 MOL1         0.3769
      71    C21     21.163479   23.307230   22.826688 C.3        1 MOL1         0.1053
      72    H34     20.916803   22.240955   22.904845 H          1 MOL1         0.0783
      73    O18     20.468059   24.036948   23.841225 O.3        1 MOL1        -0.5519
      74    H35     20.938175   23.812398   24.676028 H          1 MOL1         0.3769
      75    C22     20.748740   23.811510   21.421419 C.3        1 MOL1         0.1018
      76    H36     20.769529   24.909301   21.425299 H          1 MOL1         0.0783
      77    C23     21.678293   23.268111   20.297866 C.3        1 MOL1         0.1043
      78    H37     21.466575   22.199472   20.171814 H          1 MOL1         0.0783
      79    O19     23.075285   23.430596   20.658764 O.3        1 MOL1        -0.3740
      80    C24     21.441149   23.947879   18.928548 C.3        1 MOL1         0.0138
      81    H38     20.461173   23.629470   18.547591 H          1 MOL1         0.0794
      82    H39     22.200196   23.587833   18.221263 H          1 MOL1         0.0794
      83    O20     21.483931   25.377428   19.022070 O.3        1 MOL1        -0.5486
      84    H40     21.376953   25.738489   18.115144 H          1 MOL1         0.3769
      85    C25     24.951885   17.637980   21.626099 C.3        1 MOL1         0.2972
      86    H41     25.694167   16.835255   21.531644 H          1 MOL1         0.0751
      87    O21     23.610090   17.117501   21.705881 O.3        1 MOL1        -0.3740
      88    C26     25.230152   18.459031   22.910653 C.3        1 MOL1         0.1003
      89    H42     26.240317   18.878749   22.817566 H          1 MOL1         0.0783
      90    O22     25.177280   17.626681   24.079869 O.3        1 MOL1        -0.5519
      91    H43     24.572745   16.869316   23.874975 H          1 MOL1         0.3769
      92    C27     24.238596   19.638550   23.038877 C.3        1 MOL1         0.1053
      93    H44     23.228443   19.231983   23.187037 H          1 MOL1         0.0783
      94    O23     24.613042   20.442476   24.160923 O.3        1 MOL1        -0.5519
      95    H45     24.811224   19.796693   24.876498 H          1 MOL1         0.3769
      96    C28     24.242965   20.489519   21.746772 C.3        1 MOL1         0.1018
      97    H46     25.206903   21.010487   21.679380 H          1 MOL1         0.0783
      98    C29     24.055260   19.612040   20.479040 C.3        1 MOL1         0.1043
      99    H47     23.045263   19.189987   20.504480 H          1 MOL1         0.0783
     100    O24     25.020070   18.527084   20.487388 O.3        1 MOL1        -0.3740
     101    C30     24.189314   20.393840   19.147106 C.3        1 MOL1         0.0138
     102    H48     23.245002   20.917639   18.951784 H          1 MOL1         0.0794
     103    H49     24.333942   19.673212   18.331205 H          1 MOL1         0.0794
     104    O25     25.259251   21.345385   19.161430 O.3        1 MOL1        -0.5486
     105    H50     24.914136   22.159014   19.591821 H          1 MOL1         0.3769
     106    C31     21.445719   13.582698   21.149774 C.3        1 MOL1         0.2972
     107    H51     21.138307   12.556224   20.913891 H          1 MOL1         0.0751
     108    O26     20.324564   14.396250   21.542307 O.3        1 MOL1        -0.3740
     109    C32     22.419674   13.585952   22.354723 C.3        1 MOL1         0.1003
     110    H52     23.293127   12.979726   22.081508 H          1 MOL1         0.0783
     111    O27     21.779693   13.014729   23.507068 O.3        1 MOL1        -0.5519
     112    H53     20.852602   13.355985   23.505905 H          1 MOL1         0.3769
     113    C33     22.905645   15.023826   22.670243 C.3        1 MOL1         0.1053
     114    H54     22.048467   15.607067   23.035846 H          1 MOL1         0.0783
     115    O28     23.921681   14.969519   23.676133 O.3        1 MOL1        -0.5519
     116    H55     23.570285   14.357613   24.361141 H          1 MOL1         0.3769
     117    C34     23.453012   15.717416   21.399234 C.3        1 MOL1         0.1018
     118    H56     24.404441   15.242631   21.125944 H          1 MOL1         0.0783
     119    C35     22.463907   15.593287   20.209774 C.3        1 MOL1         0.1043
     120    H57     21.554769   16.147011   20.461709 H          1 MOL1         0.0783
     121    O29     22.114905   14.199061   20.025108 O.3        1 MOL1        -0.3740
     122    C36     22.988369   16.178432   18.873168 C.3        1 MOL1         0.0138
     123    H58     22.767766   17.253926   18.856861 H          1 MOL1         0.0794
     124    H59     22.428128   15.722959   18.046121 H          1 MOL1         0.0794
     125    O30     24.393764   15.981694   18.682940 O.3        1 MOL1        -0.5486
     126    H60     24.851506   16.702030   19.172908 H          1 MOL1         0.3769
     127    C1      20.131561   19.750304   19.466513 C.3        1 MOL1        -0.1693
     128    H1      21.193506   19.874918   19.230320 H          1 MOL1         0.0829
     129    H2      19.552475   20.392366   18.794592 H          1 MOL1         0.0829
     130    C2      19.781812   19.825158   20.991765 C.3        1 MOL1        -0.1768
     131    H3      20.402450   20.489983   21.598364 H          1 MOL1         0.0829
     132    H4      18.730418   20.017686   21.225437 H          1 MOL1         0.0829
     133    C3      20.181250   18.325180   21.031580 C.3        1 MOL1         0.1211
     134    H5      21.260658   18.175746   21.140342 H          1 MOL1         0.0786
     135    C4      19.660327   18.266038   19.562458 C.3        1 MOL1        -0.1768
     136    H6      18.576757   18.128269   19.462995 H          1 MOL1         0.0829
     137    H7      20.167599   17.558158   18.899263 H          1 MOL1         0.0829
     138    O1      19.490730   17.522409   21.955343 O.3        1 MOL1        -0.5515
     139    H8      18.557362   17.455119   21.664577 H          1 MOL1         0.3773
@<TRIPOS>BOND
    1     1     2    1
    2     1     3    1
    3     1     4    1
    4     4     5    1
    5     4     6    1
    6     6     7    1
    7     4     8    1
    8     8     9    1
    9     8    10    1
   10    10    11    1
   11     8    12    1
   12    12    13    1
   13    12    14    1
   14    14    15    1
   15     1    16    1
   16    14    16    1
   17    14    17    1
   18    17    18    1
   19    17    19    1
   20    17    20    1
   21    20    21    1
   22    22    23    1
   23    22    24    1
   24    22    25    1
   25    25    26    1
   26    25    27    1
   27    27    28    1
   28    25    29    1
   29    29    30    1
   30    29    31    1
   31    31    32    1
   32     3    33    1
   33    29    33    1
   34    33    34    1
   35    33    35    1
   36    35    36    1
   37    22    37    1
   38    35    37    1
   39    35    38    1
   40    38    39    1
   41    38    40    1
   42    38    41    1
   43    41    42    1
   44    43    44    1
   45    43    45    1
   46    43    46    1
   47    46    47    1
   48    46    48    1
   49    48    49    1
   50    46    50    1
   51    50    51    1
   52    50    52    1
   53    52    53    1
   54    24    54    1
   55    50    54    1
   56    54    55    1
   57    54    56    1
   58    56    57    1
   59    43    58    1
   60    56    58    1
   61    56    59    1
   62    59    60    1
   63    59    61    1
   64    59    62    1
   65    62    63    1
   66    64    65    1
   67    64    66    1
   68    64    67    1
   69    67    68    1
   70    67    69    1
   71    69    70    1
   72    67    71    1
   73    71    72    1
   74    71    73    1
   75    73    74    1
   76    45    75    1
   77    71    75    1
   78    75    76    1
   79    75    77    1
   80    77    78    1
   81    64    79    1
   82    77    79    1
   83    77    80    1
   84    80    81    1
   85    80    82    1
   86    80    83    1
   87    83    84    1
   88    85    86    1
   89    85    87    1
   90    85    88    1
   91    88    89    1
   92    88    90    1
   93    90    91    1
   94    88    92    1
   95    92    93    1
   96    92    94    1
   97    94    95    1
   98    66    96    1
   99    92    96    1
  100    96    97    1
  101    96    98    1
  102    98    99    1
  103    85   100    1
  104    98   100    1
  105    98   101    1
  106   101   102    1
  107   101   103    1
  108   101   104    1
  109   104   105    1
  110   106   107    1
  111    12   108    1
  112   106   108    1
  113   106   109    1
  114   109   110    1
  115   109   111    1
  116   111   112    1
  117   109   113    1
  118   113   114    1
  119   113   115    1
  120   115   116    1
  121    87   117    1
  122   113   117    1
  123   117   118    1
  124   117   119    1
  125   119   120    1
  126   106   121    1
  127   119   121    1
  128   119   122    1
  129   122   123    1
  130   122   124    1
  131   122   125    1
  132   125   126    1
  133   127   128    1
  134   127   129    1
  135   127   130    1
  136   130   131    1
  137   130   132    1
  138   130   133    1
  139   133   134    1
  140   127   135    1
  141   133   135    1
  142   135   136    1
  143   135   137    1
  144   133   138    1
  145   138   139    1
@<TRIPOS>SUBSTRUCTURE
       1 MOL1            1 RESIDUE      1      MOL     
       2 MOL1          139 RESIDUE      1      MOL     
@<SCITEGIC>MOL_PROPERTY
feprocess Rank
SciTegic.value.IntegerValue
178

@<SCITEGIC>MOL_PROPERTY
Conf_Id
SciTegic.value.IntegerValue
189

@<SCITEGIC>MOL_PROPERTY
Probability
SciTegic.value.DoubleValue
0.00

@<SCITEGIC>MOL_PROPERTY
G
SciTegic.value.DoubleValue
550.332

@<SCITEGIC>MOL_PROPERTY
E
SciTegic.value.DoubleValue
372.120

@<SCITEGIC>MOL_PROPERTY
-TS
SciTegic.value.DoubleValue
178.213

@<SCITEGIC>MOL_PROPERTY
U+W
SciTegic.value.DoubleValue
249.608

@<SCITEGIC>MOL_PROPERTY
U
SciTegic.value.DoubleValue
287.878

@<SCITEGIC>MOL_PROPERTY
W
SciTegic.value.DoubleValue
-38.269

@<SCITEGIC>MOL_PROPERTY
W(PB)
SciTegic.value.DoubleValue
-44.295

@<SCITEGIC>MOL_PROPERTY
W(SA)
SciTegic.value.DoubleValue
6.026

@<SCITEGIC>MOL_PROPERTY
Valence
SciTegic.value.DoubleValue
154.950

@<SCITEGIC>MOL_PROPERTY
Coulomb
SciTegic.value.DoubleValue
154.396

@<SCITEGIC>MOL_PROPERTY
VdW
SciTegic.value.DoubleValue
-21.468

@<SCITEGIC>MOL_PROPERTY
VdW6
SciTegic.value.DoubleValue
-168.422

@<SCITEGIC>MOL_PROPERTY
VdW12
SciTegic.value.DoubleValue
146.954

@<SCITEGIC>MOL_PROPERTY
Bond
SciTegic.value.DoubleValue
4.726

@<SCITEGIC>MOL_PROPERTY
Angle
SciTegic.value.DoubleValue
12.164

@<SCITEGIC>MOL_PROPERTY
Pdih
SciTegic.value.DoubleValue
138.060

@<SCITEGIC>MOL_PROPERTY
Idih
SciTegic.value.DoubleValue
0.000

@<SCITEGIC>MOL_PROPERTY
Tether
SciTegic.value.DoubleValue
0.000

@<TRIPOS>MOLECULE
CD_guest-s16_fast_vm2_rndm.mol2 : feprocess host+ligand conformer 179
         139         145           2
SMALL
USER_CHARGES
 
@<TRIPOS>ATOM
       1    C1      16.138455   15.094719   21.509163 C.3        1 MOL1         0.2972
       2    H1      15.052445   14.939270   21.530830 H          1 MOL1         0.0751
       3    O1      16.481839   16.490366   21.640323 O.3        1 MOL1        -0.3740
       4    C2      16.799295   14.312950   22.670964 C.3        1 MOL1         0.1003
       5    H2      16.566792   13.250117   22.524256 H          1 MOL1         0.0783
       6    O2      16.270240   14.740196   23.936531 O.3        1 MOL1        -0.5519
       7    H3      16.054332   15.703314   23.856129 H          1 MOL1         0.3769
       8    C3      18.337909   14.467818   22.645470 C.3        1 MOL1         0.1053
       9    H4      18.579882   15.506341   22.900476 H          1 MOL1         0.0783
      10    O3      18.917470   13.593740   23.619398 O.3        1 MOL1        -0.5519
      11    H5      18.383495   13.733206   24.433307 H          1 MOL1         0.3769
      12    C4      18.922617   14.155532   21.244676 C.3        1 MOL1         0.1018
      13    H6      18.943659   13.065549   21.114462 H          1 MOL1         0.0783
      14    C5      18.115449   14.814874   20.088956 C.3        1 MOL1         0.1043
      15    H7      18.321855   15.891136   20.105906 H          1 MOL1         0.0783
      16    O4      16.690457   14.608343   20.269244 O.3        1 MOL1        -0.3740
      17    C6      18.511804   14.295069   18.686647 C.3        1 MOL1         0.0138
      18    H8      19.516373   14.668978   18.447333 H          1 MOL1         0.0794
      19    H9      17.820730   14.720107   17.946561 H          1 MOL1         0.0794
      20    O5      18.497041   12.863679   18.617684 O.3        1 MOL1        -0.5486
      21    H10     18.702842   12.607788   17.692243 H          1 MOL1         0.3769
      22    C7      14.741536   20.288784   21.388120 C.3        1 MOL1         0.2972
      23    H11     14.020513   21.109702   21.283976 H          1 MOL1         0.0751
      24    O6      16.091622   20.781000   21.496237 O.3        1 MOL1        -0.3740
      25    C8      14.436164   19.487240   22.678494 C.3        1 MOL1         0.1003
      26    H12     13.410859   19.103574   22.596513 H          1 MOL1         0.0783
      27    O7      14.533413   20.341148   23.829786 O.3        1 MOL1        -0.5519
      28    H13     15.176104   21.056311   23.600617 H          1 MOL1         0.3769
      29    C9      15.391133   18.277299   22.818882 C.3        1 MOL1         0.1053
      30    H14     16.408121   18.658589   22.984943 H          1 MOL1         0.0783
      31    O8      14.986952   17.474439   23.932066 O.3        1 MOL1        -0.5519
      32    H15     14.826696   18.114055   24.661651 H          1 MOL1         0.3769
      33    C10     15.390078   17.425447   21.527058 C.3        1 MOL1         0.1018
      34    H16     14.417962   16.921410   21.446353 H          1 MOL1         0.0783
      35    C11     15.622110   18.300518   20.264865 C.3        1 MOL1         0.1043
      36    H17     16.632954   18.715107   20.323750 H          1 MOL1         0.0783
      37    O9      14.670466   19.395215   20.252979 O.3        1 MOL1        -0.3740
      38    C12     15.530444   17.533569   18.921205 C.3        1 MOL1         0.0138
      39    H18     16.500122   17.057206   18.725639 H          1 MOL1         0.0794
      40    H19     15.360104   18.258878   18.114455 H          1 MOL1         0.0794
      41    O10     14.502772   16.537262   18.912063 O.3        1 MOL1        -0.5486
      42    H20     14.905937   15.710104   19.259235 H          1 MOL1         0.3769
      43    C13     18.547707   24.004027   20.587747 C.3        1 MOL1         0.2972
      44    H21     18.983528   24.943640   20.224275 H          1 MOL1         0.0751
      45    O11     19.562690   23.107280   21.095546 O.3        1 MOL1        -0.3740
      46    C14     17.499223   24.266804   21.701959 C.3        1 MOL1         0.1003
      47    H22     16.691947   24.860052   21.252946 H          1 MOL1         0.0783
      48    O12     18.057178   25.005345   22.798390 O.3        1 MOL1        -0.5519
      49    H23     18.853227   24.508245   23.115713 H          1 MOL1         0.3769
      50    C15     16.887893   22.929975   22.190238 C.3        1 MOL1         0.1053
      51    H24     17.683550   22.341943   22.668624 H          1 MOL1         0.0783
      52    O13     15.843862   23.188544   23.134681 O.3        1 MOL1        -0.5519
      53    H25     16.204548   23.880507   23.732954 H          1 MOL1         0.3769
      54    C16     16.325211   22.113248   21.000031 C.3        1 MOL1         0.1018
      55    H26     15.401832   22.597265   20.655980 H          1 MOL1         0.0783
      56    C17     17.332971   22.020753   19.820115 C.3        1 MOL1         0.1043
      57    H27     18.163444   21.389290   20.142360 H          1 MOL1         0.0783
      58    O14     17.852229   23.336714   19.510583 O.3        1 MOL1        -0.3740
      59    C18     16.766605   21.389215   18.522395 C.3        1 MOL1         0.0138
      60    H28     16.895216   20.302040   18.578986 H          1 MOL1         0.0794
      61    H29     17.369876   21.736400   17.672955 H          1 MOL1         0.0794
      62    O15     15.384840   21.691290   18.300674 O.3        1 MOL1        -0.5486
      63    H30     14.863898   21.052610   18.839238 H          1 MOL1         0.3769
      64    C19     23.609069   22.825427   21.987441 C.3        1 MOL1         0.2972
      65    H31     24.669836   23.007405   22.201240 H          1 MOL1         0.0751
      66    O16     23.323095   21.418985   21.847152 O.3        1 MOL1        -0.3740
      67    C20     22.731544   23.397297   23.128705 C.3        1 MOL1         0.1003
      68    H32     22.902142   24.481418   23.159171 H          1 MOL1         0.0783
      69    O17     23.093143   22.833244   24.398882 O.3        1 MOL1        -0.5519
      70    H33     23.482040   21.939173   24.225358 H          1 MOL1         0.3769
      71    C21     21.230162   23.164600   22.840153 C.3        1 MOL1         0.1053
      72    H34     21.038003   22.085794   22.875136 H          1 MOL1         0.0783
      73    O18     20.459729   23.818405   23.851964 O.3        1 MOL1        -0.5519
      74    H35     20.907866   23.584207   24.696213 H          1 MOL1         0.3769
      75    C22     20.838608   23.692845   21.435271 C.3        1 MOL1         0.1018
      76    H36     20.786403   24.788830   21.480971 H          1 MOL1         0.0783
      77    C23     21.849998   23.256972   20.334214 C.3        1 MOL1         0.1043
      78    H37     21.712589   22.183832   20.155197 H          1 MOL1         0.0783
      79    O19     23.217326   23.485914   20.765764 O.3        1 MOL1        -0.3740
      80    C24     21.634321   23.977399   18.982028 C.3        1 MOL1         0.0138
      81    H38     20.703599   23.604167   18.533434 H          1 MOL1         0.0794
      82    H39     22.455332   23.705805   18.305047 H          1 MOL1         0.0794
      83    O20     21.562896   25.400685   19.133925 O.3        1 MOL1        -0.5486
      84    H40     21.500172   25.793441   18.235977 H          1 MOL1         0.3769
      85    C25     25.073207   17.650132   21.639100 C.3        1 MOL1         0.2972
      86    H41     25.769422   16.804942   21.564033 H          1 MOL1         0.0751
      87    O21     23.701111   17.210327   21.644823 O.3        1 MOL1        -0.3740
      88    C26     25.322845   18.419737   22.958491 C.3        1 MOL1         0.1003
      89    H42     26.355117   18.792610   22.934553 H          1 MOL1         0.0783
      90    O22     25.159903   17.548167   24.089087 O.3        1 MOL1        -0.5519
      91    H43     24.560797   16.814486   23.802946 H          1 MOL1         0.3769
      92    C27     24.375783   19.637864   23.071608 C.3        1 MOL1         0.1053
      93    H44     23.346529   19.265728   23.170213 H          1 MOL1         0.0783
      94    O23     24.728575   20.399939   24.229100 O.3        1 MOL1        -0.5519
      95    H45     24.865153   19.731496   24.938101 H          1 MOL1         0.3769
      96    C28     24.453370   20.525060   21.804193 C.3        1 MOL1         0.1018
      97    H46     25.410012   21.063155   21.808258 H          1 MOL1         0.0783
      98    C29     24.337317   19.689872   20.498140 C.3        1 MOL1         0.1043
      99    H47     23.315883   19.305563   20.435491 H          1 MOL1         0.0783
     100    O24     25.254553   18.565429   20.534491 O.3        1 MOL1        -0.3740
     101    C30     24.580886   20.503419   19.203017 C.3        1 MOL1         0.0138
     102    H48     23.679619   21.092590   18.987237 H          1 MOL1         0.0794
     103    H49     24.714662   19.800996   18.369555 H          1 MOL1         0.0794
     104    O25     25.711786   21.376546   19.297792 O.3        1 MOL1        -0.5486
     105    H50     25.409848   22.193910   19.750505 H          1 MOL1         0.3769
     106    C31     21.311592   13.910036   20.707585 C.3        1 MOL1         0.2972
     107    H51     20.940572   12.949600   20.327336 H          1 MOL1         0.0751
     108    O26     20.244538   14.729061   21.225745 O.3        1 MOL1        -0.3740
     109    C32     22.335670   13.694026   21.853911 C.3        1 MOL1         0.1003
     110    H52     23.167491   13.106784   21.443740 H          1 MOL1         0.0783
     111    O27     21.745483   12.971282   22.946145 O.3        1 MOL1        -0.5519
     112    H53     20.849425   13.361669   23.110032 H          1 MOL1         0.3769
     113    C33     22.906641   15.049556   22.344722 C.3        1 MOL1         0.1053
     114    H54     22.090699   15.618280   22.812640 H          1 MOL1         0.0783
     115    O28     23.947425   14.818188   23.299888 O.3        1 MOL1        -0.5519
     116    H55     23.592230   14.125159   23.900475 H          1 MOL1         0.3769
     117    C34     23.455467   15.877942   21.157408 C.3        1 MOL1         0.1018
     118    H56     24.369572   15.397236   20.784905 H          1 MOL1         0.0783
     119    C35     22.421466   15.974880   20.005284 C.3        1 MOL1         0.1043
     120    H57     21.565054   16.551498   20.370565 H          1 MOL1         0.0783
     121    O29     21.975815   14.642957   19.652841 O.3        1 MOL1        -0.3740
     122    C36     22.941558   16.683922   18.728438 C.3        1 MOL1         0.0138
     123    H58     22.778316   17.761716   18.840327 H          1 MOL1         0.0794
     124    H59     22.334433   16.356383   17.874083 H          1 MOL1         0.0794
     125    O30     24.329438   16.441481   18.470521 O.3        1 MOL1        -0.5486
     126    H60     24.840061   17.031475   19.071566 H          1 MOL1         0.3769
     127    C1      20.464934   19.684160   19.559118 C.3        1 MOL1        -0.1693
     128    H1      20.045856   20.674515   19.351033 H          1 MOL1         0.0829
     129    H2      21.321453   19.532306   18.894280 H          1 MOL1         0.0829
     130    C2      19.420428   18.522754   19.607093 C.3        1 MOL1        -0.1768
     131    H3      19.840234   17.528007   19.428208 H          1 MOL1         0.0829
     132    H4      18.543417   18.646175   18.965714 H          1 MOL1         0.0829
     133    C3      19.233051   18.888649   21.113162 C.3        1 MOL1         0.1211
     134    H5      18.510900   19.688559   21.308573 H          1 MOL1         0.0786
     135    C4      20.704203   19.378896   21.074091 C.3        1 MOL1        -0.1768
     136    H6      21.429675   18.589963   21.290690 H          1 MOL1         0.0829
     137    H7      20.926633   20.236873   21.711442 H          1 MOL1         0.0829
     138    O1      19.012094   17.806694   21.981190 O.3        1 MOL1        -0.5515
     139    H8      18.110019   17.456537   21.819831 H          1 MOL1         0.3773
@<TRIPOS>BOND
    1     1     2    1
    2     1     3    1
    3     1     4    1
    4     4     5    1
    5     4     6    1
    6     6     7    1
    7     4     8    1
    8     8     9    1
    9     8    10    1
   10    10    11    1
   11     8    12    1
   12    12    13    1
   13    12    14    1
   14    14    15    1
   15     1    16    1
   16    14    16    1
   17    14    17    1
   18    17    18    1
   19    17    19    1
   20    17    20    1
   21    20    21    1
   22    22    23    1
   23    22    24    1
   24    22    25    1
   25    25    26    1
   26    25    27    1
   27    27    28    1
   28    25    29    1
   29    29    30    1
   30    29    31    1
   31    31    32    1
   32     3    33    1
   33    29    33    1
   34    33    34    1
   35    33    35    1
   36    35    36    1
   37    22    37    1
   38    35    37    1
   39    35    38    1
   40    38    39    1
   41    38    40    1
   42    38    41    1
   43    41    42    1
   44    43    44    1
   45    43    45    1
   46    43    46    1
   47    46    47    1
   48    46    48    1
   49    48    49    1
   50    46    50    1
   51    50    51    1
   52    50    52    1
   53    52    53    1
   54    24    54    1
   55    50    54    1
   56    54    55    1
   57    54    56    1
   58    56    57    1
   59    43    58    1
   60    56    58    1
   61    56    59    1
   62    59    60    1
   63    59    61    1
   64    59    62    1
   65    62    63    1
   66    64    65    1
   67    64    66    1
   68    64    67    1
   69    67    68    1
   70    67    69    1
   71    69    70    1
   72    67    71    1
   73    71    72    1
   74    71    73    1
   75    73    74    1
   76    45    75    1
   77    71    75    1
   78    75    76    1
   79    75    77    1
   80    77    78    1
   81    64    79    1
   82    77    79    1
   83    77    80    1
   84    80    81    1
   85    80    82    1
   86    80    83    1
   87    83    84    1
   88    85    86    1
   89    85    87    1
   90    85    88    1
   91    88    89    1
   92    88    90    1
   93    90    91    1
   94    88    92    1
   95    92    93    1
   96    92    94    1
   97    94    95    1
   98    66    96    1
   99    92    96    1
  100    96    97    1
  101    96    98    1
  102    98    99    1
  103    85   100    1
  104    98   100    1
  105    98   101    1
  106   101   102    1
  107   101   103    1
  108   101   104    1
  109   104   105    1
  110   106   107    1
  111    12   108    1
  112   106   108    1
  113   106   109    1
  114   109   110    1
  115   109   111    1
  116   111   112    1
  117   109   113    1
  118   113   114    1
  119   113   115    1
  120   115   116    1
  121    87   117    1
  122   113   117    1
  123   117   118    1
  124   117   119    1
  125   119   120    1
  126   106   121    1
  127   119   121    1
  128   119   122    1
  129   122   123    1
  130   122   124    1
  131   122   125    1
  132   125   126    1
  133   127   128    1
  134   127   129    1
  135   127   130    1
  136   130   131    1
  137   130   132    1
  138   130   133    1
  139   133   134    1
  140   127   135    1
  141   133   135    1
  142   135   136    1
  143   135   137    1
  144   133   138    1
  145   138   139    1
@<TRIPOS>SUBSTRUCTURE
       1 MOL1            1 RESIDUE      1      MOL     
       2 MOL1          139 RESIDUE      1      MOL     
@<SCITEGIC>MOL_PROPERTY
feprocess Rank
SciTegic.value.IntegerValue
179

@<SCITEGIC>MOL_PROPERTY
Conf_Id
SciTegic.value.IntegerValue
202

@<SCITEGIC>MOL_PROPERTY
Probability
SciTegic.value.DoubleValue
0.00

@<SCITEGIC>MOL_PROPERTY
G
SciTegic.value.DoubleValue
550.364

@<SCITEGIC>MOL_PROPERTY
E
SciTegic.value.DoubleValue
372.166

@<SCITEGIC>MOL_PROPERTY
-TS
SciTegic.value.DoubleValue
178.198

@<SCITEGIC>MOL_PROPERTY
U+W
SciTegic.value.DoubleValue
249.655

@<SCITEGIC>MOL_PROPERTY
U
SciTegic.value.DoubleValue
286.977

@<SCITEGIC>MOL_PROPERTY
W
SciTegic.value.DoubleValue
-37.323

@<SCITEGIC>MOL_PROPERTY
W(PB)
SciTegic.value.DoubleValue
-43.281

@<SCITEGIC>MOL_PROPERTY
W(SA)
SciTegic.value.DoubleValue
5.958

@<SCITEGIC>MOL_PROPERTY
Valence
SciTegic.value.DoubleValue
156.767

@<SCITEGIC>MOL_PROPERTY
Coulomb
SciTegic.value.DoubleValue
153.023

@<SCITEGIC>MOL_PROPERTY
VdW
SciTegic.value.DoubleValue
-22.813

@<SCITEGIC>MOL_PROPERTY
VdW6
SciTegic.value.DoubleValue
-170.383

@<SCITEGIC>MOL_PROPERTY
VdW12
SciTegic.value.DoubleValue
147.570

@<SCITEGIC>MOL_PROPERTY
Bond
SciTegic.value.DoubleValue
4.720

@<SCITEGIC>MOL_PROPERTY
Angle
SciTegic.value.DoubleValue
11.112

@<SCITEGIC>MOL_PROPERTY
Pdih
SciTegic.value.DoubleValue
140.935

@<SCITEGIC>MOL_PROPERTY
Idih
SciTegic.value.DoubleValue
0.000

@<SCITEGIC>MOL_PROPERTY
Tether
SciTegic.value.DoubleValue
0.000

@<TRIPOS>MOLECULE
CD_guest-s16_fast_vm2_rndm.mol2 : feprocess host+ligand conformer 180
         139         145           2
SMALL
USER_CHARGES
 
@<TRIPOS>ATOM
       1    C1      16.489005   15.404300   21.873743 C.3        1 MOL1         0.2972
       2    H1      15.467560   15.267614   22.250632 H          1 MOL1         0.0751
       3    O1      16.640816   16.680130   21.217686 O.3        1 MOL1        -0.3740
       4    C2      17.509690   15.292616   23.037742 C.3        1 MOL1         0.1003
       5    H2      17.369813   14.301253   23.488264 H          1 MOL1         0.0783
       6    O2      17.293540   16.296175   24.042597 O.3        1 MOL1        -0.5519
       7    H3      16.352171   16.584304   23.966246 H          1 MOL1         0.3769
       8    C3      18.963898   15.381919   22.522390 C.3        1 MOL1         0.1053
       9    H4      19.128268   16.399457   22.145634 H          1 MOL1         0.0783
      10    O3      19.843248   15.121437   23.619461 O.3        1 MOL1        -0.5519
      11    H5      19.495578   15.682712   24.349437 H          1 MOL1         0.3769
      12    C4      19.224582   14.384956   21.363637 C.3        1 MOL1         0.1018
      13    H6      19.282525   13.370870   21.778424 H          1 MOL1         0.0783
      14    C5      18.103089   14.447172   20.288588 C.3        1 MOL1         0.1043
      15    H7      18.189033   15.405167   19.760498 H          1 MOL1         0.0783
      16    O4      16.798941   14.369435   20.916644 O.3        1 MOL1        -0.3740
      17    C6      18.198906   13.324365   19.226878 C.3        1 MOL1         0.0138
      18    H8      19.119949   13.465704   18.645214 H          1 MOL1         0.0794
      19    H9      17.357873   13.435213   18.529631 H          1 MOL1         0.0794
      20    O5      18.179721   12.013102   19.807537 O.3        1 MOL1        -0.5486
      21    H10     18.988675   11.900733   20.347123 H          1 MOL1         0.3769
      22    C7      14.632181   20.327095   21.072881 C.3        1 MOL1         0.2972
      23    H11     13.912503   21.143978   20.937472 H          1 MOL1         0.0751
      24    O6      15.954344   20.814038   21.373329 O.3        1 MOL1        -0.3740
      25    C8      14.193005   19.410680   22.239714 C.3        1 MOL1         0.1003
      26    H12     13.221164   18.978466   21.967566 H          1 MOL1         0.0783
      27    O7      14.047828   20.159024   23.456978 O.3        1 MOL1        -0.5519
      28    H13     14.770150   20.837354   23.473681 H          1 MOL1         0.3769
      29    C9      15.193110   18.244421   22.435409 C.3        1 MOL1         0.1053
      30    H14     16.148270   18.664928   22.780281 H          1 MOL1         0.0783
      31    O8      14.658355   17.363353   23.429795 O.3        1 MOL1        -0.5519
      32    H15     14.269599   17.961949   24.108648 H          1 MOL1         0.3769
      33    C10     15.448321   17.489181   21.098976 C.3        1 MOL1         0.1018
      34    H16     14.572079   16.871250   20.865066 H          1 MOL1         0.0783
      35    C11     15.708703   18.465053   19.917566 C.3        1 MOL1         0.1043
      36    H17     16.687077   18.928120   20.077724 H          1 MOL1         0.0783
      37    O9      14.704975   19.509903   19.885797 O.3        1 MOL1        -0.3740
      38    C12     15.759208   17.771289   18.534043 C.3        1 MOL1         0.0138
      39    H18     16.696614   17.203226   18.462665 H          1 MOL1         0.0794
      40    H19     15.790299   18.546082   17.756634 H          1 MOL1         0.0794
      41    O10     14.646501   16.896725   18.312097 O.3        1 MOL1        -0.5486
      42    H20     14.783935   16.098234   18.865822 H          1 MOL1         0.3769
      43    C13     18.334156   24.221949   21.451231 C.3        1 MOL1         0.2972
      44    H21     18.723337   25.247246   21.413462 H          1 MOL1         0.0751
      45    O11     19.384484   23.262205   21.660186 O.3        1 MOL1        -0.3740
      46    C14     17.351627   24.073758   22.637657 C.3        1 MOL1         0.1003
      47    H22     16.526332   24.780042   22.479510 H          1 MOL1         0.0783
      48    O12     18.017424   24.383531   23.872823 O.3        1 MOL1        -0.5519
      49    H23     18.949859   24.066963   23.776349 H          1 MOL1         0.3769
      50    C15     16.761530   22.643612   22.686013 C.3        1 MOL1         0.1053
      51    H24     17.574149   21.943610   22.925958 H          1 MOL1         0.0783
      52    O13     15.752258   22.581860   23.699263 O.3        1 MOL1        -0.5519
      53    H25     16.151567   23.025842   24.480603 H          1 MOL1         0.3769
      54    C16     16.165092   22.237138   21.316511 C.3        1 MOL1         0.1018
      55    H26     15.230271   22.791385   21.163346 H          1 MOL1         0.0783
      56    C17     17.146877   22.524544   20.146285 C.3        1 MOL1         0.1043
      57    H27     17.994492   21.835626   20.239613 H          1 MOL1         0.0783
      58    O14     17.635634   23.889094   20.230994 O.3        1 MOL1        -0.3740
      59    C18     16.538803   22.299185   18.740309 C.3        1 MOL1         0.0138
      60    H28     16.458823   21.218557   18.562304 H          1 MOL1         0.0794
      61    H29     17.236184   22.698672   17.992336 H          1 MOL1         0.0794
      62    O15     15.253119   22.911519   18.586658 O.3        1 MOL1        -0.5486
      63    H30     14.582495   22.266620   18.896660 H          1 MOL1         0.3769
      64    C19     23.480614   22.658896   21.058477 C.3        1 MOL1         0.2972
      65    H31     24.540456   22.806419   20.815380 H          1 MOL1         0.0751
      66    O16     23.181553   21.260506   21.253840 O.3        1 MOL1        -0.3740
      67    C20     23.080974   23.475274   22.321581 C.3        1 MOL1         0.1003
      68    H32     23.280887   24.530370   22.093907 H          1 MOL1         0.0783
      69    O17     23.848451   23.101899   23.475940 O.3        1 MOL1        -0.5519
      70    H33     23.634993   22.153616   23.667329 H          1 MOL1         0.3769
      71    C21     21.567260   23.337030   22.614827 C.3        1 MOL1         0.1053
      72    H34     21.363240   22.292760   22.891244 H          1 MOL1         0.0783
      73    O18     21.204506   24.209226   23.692191 O.3        1 MOL1        -0.5519
      74    H35     21.899097   24.077157   24.374857 H          1 MOL1         0.3769
      75    C22     20.727831   23.677139   21.360496 C.3        1 MOL1         0.1018
      76    H36     20.795508   24.757363   21.177310 H          1 MOL1         0.0783
      77    C23     21.231806   22.898284   20.114209 C.3        1 MOL1         0.1043
      78    H37     21.049704   21.829588   20.283348 H          1 MOL1         0.0783
      79    O19     22.656941   23.124315   19.965237 O.3        1 MOL1        -0.3740
      80    C24     20.534157   23.270145   18.781285 C.3        1 MOL1         0.0138
      81    H38     19.623933   22.665872   18.686505 H          1 MOL1         0.0794
      82    H39     21.193633   22.984335   17.951125 H          1 MOL1         0.0794
      83    O20     20.195163   24.657984   18.686484 O.3        1 MOL1        -0.5486
      84    H40     19.312152   24.757981   19.109555 H          1 MOL1         0.3769
      85    C25     24.895655   17.559451   22.018596 C.3        1 MOL1         0.2972
      86    H41     25.549566   16.726718   22.307761 H          1 MOL1         0.0751
      87    O21     23.756603   17.098681   21.262833 O.3        1 MOL1        -0.3740
      88    C26     24.422027   18.337239   23.277298 C.3        1 MOL1         0.1003
      89    H42     25.324614   18.720194   23.771275 H          1 MOL1         0.0783
      90    O22     23.707287   17.500661   24.200334 O.3        1 MOL1        -0.5519
      91    H43     23.861669   16.563535   23.929588 H          1 MOL1         0.3769
      92    C27     23.543758   19.547904   22.890240 C.3        1 MOL1         0.1053
      93    H44     22.602849   19.161383   22.479461 H          1 MOL1         0.0783
      94    O23     23.273582   20.318425   24.065859 O.3        1 MOL1        -0.5519
      95    H45     23.005603   19.651810   24.738177 H          1 MOL1         0.3769
      96    C28     24.222363   20.433066   21.814742 C.3        1 MOL1         0.1018
      97    H46     25.007419   21.029640   22.297474 H          1 MOL1         0.0783
      98    C29     24.838366   19.597729   20.655203 C.3        1 MOL1         0.1043
      99    H47     24.015996   19.199282   20.046921 H          1 MOL1         0.0783
     100    O24     25.616015   18.493068   21.186445 O.3        1 MOL1        -0.3740
     101    C30     25.745235   20.421832   19.709954 C.3        1 MOL1         0.0138
     102    H48     25.110061   21.090779   19.113698 H          1 MOL1         0.0794
     103    H49     26.238755   19.733276   19.011016 H          1 MOL1         0.0794
     104    O25     26.721283   21.188789   20.426379 O.3        1 MOL1        -0.5486
     105    H50     27.311869   21.611824   19.765338 H          1 MOL1         0.3769
     106    C31     21.477395   13.770339   20.523151 C.3        1 MOL1         0.2972
     107    H51     21.033588   12.807362   20.243103 H          1 MOL1         0.0751
     108    O26     20.458342   14.780281   20.721750 O.3        1 MOL1        -0.3740
     109    C32     22.371864   13.624161   21.781750 C.3        1 MOL1         0.1003
     110    H52     23.198686   12.956877   21.504727 H          1 MOL1         0.0783
     111    O27     21.667505   13.039939   22.886518 O.3        1 MOL1        -0.5519
     112    H53     21.012237   13.716773   23.191690 H          1 MOL1         0.3769
     113    C33     22.983703   14.988439   22.180102 C.3        1 MOL1         0.1053
     114    H54     22.169382   15.641987   22.520892 H          1 MOL1         0.0783
     115    O28     23.918712   14.775858   23.243665 O.3        1 MOL1        -0.5519
     116    H55     23.495014   14.105093   23.826421 H          1 MOL1         0.3769
     117    C34     23.684718   15.684323   20.980354 C.3        1 MOL1         0.1018
     118    H56     24.683713   15.249980   20.849738 H          1 MOL1         0.0783
     119    C35     22.897582   15.556063   19.642776 C.3        1 MOL1         0.1043
     120    H57     22.064301   16.262251   19.672570 H          1 MOL1         0.0783
     121    O29     22.355196   14.223344   19.472533 O.3        1 MOL1        -0.3740
     122    C36     23.735057   15.921707   18.393219 C.3        1 MOL1         0.0138
     123    H58     23.936696   17.001399   18.411133 H          1 MOL1         0.0794
     124    H59     23.129210   15.720283   17.499855 H          1 MOL1         0.0794
     125    O30     24.969525   15.197239   18.321317 O.3        1 MOL1        -0.5486
     126    H60     25.589326   15.599829   18.966441 H          1 MOL1         0.3769
     127    C1      20.170997   18.063938   19.053650 C.3        1 MOL1        -0.1693
     128    H1      19.561450   17.152205   19.034555 H          1 MOL1         0.0829
     129    H2      20.891502   18.022603   18.228662 H          1 MOL1         0.0829
     130    C2      20.754057   18.433218   20.457433 C.3        1 MOL1        -0.1768
     131    H3      21.592087   19.138519   20.427048 H          1 MOL1         0.0829
     132    H4      21.012163   17.602140   21.121480 H          1 MOL1         0.0829
     133    C3      19.370555   19.086978   20.721911 C.3        1 MOL1         0.1211
     134    H5      18.601022   18.374378   21.042200 H          1 MOL1         0.0786
     135    C4      19.363892   19.395017   19.192041 C.3        1 MOL1        -0.1768
     136    H6      19.920425   20.293390   18.905224 H          1 MOL1         0.0829
     137    H7      18.386734   19.419921   18.702161 H          1 MOL1         0.0829
     138    O1      19.396046   20.201735   21.575593 O.3        1 MOL1        -0.5515
     139    H8      19.606442   19.881153   22.473680 H          1 MOL1         0.3773
@<TRIPOS>BOND
    1     1     2    1
    2     1     3    1
    3     1     4    1
    4     4     5    1
    5     4     6    1
    6     6     7    1
    7     4     8    1
    8     8     9    1
    9     8    10    1
   10    10    11    1
   11     8    12    1
   12    12    13    1
   13    12    14    1
   14    14    15    1
   15     1    16    1
   16    14    16    1
   17    14    17    1
   18    17    18    1
   19    17    19    1
   20    17    20    1
   21    20    21    1
   22    22    23    1
   23    22    24    1
   24    22    25    1
   25    25    26    1
   26    25    27    1
   27    27    28    1
   28    25    29    1
   29    29    30    1
   30    29    31    1
   31    31    32    1
   32     3    33    1
   33    29    33    1
   34    33    34    1
   35    33    35    1
   36    35    36    1
   37    22    37    1
   38    35    37    1
   39    35    38    1
   40    38    39    1
   41    38    40    1
   42    38    41    1
   43    41    42    1
   44    43    44    1
   45    43    45    1
   46    43    46    1
   47    46    47    1
   48    46    48    1
   49    48    49    1
   50    46    50    1
   51    50    51    1
   52    50    52    1
   53    52    53    1
   54    24    54    1
   55    50    54    1
   56    54    55    1
   57    54    56    1
   58    56    57    1
   59    43    58    1
   60    56    58    1
   61    56    59    1
   62    59    60    1
   63    59    61    1
   64    59    62    1
   65    62    63    1
   66    64    65    1
   67    64    66    1
   68    64    67    1
   69    67    68    1
   70    67    69    1
   71    69    70    1
   72    67    71    1
   73    71    72    1
   74    71    73    1
   75    73    74    1
   76    45    75    1
   77    71    75    1
   78    75    76    1
   79    75    77    1
   80    77    78    1
   81    64    79    1
   82    77    79    1
   83    77    80    1
   84    80    81    1
   85    80    82    1
   86    80    83    1
   87    83    84    1
   88    85    86    1
   89    85    87    1
   90    85    88    1
   91    88    89    1
   92    88    90    1
   93    90    91    1
   94    88    92    1
   95    92    93    1
   96    92    94    1
   97    94    95    1
   98    66    96    1
   99    92    96    1
  100    96    97    1
  101    96    98    1
  102    98    99    1
  103    85   100    1
  104    98   100    1
  105    98   101    1
  106   101   102    1
  107   101   103    1
  108   101   104    1
  109   104   105    1
  110   106   107    1
  111    12   108    1
  112   106   108    1
  113   106   109    1
  114   109   110    1
  115   109   111    1
  116   111   112    1
  117   109   113    1
  118   113   114    1
  119   113   115    1
  120   115   116    1
  121    87   117    1
  122   113   117    1
  123   117   118    1
  124   117   119    1
  125   119   120    1
  126   106   121    1
  127   119   121    1
  128   119   122    1
  129   122   123    1
  130   122   124    1
  131   122   125    1
  132   125   126    1
  133   127   128    1
  134   127   129    1
  135   127   130    1
  136   130   131    1
  137   130   132    1
  138   130   133    1
  139   133   134    1
  140   127   135    1
  141   133   135    1
  142   135   136    1
  143   135   137    1
  144   133   138    1
  145   138   139    1
@<TRIPOS>SUBSTRUCTURE
       1 MOL1            1 RESIDUE      1      MOL     
       2 MOL1          139 RESIDUE      1      MOL     
@<SCITEGIC>MOL_PROPERTY
feprocess Rank
SciTegic.value.IntegerValue
180

@<SCITEGIC>MOL_PROPERTY
Conf_Id
SciTegic.value.IntegerValue
312

@<SCITEGIC>MOL_PROPERTY
Probability
SciTegic.value.DoubleValue
0.00

@<SCITEGIC>MOL_PROPERTY
G
SciTegic.value.DoubleValue
550.388

@<SCITEGIC>MOL_PROPERTY
E
SciTegic.value.DoubleValue
372.286

@<SCITEGIC>MOL_PROPERTY
-TS
SciTegic.value.DoubleValue
178.102

@<SCITEGIC>MOL_PROPERTY
U+W
SciTegic.value.DoubleValue
249.775

@<SCITEGIC>MOL_PROPERTY
U
SciTegic.value.DoubleValue
290.236

@<SCITEGIC>MOL_PROPERTY
W
SciTegic.value.DoubleValue
-40.461

@<SCITEGIC>MOL_PROPERTY
W(PB)
SciTegic.value.DoubleValue
-46.465

@<SCITEGIC>MOL_PROPERTY
W(SA)
SciTegic.value.DoubleValue
6.003

@<SCITEGIC>MOL_PROPERTY
Valence
SciTegic.value.DoubleValue
152.615

@<SCITEGIC>MOL_PROPERTY
Coulomb
SciTegic.value.DoubleValue
157.935

@<SCITEGIC>MOL_PROPERTY
VdW
SciTegic.value.DoubleValue
-20.314

@<SCITEGIC>MOL_PROPERTY
VdW6
SciTegic.value.DoubleValue
-168.017

@<SCITEGIC>MOL_PROPERTY
VdW12
SciTegic.value.DoubleValue
147.703

@<SCITEGIC>MOL_PROPERTY
Bond
SciTegic.value.DoubleValue
4.799

@<SCITEGIC>MOL_PROPERTY
Angle
SciTegic.value.DoubleValue
13.487

@<SCITEGIC>MOL_PROPERTY
Pdih
SciTegic.value.DoubleValue
134.329

@<SCITEGIC>MOL_PROPERTY
Idih
SciTegic.value.DoubleValue
0.000

@<SCITEGIC>MOL_PROPERTY
Tether
SciTegic.value.DoubleValue
0.000

@<TRIPOS>MOLECULE
CD_guest-s16_fast_vm2_rndm.mol2 : feprocess host+ligand conformer 181
         139         145           2
SMALL
USER_CHARGES
 
@<TRIPOS>ATOM
       1    C1      16.065601   15.028932   21.862811 C.3        1 MOL1         0.2972
       2    H1      14.997445   14.849351   22.039667 H          1 MOL1         0.0751
       3    O1      16.385007   16.431627   21.902879 O.3        1 MOL1        -0.3740
       4    C2      16.907466   14.337440   22.960302 C.3        1 MOL1         0.1003
       5    H2      16.726544   13.256630   22.895527 H          1 MOL1         0.0783
       6    O2      16.514649   14.816916   24.256384 O.3        1 MOL1        -0.5519
       7    H3      16.220885   15.752403   24.133890 H          1 MOL1         0.3769
       8    C3      18.414259   14.594226   22.726611 C.3        1 MOL1         0.1053
       9    H4      18.597607   15.660380   22.894602 H          1 MOL1         0.0783
      10    O3      19.189338   13.825395   23.652083 O.3        1 MOL1        -0.5519
      11    H5      18.760603   13.969813   24.524885 H          1 MOL1         0.3769
      12    C4      18.846081   14.261421   21.278312 C.3        1 MOL1         0.1018
      13    H6      18.961205   13.172354   21.195242 H          1 MOL1         0.0783
      14    C5      17.847274   14.780601   20.202011 C.3        1 MOL1         0.1043
      15    H7      17.979892   15.866679   20.124689 H          1 MOL1         0.0783
      16    O4      16.475800   14.500163   20.585671 O.3        1 MOL1        -0.3740
      17    C6      18.085202   14.192909   18.790257 C.3        1 MOL1         0.0138
      18    H8      19.004762   14.630777   18.379130 H          1 MOL1         0.0794
      19    H9      17.258145   14.503250   18.137652 H          1 MOL1         0.0794
      20    O5      18.192442   12.764232   18.810992 O.3        1 MOL1        -0.5486
      21    H10     18.253380   12.456080   17.880483 H          1 MOL1         0.3769
      22    C7      14.805429   20.232432   21.314093 C.3        1 MOL1         0.2972
      23    H11     14.143639   21.087872   21.126498 H          1 MOL1         0.0751
      24    O6      16.178965   20.648623   21.453016 O.3        1 MOL1        -0.3740
      25    C8      14.385631   19.527944   22.627053 C.3        1 MOL1         0.1003
      26    H12     13.347890   19.190034   22.508985 H          1 MOL1         0.0783
      27    O7      14.467689   20.444891   23.729791 O.3        1 MOL1        -0.5519
      28    H13     15.127743   21.133725   23.473694 H          1 MOL1         0.3769
      29    C9      15.269943   18.287060   22.886929 C.3        1 MOL1         0.1053
      30    H14     16.290244   18.641394   23.079099 H          1 MOL1         0.0783
      31    O8      14.782456   17.572142   24.027842 O.3        1 MOL1        -0.5519
      32    H15     14.614833   18.262489   24.707210 H          1 MOL1         0.3769
      33    C10     15.310434   17.354576   21.652125 C.3        1 MOL1         0.1018
      34    H16     14.339948   16.849929   21.559210 H          1 MOL1         0.0783
      35    C11     15.626037   18.140487   20.346942 C.3        1 MOL1         0.1043
      36    H17     16.657371   18.503687   20.421758 H          1 MOL1         0.0783
      37    O9      14.728967   19.275708   20.235051 O.3        1 MOL1        -0.3740
      38    C12     15.531786   17.319386   19.034770 C.3        1 MOL1         0.0138
      39    H18     16.517722   16.891177   18.819071 H          1 MOL1         0.0794
      40    H19     15.301836   18.005333   18.208548 H          1 MOL1         0.0794
      41    O10     14.554866   16.274236   19.087843 O.3        1 MOL1        -0.5486
      42    H20     14.974594   15.520248   19.563518 H          1 MOL1         0.3769
      43    C13     18.750188   23.764807   20.393675 C.3        1 MOL1         0.2972
      44    H21     19.199592   24.659537   19.943799 H          1 MOL1         0.0751
      45    O11     19.720821   22.993753   21.127777 O.3        1 MOL1        -0.3740
      46    C14     17.593689   24.142604   21.357830 C.3        1 MOL1         0.1003
      47    H22     16.837910   24.675513   20.766310 H          1 MOL1         0.0783
      48    O12     18.048606   25.000232   22.416378 O.3        1 MOL1        -0.5519
      49    H23     18.804771   24.542583   22.864203 H          1 MOL1         0.3769
      50    C15     16.932225   22.868754   21.940115 C.3        1 MOL1         0.1053
      51    H24     17.665967   22.364253   22.584069 H          1 MOL1         0.0783
      52    O13     15.781018   23.231172   22.710241 O.3        1 MOL1        -0.5519
      53    H25     16.067962   23.995357   23.258163 H          1 MOL1         0.3769
      54    C16     16.524562   21.889951   20.811196 C.3        1 MOL1         0.1018
      55    H26     15.674780   22.322928   20.267132 H          1 MOL1         0.0783
      56    C17     17.689842   21.634069   19.812831 C.3        1 MOL1         0.1043
      57    H27     18.485085   21.087015   20.333365 H          1 MOL1         0.0783
      58    O14     18.204189   22.912097   19.362785 O.3        1 MOL1        -0.3740
      59    C18     17.316177   20.792344   18.565518 C.3        1 MOL1         0.0138
      60    H28     17.473789   19.732714   18.800841 H          1 MOL1         0.0794
      61    H29     18.015646   21.040379   17.756161 H          1 MOL1         0.0794
      62    O15     15.967742   20.995330   18.126601 O.3        1 MOL1        -0.5486
      63    H30     15.385745   20.502941   18.751377 H          1 MOL1         0.3769
      64    C19     23.648660   22.842374   22.308411 C.3        1 MOL1         0.2972
      65    H31     24.691813   23.016239   22.602202 H          1 MOL1         0.0751
      66    O16     23.348763   21.436856   22.216303 O.3        1 MOL1        -0.3740
      67    C20     22.697476   23.452936   23.363460 C.3        1 MOL1         0.1003
      68    H32     22.880701   24.534916   23.394324 H          1 MOL1         0.0783
      69    O17     22.962223   22.883695   24.655729 O.3        1 MOL1        -0.5519
      70    H33     23.303263   21.970214   24.498048 H          1 MOL1         0.3769
      71    C21     21.220823   23.223673   22.965676 C.3        1 MOL1         0.1053
      72    H34     21.014870   22.149344   23.036512 H          1 MOL1         0.0783
      73    O18     20.368194   23.932625   23.870285 O.3        1 MOL1        -0.5519
      74    H35     20.718583   23.723639   24.765114 H          1 MOL1         0.3769
      75    C22     20.935454   23.667136   21.509357 C.3        1 MOL1         0.1018
      76    H36     20.828430   24.759951   21.489402 H          1 MOL1         0.0783
      77    C23     22.033534   23.211104   20.505266 C.3        1 MOL1         0.1043
      78    H37     21.905843   22.132420   20.348805 H          1 MOL1         0.0783
      79    O19     23.362201   23.456154   21.035419 O.3        1 MOL1        -0.3740
      80    C24     21.928914   23.889433   19.118222 C.3        1 MOL1         0.0138
      81    H38     21.046626   23.490458   18.599646 H          1 MOL1         0.0794
      82    H39     22.809496   23.610857   18.523873 H          1 MOL1         0.0794
      83    O20     21.829118   25.315013   19.221250 O.3        1 MOL1        -0.5486
      84    H40     21.852495   25.682446   18.310702 H          1 MOL1         0.3769
      85    C25     25.021827   17.697580   21.593712 C.3        1 MOL1         0.2972
      86    H41     25.691464   16.846588   21.413327 H          1 MOL1         0.0751
      87    O21     23.642066   17.281541   21.637619 O.3        1 MOL1        -0.3740
      88    C26     25.366349   18.354799   22.952658 C.3        1 MOL1         0.1003
      89    H42     26.407106   18.700381   22.902644 H          1 MOL1         0.0783
      90    O22     25.230999   17.397230   24.014132 O.3        1 MOL1        -0.5519
      91    H43     24.574909   16.728482   23.704048 H          1 MOL1         0.3769
      92    C27     24.462993   19.582291   23.213737 C.3        1 MOL1         0.1053
      93    H44     23.438456   19.218455   23.360074 H          1 MOL1         0.0783
      94    O23     24.898765   20.264426   24.394108 O.3        1 MOL1        -0.5519
      95    H45     25.038756   19.555713   25.060897 H          1 MOL1         0.3769
      96    C28     24.467780   20.556118   22.009308 C.3        1 MOL1         0.1018
      97    H46     25.426089   21.091696   21.996857 H          1 MOL1         0.0783
      98    C29     24.257685   19.824463   20.652994 C.3        1 MOL1         0.1043
      99    H47     23.224831   19.460661   20.635237 H          1 MOL1         0.0783
     100    O24     25.161592   18.693759   20.557295 O.3        1 MOL1        -0.3740
     101    C30     24.442837   20.705297   19.389173 C.3        1 MOL1         0.0138
     102    H48     23.472065   21.136417   19.117097 H          1 MOL1         0.0794
     103    H49     24.743357   20.059679   18.553051 H          1 MOL1         0.0794
     104    O25     25.400343   21.755290   19.563206 O.3        1 MOL1        -0.5486
     105    H50     24.942257   22.481430   20.046886 H          1 MOL1         0.3769
     106    C31     21.097304   14.243189   20.325494 C.3        1 MOL1         0.2972
     107    H51     20.671185   13.376290   19.804296 H          1 MOL1         0.0751
     108    O26     20.094157   14.955344   21.077481 O.3        1 MOL1        -0.3740
     109    C32     22.221703   13.800547   21.299305 C.3        1 MOL1         0.1003
     110    H52     22.978878   13.274053   20.703891 H          1 MOL1         0.0783
     111    O27     21.713876   12.911691   22.307906 O.3        1 MOL1        -0.5519
     112    H53     20.919416   13.343501   22.712653 H          1 MOL1         0.3769
     113    C33     22.902663   15.025338   21.958851 C.3        1 MOL1         0.1053
     114    H54     22.177553   15.487955   22.638486 H          1 MOL1         0.0783
     115    O28     24.047786   14.597182   22.702930 O.3        1 MOL1        -0.5519
     116    H55     23.746444   13.811618   23.211216 H          1 MOL1         0.3769
     117    C34     23.321940   16.082621   20.906409 C.3        1 MOL1         0.1018
     118    H56     24.184952   15.696404   20.348117 H          1 MOL1         0.0783
     119    C35     22.171281   16.403331   19.910820 C.3        1 MOL1         0.1043
     120    H57     21.370233   16.914515   20.458556 H          1 MOL1         0.0783
     121    O29     21.667330   15.159984   19.368365 O.3        1 MOL1        -0.3740
     122    C36     22.560081   17.319024   18.720916 C.3        1 MOL1         0.0138
     123    H58     22.372550   18.361217   19.003870 H          1 MOL1         0.0794
     124    H59     21.887397   17.100603   17.880751 H          1 MOL1         0.0794
     125    O30     23.922902   17.165496   18.306490 O.3        1 MOL1        -0.5486
     126    H60     24.485900   17.592602   18.993498 H          1 MOL1         0.3769
     127    C1      20.460332   17.827953   23.717416 C.3        1 MOL1        -0.1693
     128    H1      20.999798   17.810352   24.671558 H          1 MOL1         0.0829
     129    H2      20.566006   16.848218   23.240796 H          1 MOL1         0.0829
     130    C2      20.755693   19.049213   22.787045 C.3        1 MOL1        -0.1768
     131    H3      21.009749   19.967824   23.325628 H          1 MOL1         0.0829
     132    H4      21.494693   18.890075   21.997917 H          1 MOL1         0.0829
     133    C3      19.267090   18.953700   22.340551 C.3        1 MOL1         0.1211
     134    H5      18.783441   19.916868   22.142908 H          1 MOL1         0.0786
     135    C4      18.996923   18.377395   23.765422 C.3        1 MOL1        -0.1768
     136    H6      18.826446   19.144586   24.530274 H          1 MOL1         0.0829
     137    H7      18.200894   17.631020   23.845228 H          1 MOL1         0.0829
     138    O1      19.041623   18.065783   21.265833 O.3        1 MOL1        -0.5515
     139    H8      19.408120   17.200558   21.535651 H          1 MOL1         0.3773
@<TRIPOS>BOND
    1     1     2    1
    2     1     3    1
    3     1     4    1
    4     4     5    1
    5     4     6    1
    6     6     7    1
    7     4     8    1
    8     8     9    1
    9     8    10    1
   10    10    11    1
   11     8    12    1
   12    12    13    1
   13    12    14    1
   14    14    15    1
   15     1    16    1
   16    14    16    1
   17    14    17    1
   18    17    18    1
   19    17    19    1
   20    17    20    1
   21    20    21    1
   22    22    23    1
   23    22    24    1
   24    22    25    1
   25    25    26    1
   26    25    27    1
   27    27    28    1
   28    25    29    1
   29    29    30    1
   30    29    31    1
   31    31    32    1
   32     3    33    1
   33    29    33    1
   34    33    34    1
   35    33    35    1
   36    35    36    1
   37    22    37    1
   38    35    37    1
   39    35    38    1
   40    38    39    1
   41    38    40    1
   42    38    41    1
   43    41    42    1
   44    43    44    1
   45    43    45    1
   46    43    46    1
   47    46    47    1
   48    46    48    1
   49    48    49    1
   50    46    50    1
   51    50    51    1
   52    50    52    1
   53    52    53    1
   54    24    54    1
   55    50    54    1
   56    54    55    1
   57    54    56    1
   58    56    57    1
   59    43    58    1
   60    56    58    1
   61    56    59    1
   62    59    60    1
   63    59    61    1
   64    59    62    1
   65    62    63    1
   66    64    65    1
   67    64    66    1
   68    64    67    1
   69    67    68    1
   70    67    69    1
   71    69    70    1
   72    67    71    1
   73    71    72    1
   74    71    73    1
   75    73    74    1
   76    45    75    1
   77    71    75    1
   78    75    76    1
   79    75    77    1
   80    77    78    1
   81    64    79    1
   82    77    79    1
   83    77    80    1
   84    80    81    1
   85    80    82    1
   86    80    83    1
   87    83    84    1
   88    85    86    1
   89    85    87    1
   90    85    88    1
   91    88    89    1
   92    88    90    1
   93    90    91    1
   94    88    92    1
   95    92    93    1
   96    92    94    1
   97    94    95    1
   98    66    96    1
   99    92    96    1
  100    96    97    1
  101    96    98    1
  102    98    99    1
  103    85   100    1
  104    98   100    1
  105    98   101    1
  106   101   102    1
  107   101   103    1
  108   101   104    1
  109   104   105    1
  110   106   107    1
  111    12   108    1
  112   106   108    1
  113   106   109    1
  114   109   110    1
  115   109   111    1
  116   111   112    1
  117   109   113    1
  118   113   114    1
  119   113   115    1
  120   115   116    1
  121    87   117    1
  122   113   117    1
  123   117   118    1
  124   117   119    1
  125   119   120    1
  126   106   121    1
  127   119   121    1
  128   119   122    1
  129   122   123    1
  130   122   124    1
  131   122   125    1
  132   125   126    1
  133   127   128    1
  134   127   129    1
  135   127   130    1
  136   130   131    1
  137   130   132    1
  138   130   133    1
  139   133   134    1
  140   127   135    1
  141   133   135    1
  142   135   136    1
  143   135   137    1
  144   133   138    1
  145   138   139    1
@<TRIPOS>SUBSTRUCTURE
       1 MOL1            1 RESIDUE      1      MOL     
       2 MOL1          139 RESIDUE      1      MOL     
@<SCITEGIC>MOL_PROPERTY
feprocess Rank
SciTegic.value.IntegerValue
181

@<SCITEGIC>MOL_PROPERTY
Conf_Id
SciTegic.value.IntegerValue
450

@<SCITEGIC>MOL_PROPERTY
Probability
SciTegic.value.DoubleValue
0.00

@<SCITEGIC>MOL_PROPERTY
G
SciTegic.value.DoubleValue
550.405

@<SCITEGIC>MOL_PROPERTY
E
SciTegic.value.DoubleValue
372.401

@<SCITEGIC>MOL_PROPERTY
-TS
SciTegic.value.DoubleValue
178.004

@<SCITEGIC>MOL_PROPERTY
U+W
SciTegic.value.DoubleValue
249.889

@<SCITEGIC>MOL_PROPERTY
U
SciTegic.value.DoubleValue
284.779

@<SCITEGIC>MOL_PROPERTY
W
SciTegic.value.DoubleValue
-34.890

@<SCITEGIC>MOL_PROPERTY
W(PB)
SciTegic.value.DoubleValue
-40.797

@<SCITEGIC>MOL_PROPERTY
W(SA)
SciTegic.value.DoubleValue
5.907

@<SCITEGIC>MOL_PROPERTY
Valence
SciTegic.value.DoubleValue
155.345

@<SCITEGIC>MOL_PROPERTY
Coulomb
SciTegic.value.DoubleValue
152.439

@<SCITEGIC>MOL_PROPERTY
VdW
SciTegic.value.DoubleValue
-23.004

@<SCITEGIC>MOL_PROPERTY
VdW6
SciTegic.value.DoubleValue
-170.452

@<SCITEGIC>MOL_PROPERTY
VdW12
SciTegic.value.DoubleValue
147.448

@<SCITEGIC>MOL_PROPERTY
Bond
SciTegic.value.DoubleValue
4.466

@<SCITEGIC>MOL_PROPERTY
Angle
SciTegic.value.DoubleValue
11.615

@<SCITEGIC>MOL_PROPERTY
Pdih
SciTegic.value.DoubleValue
139.263

@<SCITEGIC>MOL_PROPERTY
Idih
SciTegic.value.DoubleValue
0.000

@<SCITEGIC>MOL_PROPERTY
Tether
SciTegic.value.DoubleValue
0.000

@<TRIPOS>MOLECULE
CD_guest-s16_fast_vm2_rndm.mol2 : feprocess host+ligand conformer 182
         139         145           2
SMALL
USER_CHARGES
 
@<TRIPOS>ATOM
       1    C1      16.258782   15.187731   21.676578 C.3        1 MOL1         0.2972
       2    H1      15.163124   15.209713   21.608834 H          1 MOL1         0.0751
       3    O1      16.820916   16.501851   21.501519 O.3        1 MOL1        -0.3740
       4    C2      16.673548   14.629707   23.053000 C.3        1 MOL1         0.1003
       5    H2      16.263276   13.614481   23.131894 H          1 MOL1         0.0783
       6    O2      16.132360   15.444672   24.106027 O.3        1 MOL1        -0.5519
       7    H3      15.735801   16.239523   23.674286 H          1 MOL1         0.3769
       8    C3      18.209295   14.535340   23.172976 C.3        1 MOL1         0.1053
       9    H4      18.602443   15.560405   23.219926 H          1 MOL1         0.0783
      10    O3      18.528892   13.842260   24.384590 O.3        1 MOL1        -0.5519
      11    H5      18.002358   14.294767   25.079913 H          1 MOL1         0.3769
      12    C4      18.871701   13.823681   21.959909 C.3        1 MOL1         0.1018
      13    H6      18.770960   12.739701   22.097280 H          1 MOL1         0.0783
      14    C5      18.252218   14.244394   20.582379 C.3        1 MOL1         0.1043
      15    H7      18.657968   15.228460   20.321438 H          1 MOL1         0.0783
      16    O4      16.805953   14.330896   20.661337 O.3        1 MOL1        -0.3740
      17    C6      18.536697   13.275892   19.402382 C.3        1 MOL1         0.0138
      18    H8      19.549966   13.437031   19.020107 H          1 MOL1         0.0794
      19    H9      17.855244   13.526299   18.577988 H          1 MOL1         0.0794
      20    O5      18.368601   11.902633   19.774241 O.3        1 MOL1        -0.5486
      21    H10     18.467912   11.359186   18.962097 H          1 MOL1         0.3769
      22    C7      15.428713   20.203716   20.083116 C.3        1 MOL1         0.2972
      23    H11     14.882343   20.968250   19.515855 H          1 MOL1         0.0751
      24    O6      16.506053   20.777993   20.844463 O.3        1 MOL1        -0.3740
      25    C8      14.484894   19.451961   21.063021 C.3        1 MOL1         0.1003
      26    H12     13.692220   18.990944   20.459514 H          1 MOL1         0.0783
      27    O7      13.885970   20.347885   22.012746 O.3        1 MOL1        -0.5519
      28    H13     14.620291   20.831213   22.469813 H          1 MOL1         0.3769
      29    C9      15.243740   18.318416   21.797652 C.3        1 MOL1         0.1053
      30    H14     15.998888   18.775668   22.449557 H          1 MOL1         0.0783
      31    O8      14.324035   17.553355   22.584025 O.3        1 MOL1        -0.5519
      32    H15     13.749258   18.218111   23.025640 H          1 MOL1         0.3769
      33    C10     15.968941   17.407680   20.776747 C.3        1 MOL1         0.1018
      34    H16     15.212523   16.868876   20.190156 H          1 MOL1         0.0783
      35    C11     16.848289   18.229845   19.800773 C.3        1 MOL1         0.1043
      36    H17     17.649165   18.716121   20.372449 H          1 MOL1         0.0783
      37    O9      16.012089   19.236722   19.179660 O.3        1 MOL1        -0.3740
      38    C12     17.528566   17.388028   18.690623 C.3        1 MOL1         0.0138
      39    H18     18.483242   17.012903   19.079122 H          1 MOL1         0.0794
      40    H19     17.767756   18.048215   17.846294 H          1 MOL1         0.0794
      41    O10     16.725143   16.287839   18.244129 O.3        1 MOL1        -0.5486
      42    H20     16.640757   15.657804   18.996600 H          1 MOL1         0.3769
      43    C13     18.414589   24.240930   21.822293 C.3        1 MOL1         0.2972
      44    H21     18.775298   25.251177   22.054978 H          1 MOL1         0.0751
      45    O11     19.483267   23.276785   21.810330 O.3        1 MOL1        -0.3740
      46    C14     17.386356   23.787086   22.883240 C.3        1 MOL1         0.1003
      47    H22     16.522273   24.461697   22.824833 H          1 MOL1         0.0783
      48    O12     17.961470   23.855588   24.198197 O.3        1 MOL1        -0.5519
      49    H23     18.941999   23.793980   24.086682 H          1 MOL1         0.3769
      50    C15     16.902090   22.351335   22.579701 C.3        1 MOL1         0.1053
      51    H24     17.748892   21.673723   22.738360 H          1 MOL1         0.0783
      52    O13     15.841755   22.001553   23.474721 O.3        1 MOL1        -0.5519
      53    H25     16.159256   22.280266   24.362648 H          1 MOL1         0.3769
      54    C16     16.432198   22.190471   21.111939 C.3        1 MOL1         0.1018
      55    H26     15.407454   22.576369   21.028206 H          1 MOL1         0.0783
      56    C17     17.362261   22.889616   20.075747 C.3        1 MOL1         0.1043
      57    H27     18.255010   22.262010   19.963676 H          1 MOL1         0.0783
      58    O14     17.769052   24.205347   20.534035 O.3        1 MOL1        -0.3740
      59    C18     16.734787   23.035397   18.668831 C.3        1 MOL1         0.0138
      60    H28     16.684306   22.041812   18.203438 H          1 MOL1         0.0794
      61    H29     17.401794   23.650465   18.049772 H          1 MOL1         0.0794
      62    O15     15.426184   23.616346   18.719170 O.3        1 MOL1        -0.5486
      63    H30     15.127664   23.760321   17.794561 H          1 MOL1         0.3769
      64    C19     23.597505   22.894877   21.641887 C.3        1 MOL1         0.2972
      65    H31     24.679270   23.047410   21.537764 H          1 MOL1         0.0751
      66    O16     23.267751   21.510391   21.863057 O.3        1 MOL1        -0.3740
      67    C20     23.065465   23.691394   22.858339 C.3        1 MOL1         0.1003
      68    H32     23.264282   24.755637   22.676998 H          1 MOL1         0.0783
      69    O17     23.735775   23.276060   24.059402 O.3        1 MOL1        -0.5519
      70    H33     23.935810   22.311720   23.959309 H          1 MOL1         0.3769
      71    C21     21.537542   23.501210   22.999858 C.3        1 MOL1         0.1053
      72    H34     21.353403   22.451406   23.260374 H          1 MOL1         0.0783
      73    O18     21.032449   24.348882   24.036710 O.3        1 MOL1        -0.5519
      74    H35     21.666080   24.244641   24.781362 H          1 MOL1         0.3769
      75    C22     20.811860   23.800725   21.666105 C.3        1 MOL1         0.1018
      76    H36     20.818855   24.885332   21.495842 H          1 MOL1         0.0783
      77    C23     21.469868   23.079875   20.455815 C.3        1 MOL1         0.1043
      78    H37     21.299169   22.001893   20.571810 H          1 MOL1         0.0783
      79    O19     22.896980   23.340249   20.459541 O.3        1 MOL1        -0.3740
      80    C24     20.894789   23.473616   19.069236 C.3        1 MOL1         0.0138
      81    H38     20.089552   22.773664   18.814381 H          1 MOL1         0.0794
      82    H39     21.679995   23.338448   18.313397 H          1 MOL1         0.0794
      83    O20     20.393450   24.814446   19.019401 O.3        1 MOL1        -0.5486
      84    H40     19.527615   24.816667   19.489892 H          1 MOL1         0.3769
      85    C25     24.792533   17.667466   21.307834 C.3        1 MOL1         0.2972
      86    H41     25.459065   16.823503   21.087119 H          1 MOL1         0.0751
      87    O21     23.455120   17.220321   21.600238 O.3        1 MOL1        -0.3740
      88    C26     25.328126   18.444253   22.537145 C.3        1 MOL1         0.1003
      89    H42     26.341215   18.789130   22.292679 H          1 MOL1         0.0783
      90    O22     25.384760   17.590848   23.691301 O.3        1 MOL1        -0.5519
      91    H43     24.861823   16.780052   23.471837 H          1 MOL1         0.3769
      92    C27     24.456820   19.687192   22.827209 C.3        1 MOL1         0.1053
      93    H44     23.463512   19.342499   23.146498 H          1 MOL1         0.0783
      94    O23     25.058593   20.465754   23.867299 O.3        1 MOL1        -0.5519
      95    H45     25.305932   19.812224   24.559193 H          1 MOL1         0.3769
      96    C28     24.287231   20.546845   21.553013 C.3        1 MOL1         0.1018
      97    H46     25.249922   21.019547   21.317906 H          1 MOL1         0.0783
      98    C29     23.812681   19.691436   20.345248 C.3        1 MOL1         0.1043
      99    H47     22.807013   19.318212   20.572170 H          1 MOL1         0.0783
     100    O24     24.712817   18.566158   20.178377 O.3        1 MOL1        -0.3740
     101    C30     23.714287   20.450931   18.997586 C.3        1 MOL1         0.0138
     102    H48     22.726553   20.924751   18.936126 H          1 MOL1         0.0794
     103    H49     23.767244   19.720717   18.178960 H          1 MOL1         0.0794
     104    O25     24.731015   21.445347   18.835390 O.3        1 MOL1        -0.5486
     105    H50     24.395067   22.264244   19.265366 H          1 MOL1         0.3769
     106    C31     21.228194   13.668127   21.149606 C.3        1 MOL1         0.2972
     107    H51     20.913863   12.678420   20.794346 H          1 MOL1         0.0751
     108    O26     20.260010   14.224044   22.057723 O.3        1 MOL1        -0.3740
     109    C32     22.570564   13.554529   21.921854 C.3        1 MOL1         0.1003
     110    H52     23.302473   13.092838   21.246418 H          1 MOL1         0.0783
     111    O27     22.406566   12.729047   23.084271 O.3        1 MOL1        -0.5519
     112    H53     21.591704   13.056742   23.530068 H          1 MOL1         0.3769
     113    C33     23.108811   14.947330   22.336218 C.3        1 MOL1         0.1053
     114    H54     22.429512   15.372332   23.088543 H          1 MOL1         0.0783
     115    O28     24.423569   14.807314   22.886549 O.3        1 MOL1        -0.5519
     116    H55     24.361551   14.050086   23.510611 H          1 MOL1         0.3769
     117    C34     23.137199   15.901513   21.120649 C.3        1 MOL1         0.1018
     118    H56     23.884275   15.538508   20.402168 H          1 MOL1         0.0783
     119    C35     21.757788   15.944806   20.416785 C.3        1 MOL1         0.1043
     120    H57     21.012756   16.336284   21.119173 H          1 MOL1         0.0783
     121    O29     21.406917   14.590073   20.046531 O.3        1 MOL1        -0.3740
     122    C36     21.707331   16.841738   19.153695 C.3        1 MOL1         0.0138
     123    H58     21.475351   17.867048   19.468444 H          1 MOL1         0.0794
     124    H59     20.876532   16.506699   18.518906 H          1 MOL1         0.0794
     125    O30     22.930234   16.834251   18.407028 O.3        1 MOL1        -0.5486
     126    H60     23.603376   17.314835   18.942824 H          1 MOL1         0.3769
     127    C1      19.899582   20.176519   23.945944 C.3        1 MOL1        -0.1693
     128    H1      19.551378   21.196444   24.144683 H          1 MOL1         0.0829
     129    H2      20.785944   19.988646   24.564755 H          1 MOL1         0.0829
     130    C2      20.054475   19.778727   22.439520 C.3        1 MOL1        -0.1768
     131    H3      19.358358   20.283094   21.759242 H          1 MOL1         0.0829
     132    H4      21.064174   19.856307   22.026306 H          1 MOL1         0.0829
     133    C3      19.604558   18.348962   22.870657 C.3        1 MOL1         0.1211
     134    H5      18.990383   17.814620   22.136959 H          1 MOL1         0.0786
     135    C4      18.804946   19.060001   24.004367 C.3        1 MOL1        -0.1768
     136    H6      17.804014   19.393780   23.709488 H          1 MOL1         0.0829
     137    H7      18.723950   18.509548   24.948092 H          1 MOL1         0.0829
     138    O1      20.646209   17.513792   23.321974 O.3        1 MOL1        -0.5515
     139    H8      21.163557   18.037901   23.961937 H          1 MOL1         0.3773
@<TRIPOS>BOND
    1     1     2    1
    2     1     3    1
    3     1     4    1
    4     4     5    1
    5     4     6    1
    6     6     7    1
    7     4     8    1
    8     8     9    1
    9     8    10    1
   10    10    11    1
   11     8    12    1
   12    12    13    1
   13    12    14    1
   14    14    15    1
   15     1    16    1
   16    14    16    1
   17    14    17    1
   18    17    18    1
   19    17    19    1
   20    17    20    1
   21    20    21    1
   22    22    23    1
   23    22    24    1
   24    22    25    1
   25    25    26    1
   26    25    27    1
   27    27    28    1
   28    25    29    1
   29    29    30    1
   30    29    31    1
   31    31    32    1
   32     3    33    1
   33    29    33    1
   34    33    34    1
   35    33    35    1
   36    35    36    1
   37    22    37    1
   38    35    37    1
   39    35    38    1
   40    38    39    1
   41    38    40    1
   42    38    41    1
   43    41    42    1
   44    43    44    1
   45    43    45    1
   46    43    46    1
   47    46    47    1
   48    46    48    1
   49    48    49    1
   50    46    50    1
   51    50    51    1
   52    50    52    1
   53    52    53    1
   54    24    54    1
   55    50    54    1
   56    54    55    1
   57    54    56    1
   58    56    57    1
   59    43    58    1
   60    56    58    1
   61    56    59    1
   62    59    60    1
   63    59    61    1
   64    59    62    1
   65    62    63    1
   66    64    65    1
   67    64    66    1
   68    64    67    1
   69    67    68    1
   70    67    69    1
   71    69    70    1
   72    67    71    1
   73    71    72    1
   74    71    73    1
   75    73    74    1
   76    45    75    1
   77    71    75    1
   78    75    76    1
   79    75    77    1
   80    77    78    1
   81    64    79    1
   82    77    79    1
   83    77    80    1
   84    80    81    1
   85    80    82    1
   86    80    83    1
   87    83    84    1
   88    85    86    1
   89    85    87    1
   90    85    88    1
   91    88    89    1
   92    88    90    1
   93    90    91    1
   94    88    92    1
   95    92    93    1
   96    92    94    1
   97    94    95    1
   98    66    96    1
   99    92    96    1
  100    96    97    1
  101    96    98    1
  102    98    99    1
  103    85   100    1
  104    98   100    1
  105    98   101    1
  106   101   102    1
  107   101   103    1
  108   101   104    1
  109   104   105    1
  110   106   107    1
  111    12   108    1
  112   106   108    1
  113   106   109    1
  114   109   110    1
  115   109   111    1
  116   111   112    1
  117   109   113    1
  118   113   114    1
  119   113   115    1
  120   115   116    1
  121    87   117    1
  122   113   117    1
  123   117   118    1
  124   117   119    1
  125   119   120    1
  126   106   121    1
  127   119   121    1
  128   119   122    1
  129   122   123    1
  130   122   124    1
  131   122   125    1
  132   125   126    1
  133   127   128    1
  134   127   129    1
  135   127   130    1
  136   130   131    1
  137   130   132    1
  138   130   133    1
  139   133   134    1
  140   127   135    1
  141   133   135    1
  142   135   136    1
  143   135   137    1
  144   133   138    1
  145   138   139    1
@<TRIPOS>SUBSTRUCTURE
       1 MOL1            1 RESIDUE      1      MOL     
       2 MOL1          139 RESIDUE      1      MOL     
@<SCITEGIC>MOL_PROPERTY
feprocess Rank
SciTegic.value.IntegerValue
182

@<SCITEGIC>MOL_PROPERTY
Conf_Id
SciTegic.value.IntegerValue
50

@<SCITEGIC>MOL_PROPERTY
Probability
SciTegic.value.DoubleValue
0.00

@<SCITEGIC>MOL_PROPERTY
G
SciTegic.value.DoubleValue
550.431

@<SCITEGIC>MOL_PROPERTY
E
SciTegic.value.DoubleValue
373.316

@<SCITEGIC>MOL_PROPERTY
-TS
SciTegic.value.DoubleValue
177.115

@<SCITEGIC>MOL_PROPERTY
U+W
SciTegic.value.DoubleValue
250.804

@<SCITEGIC>MOL_PROPERTY
U
SciTegic.value.DoubleValue
287.464

@<SCITEGIC>MOL_PROPERTY
W
SciTegic.value.DoubleValue
-36.660

@<SCITEGIC>MOL_PROPERTY
W(PB)
SciTegic.value.DoubleValue
-42.564

@<SCITEGIC>MOL_PROPERTY
W(SA)
SciTegic.value.DoubleValue
5.904

@<SCITEGIC>MOL_PROPERTY
Valence
SciTegic.value.DoubleValue
154.587

@<SCITEGIC>MOL_PROPERTY
Coulomb
SciTegic.value.DoubleValue
155.139

@<SCITEGIC>MOL_PROPERTY
VdW
SciTegic.value.DoubleValue
-22.262

@<SCITEGIC>MOL_PROPERTY
VdW6
SciTegic.value.DoubleValue
-168.562

@<SCITEGIC>MOL_PROPERTY
VdW12
SciTegic.value.DoubleValue
146.300

@<SCITEGIC>MOL_PROPERTY
Bond
SciTegic.value.DoubleValue
4.591

@<SCITEGIC>MOL_PROPERTY
Angle
SciTegic.value.DoubleValue
12.605

@<SCITEGIC>MOL_PROPERTY
Pdih
SciTegic.value.DoubleValue
137.391

@<SCITEGIC>MOL_PROPERTY
Idih
SciTegic.value.DoubleValue
0.000

@<SCITEGIC>MOL_PROPERTY
Tether
SciTegic.value.DoubleValue
0.000

@<TRIPOS>MOLECULE
CD_guest-s16_fast_vm2_rndm.mol2 : feprocess host+ligand conformer 183
         139         145           2
SMALL
USER_CHARGES
 
@<TRIPOS>ATOM
       1    C1      16.123825   15.059373   21.544486 C.3        1 MOL1         0.2972
       2    H1      15.032398   14.951106   21.590027 H          1 MOL1         0.0751
       3    O1      16.524472   16.443397   21.595996 O.3        1 MOL1        -0.3740
       4    C2      16.771593   14.315763   22.736283 C.3        1 MOL1         0.1003
       5    H2      16.523596   13.250778   22.639012 H          1 MOL1         0.0783
       6    O2      16.254855   14.814383   23.980494 O.3        1 MOL1        -0.5519
       7    H3      15.885407   15.713398   23.797141 H          1 MOL1         0.3769
       8    C3      18.309134   14.457302   22.692876 C.3        1 MOL1         0.1053
       9    H4      18.550281   15.507871   22.896417 H          1 MOL1         0.0783
      10    O3      18.901424   13.632005   23.701622 O.3        1 MOL1        -0.5519
      11    H5      18.376648   13.809876   24.513901 H          1 MOL1         0.3769
      12    C4      18.886224   14.079410   21.305185 C.3        1 MOL1         0.1018
      13    H6      18.939237   12.984768   21.237325 H          1 MOL1         0.0783
      14    C5      18.069629   14.658570   20.112720 C.3        1 MOL1         0.1043
      15    H7      18.296358   15.729541   20.047353 H          1 MOL1         0.0783
      16    O4      16.643876   14.490653   20.325809 O.3        1 MOL1        -0.3740
      17    C6      18.434106   14.033242   18.745042 C.3        1 MOL1         0.0138
      18    H8      19.432344   14.385914   18.453485 H          1 MOL1         0.0794
      19    H9      17.726602   14.403071   17.990666 H          1 MOL1         0.0794
      20    O5      18.416339   12.600981   18.784961 O.3        1 MOL1        -0.5486
      21    H10     18.586555   12.275366   17.874169 H          1 MOL1         0.3769
      22    C7      14.823881   20.249089   21.138199 C.3        1 MOL1         0.2972
      23    H11     14.122701   21.054579   20.885674 H          1 MOL1         0.0751
      24    O6      16.068492   20.773504   21.639562 O.3        1 MOL1        -0.3740
      25    C8      14.212139   19.358180   22.249859 C.3        1 MOL1         0.1003
      26    H12     13.249642   18.982023   21.879489 H          1 MOL1         0.0783
      27    O7      13.994476   20.132076   23.440597 O.3        1 MOL1        -0.5519
      28    H13     14.723041   20.799782   23.481433 H          1 MOL1         0.3769
      29    C9      15.114862   18.138739   22.557921 C.3        1 MOL1         0.1053
      30    H14     16.033382   18.503720   23.034433 H          1 MOL1         0.0783
      31    O8      14.433066   17.248534   23.447925 O.3        1 MOL1        -0.5519
      32    H15     14.055023   17.826881   24.147593 H          1 MOL1         0.3769
      33    C10     15.501739   17.396837   21.256154 C.3        1 MOL1         0.1018
      34    H16     14.605296   16.909635   20.850056 H          1 MOL1         0.0783
      35    C11     16.067612   18.370149   20.186778 C.3        1 MOL1         0.1043
      36    H17     17.006968   18.796636   20.560497 H          1 MOL1         0.0783
      37    O9      15.101671   19.431760   19.978561 O.3        1 MOL1        -0.3740
      38    C12     16.389487   17.714150   18.818847 C.3        1 MOL1         0.0138
      39    H18     17.427154   17.358209   18.842046 H          1 MOL1         0.0794
      40    H19     16.339193   18.486033   18.039626 H          1 MOL1         0.0794
      41    O10     15.513992   16.628438   18.489659 O.3        1 MOL1        -0.5486
      42    H20     15.762660   15.868827   19.066528 H          1 MOL1         0.3769
      43    C13     18.462115   24.215652   21.296141 C.3        1 MOL1         0.2972
      44    H21     18.785141   25.244276   21.091493 H          1 MOL1         0.0751
      45    O11     19.561696   23.406684   21.755528 O.3        1 MOL1        -0.3740
      46    C14     17.391566   24.218377   22.417514 C.3        1 MOL1         0.1003
      47    H22     16.566685   24.863148   22.087466 H          1 MOL1         0.0783
      48    O12     17.951906   24.743918   23.631124 O.3        1 MOL1        -0.5519
      49    H23     18.888091   24.432021   23.661172 H          1 MOL1         0.3769
      50    C15     16.822560   22.798428   22.659655 C.3        1 MOL1         0.1053
      51    H24     17.621329   22.174061   23.083389 H          1 MOL1         0.0783
      52    O13     15.724690   22.872611   23.576534 O.3        1 MOL1        -0.5519
      53    H25     16.044199   23.438707   24.313752 H          1 MOL1         0.3769
      54    C16     16.357418   22.152397   21.333468 C.3        1 MOL1         0.1018
      55    H26     15.467299   22.689927   20.981032 H          1 MOL1         0.0783
      56    C17     17.474855   22.228050   20.255685 C.3        1 MOL1         0.1043
      57    H27     18.322208   21.624490   20.603614 H          1 MOL1         0.0783
      58    O14     17.895441   23.609704   20.113423 O.3        1 MOL1        -0.3740
      59    C18     17.081478   21.696519   18.853691 C.3        1 MOL1         0.0138
      60    H28     17.260791   20.614287   18.831395 H          1 MOL1         0.0794
      61    H29     17.749540   22.143291   18.106522 H          1 MOL1         0.0794
      62    O15     15.719976   21.969181   18.506687 O.3        1 MOL1        -0.5486
      63    H30     15.195216   21.198910   18.823099 H          1 MOL1         0.3769
      64    C19     23.647657   22.765113   21.171339 C.3        1 MOL1         0.2972
      65    H31     24.708722   22.863007   20.907685 H          1 MOL1         0.0751
      66    O16     23.319816   21.420218   21.573566 O.3        1 MOL1        -0.3740
      67    C20     23.275061   23.725805   22.329172 C.3        1 MOL1         0.1003
      68    H32     23.499028   24.746253   21.992151 H          1 MOL1         0.0783
      69    O17     24.046223   23.438317   23.507091 O.3        1 MOL1        -0.5519
      70    H33     23.983047   22.463367   23.672941 H          1 MOL1         0.3769
      71    C21     21.760527   23.649785   22.644908 C.3        1 MOL1         0.1053
      72    H34     21.556586   22.659623   23.073686 H          1 MOL1         0.0783
      73    O18     21.422004   24.664572   23.596417 O.3        1 MOL1        -0.5519
      74    H35     22.114312   24.606799   24.291699 H          1 MOL1         0.3769
      75    C22     20.892046   23.813731   21.369364 C.3        1 MOL1         0.1018
      76    H36     20.925568   24.867954   21.064818 H          1 MOL1         0.0783
      77    C23     21.400622   22.908127   20.207734 C.3        1 MOL1         0.1043
      78    H37     21.212563   21.864663   20.485081 H          1 MOL1         0.0783
      79    O19     22.824358   23.104330   20.037734 O.3        1 MOL1        -0.3740
      80    C24     20.738295   23.137035   18.826101 C.3        1 MOL1         0.0138
      81    H38     19.858824   22.488848   18.749572 H          1 MOL1         0.0794
      82    H39     21.437630   22.808097   18.045760 H          1 MOL1         0.0794
      83    O20     20.358471   24.497563   18.596892 O.3        1 MOL1        -0.5486
      84    H40     19.439857   24.589435   18.937264 H          1 MOL1         0.3769
      85    C25     24.908997   17.631028   21.902553 C.3        1 MOL1         0.2972
      86    H41     25.536646   16.735999   22.004506 H          1 MOL1         0.0751
      87    O21     23.534317   17.288575   21.642124 O.3        1 MOL1        -0.3740
      88    C26     24.963352   18.462518   23.205878 C.3        1 MOL1         0.1003
      89    H42     26.003774   18.779123   23.355850 H          1 MOL1         0.0783
      90    O22     24.537735   17.671938   24.327951 O.3        1 MOL1        -0.5519
      91    H43     24.186692   16.822532   23.963914 H          1 MOL1         0.3769
      92    C27     24.085910   19.727003   23.073746 C.3        1 MOL1         0.1053
      93    H44     23.042959   19.398769   23.000180 H          1 MOL1         0.0783
      94    O23     24.251239   20.551235   24.231932 O.3        1 MOL1        -0.5519
      95    H45     24.191178   19.930018   24.992065 H          1 MOL1         0.3769
      96    C28     24.432924   20.532848   21.798230 C.3        1 MOL1         0.1018
      97    H46     25.366712   21.081099   21.981440 H          1 MOL1         0.0783
      98    C29     24.575048   19.638073   20.531865 C.3        1 MOL1         0.1043
      99    H47     23.568677   19.323361   20.232524 H          1 MOL1         0.0783
     100    O24     25.372065   18.458665   20.815332 O.3        1 MOL1        -0.3740
     101    C30     25.201683   20.368655   19.320144 C.3        1 MOL1         0.0138
     102    H48     24.473874   21.095352   18.934758 H          1 MOL1         0.0794
     103    H49     25.381561   19.635229   18.522538 H          1 MOL1         0.0794
     104    O25     26.420553   21.037914   19.666047 O.3        1 MOL1        -0.5486
     105    H50     26.800893   21.409976   18.840502 H          1 MOL1         0.3769
     106    C31     21.257302   13.924656   20.678254 C.3        1 MOL1         0.2972
     107    H51     20.904673   12.964930   20.278809 H          1 MOL1         0.0751
     108    O26     20.187671   14.689144   21.262609 O.3        1 MOL1        -0.3740
     109    C32     22.314208   13.709960   21.793712 C.3        1 MOL1         0.1003
     110    H52     23.154258   13.158070   21.352413 H          1 MOL1         0.0783
     111    O27     21.762565   12.947674   22.880182 O.3        1 MOL1        -0.5519
     112    H53     20.873467   13.331627   23.088114 H          1 MOL1         0.3769
     113    C33     22.848966   15.070372   22.310684 C.3        1 MOL1         0.1053
     114    H54     22.028545   15.586873   22.826330 H          1 MOL1         0.0783
     115    O28     23.927216   14.849864   23.226021 O.3        1 MOL1        -0.5519
     116    H55     23.625030   14.113425   23.803898 H          1 MOL1         0.3769
     117    C34     23.317763   15.961662   21.133328 C.3        1 MOL1         0.1018
     118    H56     24.234772   15.532454   20.708076 H          1 MOL1         0.0783
     119    C35     22.246854   16.060507   20.015162 C.3        1 MOL1         0.1043
     120    H57     21.373174   16.590726   20.412143 H          1 MOL1         0.0783
     121    O29     21.857760   14.720141   19.629694 O.3        1 MOL1        -0.3740
     122    C36     22.705459   16.841993   18.756304 C.3        1 MOL1         0.0138
     123    H58     22.452170   17.900430   18.897446 H          1 MOL1         0.0794
     124    H59     22.123757   16.490433   17.893812 H          1 MOL1         0.0794
     125    O30     24.108733   16.716921   18.489944 O.3        1 MOL1        -0.5486
     126    H60     24.588281   17.187472   19.210261 H          1 MOL1         0.3769
     127    C1      18.971005   19.048075   22.978932 C.3        1 MOL1        -0.1693
     128    H1      18.737003   18.855291   24.032079 H          1 MOL1         0.0829
     129    H2      18.052922   19.338934   22.462709 H          1 MOL1         0.0829
     130    C2      19.809385   17.951859   22.247684 C.3        1 MOL1        -0.1768
     131    H3      20.495689   17.396038   22.896359 H          1 MOL1         0.0829
     132    H4      19.238674   17.243653   21.641317 H          1 MOL1         0.0829
     133    C3      20.476720   19.111327   21.451923 C.3        1 MOL1         0.1211
     134    H5      21.541598   18.961002   21.243595 H          1 MOL1         0.0786
     135    C4      20.177646   19.996622   22.702442 C.3        1 MOL1        -0.1768
     136    H6      19.917655   21.036740   22.502427 H          1 MOL1         0.0829
     137    H7      20.951081   19.973455   23.477636 H          1 MOL1         0.0829
     138    O1      19.800694   19.471160   20.262569 O.3        1 MOL1        -0.5515
     139    H8      20.325850   20.169742   19.832567 H          1 MOL1         0.3773
@<TRIPOS>BOND
    1     1     2    1
    2     1     3    1
    3     1     4    1
    4     4     5    1
    5     4     6    1
    6     6     7    1
    7     4     8    1
    8     8     9    1
    9     8    10    1
   10    10    11    1
   11     8    12    1
   12    12    13    1
   13    12    14    1
   14    14    15    1
   15     1    16    1
   16    14    16    1
   17    14    17    1
   18    17    18    1
   19    17    19    1
   20    17    20    1
   21    20    21    1
   22    22    23    1
   23    22    24    1
   24    22    25    1
   25    25    26    1
   26    25    27    1
   27    27    28    1
   28    25    29    1
   29    29    30    1
   30    29    31    1
   31    31    32    1
   32     3    33    1
   33    29    33    1
   34    33    34    1
   35    33    35    1
   36    35    36    1
   37    22    37    1
   38    35    37    1
   39    35    38    1
   40    38    39    1
   41    38    40    1
   42    38    41    1
   43    41    42    1
   44    43    44    1
   45    43    45    1
   46    43    46    1
   47    46    47    1
   48    46    48    1
   49    48    49    1
   50    46    50    1
   51    50    51    1
   52    50    52    1
   53    52    53    1
   54    24    54    1
   55    50    54    1
   56    54    55    1
   57    54    56    1
   58    56    57    1
   59    43    58    1
   60    56    58    1
   61    56    59    1
   62    59    60    1
   63    59    61    1
   64    59    62    1
   65    62    63    1
   66    64    65    1
   67    64    66    1
   68    64    67    1
   69    67    68    1
   70    67    69    1
   71    69    70    1
   72    67    71    1
   73    71    72    1
   74    71    73    1
   75    73    74    1
   76    45    75    1
   77    71    75    1
   78    75    76    1
   79    75    77    1
   80    77    78    1
   81    64    79    1
   82    77    79    1
   83    77    80    1
   84    80    81    1
   85    80    82    1
   86    80    83    1
   87    83    84    1
   88    85    86    1
   89    85    87    1
   90    85    88    1
   91    88    89    1
   92    88    90    1
   93    90    91    1
   94    88    92    1
   95    92    93    1
   96    92    94    1
   97    94    95    1
   98    66    96    1
   99    92    96    1
  100    96    97    1
  101    96    98    1
  102    98    99    1
  103    85   100    1
  104    98   100    1
  105    98   101    1
  106   101   102    1
  107   101   103    1
  108   101   104    1
  109   104   105    1
  110   106   107    1
  111    12   108    1
  112   106   108    1
  113   106   109    1
  114   109   110    1
  115   109   111    1
  116   111   112    1
  117   109   113    1
  118   113   114    1
  119   113   115    1
  120   115   116    1
  121    87   117    1
  122   113   117    1
  123   117   118    1
  124   117   119    1
  125   119   120    1
  126   106   121    1
  127   119   121    1
  128   119   122    1
  129   122   123    1
  130   122   124    1
  131   122   125    1
  132   125   126    1
  133   127   128    1
  134   127   129    1
  135   127   130    1
  136   130   131    1
  137   130   132    1
  138   130   133    1
  139   133   134    1
  140   127   135    1
  141   133   135    1
  142   135   136    1
  143   135   137    1
  144   133   138    1
  145   138   139    1
@<TRIPOS>SUBSTRUCTURE
       1 MOL1            1 RESIDUE      1      MOL     
       2 MOL1          139 RESIDUE      1      MOL     
@<SCITEGIC>MOL_PROPERTY
feprocess Rank
SciTegic.value.IntegerValue
183

@<SCITEGIC>MOL_PROPERTY
Conf_Id
SciTegic.value.IntegerValue
93

@<SCITEGIC>MOL_PROPERTY
Probability
SciTegic.value.DoubleValue
0.00

@<SCITEGIC>MOL_PROPERTY
G
SciTegic.value.DoubleValue
550.663

@<SCITEGIC>MOL_PROPERTY
E
SciTegic.value.DoubleValue
373.057

@<SCITEGIC>MOL_PROPERTY
-TS
SciTegic.value.DoubleValue
177.606

@<SCITEGIC>MOL_PROPERTY
U+W
SciTegic.value.DoubleValue
250.545

@<SCITEGIC>MOL_PROPERTY
U
SciTegic.value.DoubleValue
286.421

@<SCITEGIC>MOL_PROPERTY
W
SciTegic.value.DoubleValue
-35.875

@<SCITEGIC>MOL_PROPERTY
W(PB)
SciTegic.value.DoubleValue
-41.735

@<SCITEGIC>MOL_PROPERTY
W(SA)
SciTegic.value.DoubleValue
5.860

@<SCITEGIC>MOL_PROPERTY
Valence
SciTegic.value.DoubleValue
155.283

@<SCITEGIC>MOL_PROPERTY
Coulomb
SciTegic.value.DoubleValue
154.944

@<SCITEGIC>MOL_PROPERTY
VdW
SciTegic.value.DoubleValue
-23.807

@<SCITEGIC>MOL_PROPERTY
VdW6
SciTegic.value.DoubleValue
-170.888

@<SCITEGIC>MOL_PROPERTY
VdW12
SciTegic.value.DoubleValue
147.081

@<SCITEGIC>MOL_PROPERTY
Bond
SciTegic.value.DoubleValue
4.503

@<SCITEGIC>MOL_PROPERTY
Angle
SciTegic.value.DoubleValue
11.197

@<SCITEGIC>MOL_PROPERTY
Pdih
SciTegic.value.DoubleValue
139.583

@<SCITEGIC>MOL_PROPERTY
Idih
SciTegic.value.DoubleValue
0.000

@<SCITEGIC>MOL_PROPERTY
Tether
SciTegic.value.DoubleValue
0.000

@<TRIPOS>MOLECULE
CD_guest-s16_fast_vm2_rndm.mol2 : feprocess host+ligand conformer 184
         139         145           2
SMALL
USER_CHARGES
 
@<TRIPOS>ATOM
       1    C1      16.180428   15.165753   20.995713 C.3        1 MOL1         0.2972
       2    H1      15.147625   14.951140   20.692726 H          1 MOL1         0.0751
       3    O1      16.360083   16.563258   21.303177 O.3        1 MOL1        -0.3740
       4    C2      16.526259   14.360088   22.273603 C.3        1 MOL1         0.1003
       5    H2      16.399842   13.294590   22.041527 H          1 MOL1         0.0783
       6    O2      15.639506   14.725740   23.342549 O.3        1 MOL1        -0.5519
       7    H3      15.418132   15.679006   23.209163 H          1 MOL1         0.3769
       8    C3      17.997874   14.591132   22.691959 C.3        1 MOL1         0.1053
       9    H4      18.093692   15.633948   23.019055 H          1 MOL1         0.0783
      10    O3      18.340184   13.718446   23.773286 O.3        1 MOL1        -0.5519
      11    H5      17.581912   13.774802   24.396994 H          1 MOL1         0.3769
      12    C4      18.956730   14.360081   21.498240 C.3        1 MOL1         0.1018
      13    H6      19.002549   13.284316   21.282885 H          1 MOL1         0.0783
      14    C5      18.498084   15.117146   20.222790 C.3        1 MOL1         0.1043
      15    H7      18.590202   16.193902   20.414771 H          1 MOL1         0.0783
      16    O4      17.109914   14.798086   19.951790 O.3        1 MOL1        -0.3740
      17    C6      19.340425   14.812331   18.955257 C.3        1 MOL1         0.0138
      18    H8      20.158218   15.541468   18.898685 H          1 MOL1         0.0794
      19    H9      18.712407   14.973011   18.068828 H          1 MOL1         0.0794
      20    O5      19.881959   13.485885   18.936621 O.3        1 MOL1        -0.5486
      21    H10     20.606255   13.456734   19.604371 H          1 MOL1         0.3769
      22    C7      14.983688   20.368205   20.282447 C.3        1 MOL1         0.2972
      23    H11     14.445856   21.228969   19.864657 H          1 MOL1         0.0751
      24    O6      16.203493   20.771362   20.932946 O.3        1 MOL1        -0.3740
      25    C8      14.098318   19.577801   21.284235 C.3        1 MOL1         0.1003
      26    H12     13.227520   19.211915   20.724816 H          1 MOL1         0.0783
      27    O7      13.640338   20.406428   22.363414 O.3        1 MOL1        -0.5519
      28    H13     14.444147   20.734829   22.840368 H          1 MOL1         0.3769
      29    C9      14.861564   18.346503   21.832257 C.3        1 MOL1         0.1053
      30    H14     15.698958   18.709851   22.443368 H          1 MOL1         0.0783
      31    O8      13.982128   17.555142   22.638960 O.3        1 MOL1        -0.5519
      32    H15     13.511193   18.197799   23.214492 H          1 MOL1         0.3769
      33    C10     15.437550   17.481138   20.682316 C.3        1 MOL1         0.1018
      34    H16     14.602052   16.959927   20.196962 H          1 MOL1         0.0783
      35    C11     16.197185   18.340908   19.629057 C.3        1 MOL1         0.1043
      36    H17     17.112799   18.725879   20.096976 H          1 MOL1         0.0783
      37    O9      15.353675   19.451967   19.229407 O.3        1 MOL1        -0.3740
      38    C12     16.634618   17.592374   18.344001 C.3        1 MOL1         0.0138
      39    H18     17.632532   17.169761   18.508679 H          1 MOL1         0.0794
      40    H19     16.734907   18.325105   17.532150 H          1 MOL1         0.0794
      41    O10     15.729818   16.553456   17.954930 O.3        1 MOL1        -0.5486
      42    H20     15.975680   15.756913   18.479368 H          1 MOL1         0.3769
      43    C13     18.494971   23.835916   22.383722 C.3        1 MOL1         0.2972
      44    H21     18.914043   24.765718   22.789588 H          1 MOL1         0.0751
      45    O11     19.543095   22.912219   22.023978 O.3        1 MOL1        -0.3740
      46    C14     17.561615   23.186715   23.436680 C.3        1 MOL1         0.1003
      47    H22     16.764947   23.910519   23.651873 H          1 MOL1         0.0783
      48    O12     18.272245   22.893364   24.648595 O.3        1 MOL1        -0.5519
      49    H23     18.928437   22.187762   24.425129 H          1 MOL1         0.3769
      50    C15     16.905223   21.899267   22.894718 C.3        1 MOL1         0.1053
      51    H24     17.691473   21.145396   22.790305 H          1 MOL1         0.0783
      52    O13     15.924572   21.437917   23.829880 O.3        1 MOL1        -0.5519
      53    H25     16.360809   21.505061   24.708137 H          1 MOL1         0.3769
      54    C16     16.264747   22.093892   21.500731 C.3        1 MOL1         0.1018
      55    H26     15.271908   22.547876   21.618519 H          1 MOL1         0.0783
      56    C17     17.144889   22.939977   20.537946 C.3        1 MOL1         0.1043
      57    H27     17.963967   22.292614   20.209146 H          1 MOL1         0.0783
      58    O14     17.708527   24.102512   21.201328 O.3        1 MOL1        -0.3740
      59    C18     16.395338   23.408601   19.267671 C.3        1 MOL1         0.0138
      60    H28     16.206734   22.533400   18.631365 H          1 MOL1         0.0794
      61    H29     17.047987   24.086719   18.701732 H          1 MOL1         0.0794
      62    O15     15.157121   24.057056   19.581673 O.3        1 MOL1        -0.5486
      63    H30     14.777458   24.398239   18.742482 H          1 MOL1         0.3769
      64    C19     23.618112   22.834802   21.165266 C.3        1 MOL1         0.2972
      65    H31     24.641279   23.064888   20.842020 H          1 MOL1         0.0751
      66    O16     23.508111   21.473430   21.625807 O.3        1 MOL1        -0.3740
      67    C20     23.224338   23.758458   22.342820 C.3        1 MOL1         0.1003
      68    H32     23.316692   24.794620   21.992031 H          1 MOL1         0.0783
      69    O17     24.116277   23.548884   23.448915 O.3        1 MOL1        -0.5519
      70    H33     24.307740   22.580751   23.470437 H          1 MOL1         0.3769
      71    C21     21.756497   23.534172   22.786273 C.3        1 MOL1         0.1053
      72    H34     21.694796   22.561312   23.290168 H          1 MOL1         0.0783
      73    O18     21.394536   24.574029   23.700146 O.3        1 MOL1        -0.5519
      74    H35     22.105501   24.583165   24.377751 H          1 MOL1         0.3769
      75    C22     20.777220   23.520056   21.581583 C.3        1 MOL1         0.1018
      76    H36     20.623276   24.555604   21.251392 H          1 MOL1         0.0783
      77    C23     21.309064   22.681628   20.383667 C.3        1 MOL1         0.1043
      78    H37     21.278714   21.622529   20.666573 H          1 MOL1         0.0783
      79    O19     22.678812   23.054075   20.092783 O.3        1 MOL1        -0.3740
      80    C24     20.482543   22.825039   19.078284 C.3        1 MOL1         0.0138
      81    H38     19.709829   22.047143   19.068464 H          1 MOL1         0.0794
      82    H39     21.138863   22.620971   18.222034 H          1 MOL1         0.0794
      83    O20     19.878919   24.116339   18.926524 O.3        1 MOL1        -0.5486
      84    H40     19.232491   24.230919   19.660757 H          1 MOL1         0.3769
      85    C25     24.904277   17.611454   20.837736 C.3        1 MOL1         0.2972
      86    H41     25.484016   16.743646   20.497848 H          1 MOL1         0.0751
      87    O21     23.622615   17.218302   21.365763 O.3        1 MOL1        -0.3740
      88    C26     25.673393   18.401312   21.928700 C.3        1 MOL1         0.1003
      89    H42     26.626653   18.719464   21.486960 H          1 MOL1         0.0783
      90    O22     25.939743   17.580842   23.077579 O.3        1 MOL1        -0.5519
      91    H43     25.073800   17.205957   23.380308 H          1 MOL1         0.3769
      92    C27     24.895019   19.674004   22.345846 C.3        1 MOL1         0.1053
      93    H44     23.987247   19.356606   22.875911 H          1 MOL1         0.0783
      94    O23     25.710458   20.462845   23.219507 O.3        1 MOL1        -0.5519
      95    H45     26.078756   19.827223   23.872373 H          1 MOL1         0.3769
      96    C28     24.468078   20.521953   21.118723 C.3        1 MOL1         0.1018
      97    H46     25.362532   21.018126   20.720009 H          1 MOL1         0.0783
      98    C29     23.810512   19.644752   20.009876 C.3        1 MOL1         0.1043
      99    H47     22.842808   19.285836   20.381740 H          1 MOL1         0.0783
     100    O24     24.668031   18.509882   19.734106 O.3        1 MOL1        -0.3740
     101    C30     23.535720   20.353070   18.659195 C.3        1 MOL1         0.0138
     102    H48     22.534139   20.796060   18.694403 H          1 MOL1         0.0794
     103    H49     23.512581   19.592957   17.866852 H          1 MOL1         0.0794
     104    O25     24.500003   21.361070   18.338751 O.3        1 MOL1        -0.5486
     105    H50     24.166964   22.198847   18.732286 H          1 MOL1         0.3769
     106    C31     21.263999   13.926997   22.164327 C.3        1 MOL1         0.2972
     107    H51     20.840813   12.939282   22.389048 H          1 MOL1         0.0751
     108    O26     20.237160   14.893151   21.875085 O.3        1 MOL1        -0.3740
     109    C32     22.075963   14.442629   23.376184 C.3        1 MOL1         0.1003
     110    H52     22.901584   13.739935   23.548664 H          1 MOL1         0.0783
     111    O27     21.246386   14.502856   24.548078 O.3        1 MOL1        -0.5519
     112    H53     20.308618   14.457885   24.238550 H          1 MOL1         0.3769
     113    C33     22.679607   15.832530   23.071289 C.3        1 MOL1         0.1053
     114    H54     21.847792   16.541822   22.980895 H          1 MOL1         0.0783
     115    O28     23.536387   16.228684   24.147040 O.3        1 MOL1        -0.5519
     116    H55     23.023788   16.029890   24.962412 H          1 MOL1         0.3769
     117    C34     23.468658   15.834213   21.737897 C.3        1 MOL1         0.1018
     118    H56     24.436307   15.342070   21.904090 H          1 MOL1         0.0783
     119    C35     22.698192   15.131551   20.582253 C.3        1 MOL1         0.1043
     120    H57     21.878373   15.796279   20.283378 H          1 MOL1         0.0783
     121    O29     22.143720   13.863673   21.022689 O.3        1 MOL1        -0.3740
     122    C36     23.559602   14.874053   19.322814 C.3        1 MOL1         0.0138
     123    H58     23.759994   15.836690   18.833281 H          1 MOL1         0.0794
     124    H59     22.977046   14.265948   18.617636 H          1 MOL1         0.0794
     125    O30     24.795884   14.222599   19.639616 O.3        1 MOL1        -0.5486
     126    H60     25.248477   14.014130   18.793268 H          1 MOL1         0.3769
     127    C1      19.789089   19.379434   21.603833 C.3        1 MOL1        -0.1693
     128    H1      20.026799   18.994082   20.606095 H          1 MOL1         0.0829
     129    H2      19.235088   20.316531   21.491750 H          1 MOL1         0.0829
     130    C2      20.980857   19.443571   22.613135 C.3        1 MOL1        -0.1768
     131    H3      21.763206   18.702033   22.437410 H          1 MOL1         0.0829
     132    H4      21.449780   20.419992   22.744815 H          1 MOL1         0.0829
     133    C3      19.969992   19.047322   23.727269 C.3        1 MOL1         0.1211
     134    H5      20.375874   18.360144   24.480569 H          1 MOL1         0.0786
     135    C4      19.149351   18.356053   22.595482 C.3        1 MOL1        -0.1768
     136    H6      18.060219   18.399867   22.696866 H          1 MOL1         0.0829
     137    H7      19.445675   17.320463   22.411615 H          1 MOL1         0.0829
     138    O1      19.334591   20.135035   24.365428 O.3        1 MOL1        -0.5515
     139    H8      18.640056   19.756757   24.941277 H          1 MOL1         0.3773
@<TRIPOS>BOND
    1     1     2    1
    2     1     3    1
    3     1     4    1
    4     4     5    1
    5     4     6    1
    6     6     7    1
    7     4     8    1
    8     8     9    1
    9     8    10    1
   10    10    11    1
   11     8    12    1
   12    12    13    1
   13    12    14    1
   14    14    15    1
   15     1    16    1
   16    14    16    1
   17    14    17    1
   18    17    18    1
   19    17    19    1
   20    17    20    1
   21    20    21    1
   22    22    23    1
   23    22    24    1
   24    22    25    1
   25    25    26    1
   26    25    27    1
   27    27    28    1
   28    25    29    1
   29    29    30    1
   30    29    31    1
   31    31    32    1
   32     3    33    1
   33    29    33    1
   34    33    34    1
   35    33    35    1
   36    35    36    1
   37    22    37    1
   38    35    37    1
   39    35    38    1
   40    38    39    1
   41    38    40    1
   42    38    41    1
   43    41    42    1
   44    43    44    1
   45    43    45    1
   46    43    46    1
   47    46    47    1
   48    46    48    1
   49    48    49    1
   50    46    50    1
   51    50    51    1
   52    50    52    1
   53    52    53    1
   54    24    54    1
   55    50    54    1
   56    54    55    1
   57    54    56    1
   58    56    57    1
   59    43    58    1
   60    56    58    1
   61    56    59    1
   62    59    60    1
   63    59    61    1
   64    59    62    1
   65    62    63    1
   66    64    65    1
   67    64    66    1
   68    64    67    1
   69    67    68    1
   70    67    69    1
   71    69    70    1
   72    67    71    1
   73    71    72    1
   74    71    73    1
   75    73    74    1
   76    45    75    1
   77    71    75    1
   78    75    76    1
   79    75    77    1
   80    77    78    1
   81    64    79    1
   82    77    79    1
   83    77    80    1
   84    80    81    1
   85    80    82    1
   86    80    83    1
   87    83    84    1
   88    85    86    1
   89    85    87    1
   90    85    88    1
   91    88    89    1
   92    88    90    1
   93    90    91    1
   94    88    92    1
   95    92    93    1
   96    92    94    1
   97    94    95    1
   98    66    96    1
   99    92    96    1
  100    96    97    1
  101    96    98    1
  102    98    99    1
  103    85   100    1
  104    98   100    1
  105    98   101    1
  106   101   102    1
  107   101   103    1
  108   101   104    1
  109   104   105    1
  110   106   107    1
  111    12   108    1
  112   106   108    1
  113   106   109    1
  114   109   110    1
  115   109   111    1
  116   111   112    1
  117   109   113    1
  118   113   114    1
  119   113   115    1
  120   115   116    1
  121    87   117    1
  122   113   117    1
  123   117   118    1
  124   117   119    1
  125   119   120    1
  126   106   121    1
  127   119   121    1
  128   119   122    1
  129   122   123    1
  130   122   124    1
  131   122   125    1
  132   125   126    1
  133   127   128    1
  134   127   129    1
  135   127   130    1
  136   130   131    1
  137   130   132    1
  138   130   133    1
  139   133   134    1
  140   127   135    1
  141   133   135    1
  142   135   136    1
  143   135   137    1
  144   133   138    1
  145   138   139    1
@<TRIPOS>SUBSTRUCTURE
       1 MOL1            1 RESIDUE      1      MOL     
       2 MOL1          139 RESIDUE      1      MOL     
@<SCITEGIC>MOL_PROPERTY
feprocess Rank
SciTegic.value.IntegerValue
184

@<SCITEGIC>MOL_PROPERTY
Conf_Id
SciTegic.value.IntegerValue
323

@<SCITEGIC>MOL_PROPERTY
Probability
SciTegic.value.DoubleValue
0.00

@<SCITEGIC>MOL_PROPERTY
G
SciTegic.value.DoubleValue
550.738

@<SCITEGIC>MOL_PROPERTY
E
SciTegic.value.DoubleValue
371.754

@<SCITEGIC>MOL_PROPERTY
-TS
SciTegic.value.DoubleValue
178.984

@<SCITEGIC>MOL_PROPERTY
U+W
SciTegic.value.DoubleValue
249.243

@<SCITEGIC>MOL_PROPERTY
U
SciTegic.value.DoubleValue
288.515

@<SCITEGIC>MOL_PROPERTY
W
SciTegic.value.DoubleValue
-39.273

@<SCITEGIC>MOL_PROPERTY
W(PB)
SciTegic.value.DoubleValue
-45.137

@<SCITEGIC>MOL_PROPERTY
W(SA)
SciTegic.value.DoubleValue
5.864

@<SCITEGIC>MOL_PROPERTY
Valence
SciTegic.value.DoubleValue
153.907

@<SCITEGIC>MOL_PROPERTY
Coulomb
SciTegic.value.DoubleValue
156.420

@<SCITEGIC>MOL_PROPERTY
VdW
SciTegic.value.DoubleValue
-21.812

@<SCITEGIC>MOL_PROPERTY
VdW6
SciTegic.value.DoubleValue
-169.897

@<SCITEGIC>MOL_PROPERTY
VdW12
SciTegic.value.DoubleValue
148.085

@<SCITEGIC>MOL_PROPERTY
Bond
SciTegic.value.DoubleValue
4.677

@<SCITEGIC>MOL_PROPERTY
Angle
SciTegic.value.DoubleValue
12.260

@<SCITEGIC>MOL_PROPERTY
Pdih
SciTegic.value.DoubleValue
136.970

@<SCITEGIC>MOL_PROPERTY
Idih
SciTegic.value.DoubleValue
0.000

@<SCITEGIC>MOL_PROPERTY
Tether
SciTegic.value.DoubleValue
0.000

@<TRIPOS>MOLECULE
CD_guest-s16_fast_vm2_rndm.mol2 : feprocess host+ligand conformer 185
         139         145           2
SMALL
USER_CHARGES
 
@<TRIPOS>ATOM
       1    C1      16.296412   15.393189   20.761489 C.3        1 MOL1         0.2972
       2    H1      15.274838   15.276412   20.377341 H          1 MOL1         0.0751
       3    O1      16.470181   16.665514   21.421016 O.3        1 MOL1        -0.3740
       4    C2      16.611160   14.270670   21.784423 C.3        1 MOL1         0.1003
       5    H2      16.426598   13.312082   21.282345 H          1 MOL1         0.0783
       6    O2      15.751096   14.376254   22.931693 O.3        1 MOL1        -0.5519
       7    H3      15.687024   15.335382   23.167720 H          1 MOL1         0.3769
       8    C3      18.097410   14.296113   22.221839 C.3        1 MOL1         0.1053
       9    H4      18.258270   15.192869   22.832624 H          1 MOL1         0.0783
      10    O3      18.387016   13.129190   22.999011 O.3        1 MOL1        -0.5519
      11    H5      17.657494   13.069596   23.654982 H          1 MOL1         0.3769
      12    C4      19.052698   14.367434   21.004549 C.3        1 MOL1         0.1018
      13    H6      19.033349   13.399199   20.487135 H          1 MOL1         0.0783
      14    C5      18.630700   15.495645   20.021360 C.3        1 MOL1         0.1043
      15    H7      18.751184   16.460573   20.528213 H          1 MOL1         0.0783
      16    O4      17.240627   15.305579   19.674557 O.3        1 MOL1        -0.3740
      17    C6      19.435236   15.569686   18.698425 C.3        1 MOL1         0.0138
      18    H8      20.303692   16.220456   18.850603 H          1 MOL1         0.0794
      19    H9      18.809521   16.056691   17.938585 H          1 MOL1         0.0794
      20    O5      19.867062   14.289385   18.225519 O.3        1 MOL1        -0.5486
      21    H10     20.688656   14.067476   18.721675 H          1 MOL1         0.3769
      22    C7      14.591867   20.361957   21.660010 C.3        1 MOL1         0.2972
      23    H11     13.890885   21.206070   21.684693 H          1 MOL1         0.0751
      24    O6      15.959587   20.797977   21.767592 O.3        1 MOL1        -0.3740
      25    C8      14.310200   19.407573   22.844750 C.3        1 MOL1         0.1003
      26    H12     13.290364   19.017822   22.730386 H          1 MOL1         0.0783
      27    O7      14.416803   20.117986   24.089129 O.3        1 MOL1        -0.5519
      28    H13     15.085476   20.833865   23.954311 H          1 MOL1         0.3769
      29    C9      15.291977   18.214110   22.815329 C.3        1 MOL1         0.1053
      30    H14     16.293995   18.613355   23.006647 H          1 MOL1         0.0783
      31    O8      14.942793   17.264266   23.827709 O.3        1 MOL1        -0.5519
      32    H15     14.854691   17.790824   24.652713 H          1 MOL1         0.3769
      33    C10     15.299840   17.515028   21.435412 C.3        1 MOL1         0.1018
      34    H16     14.372976   16.931655   21.353869 H          1 MOL1         0.0783
      35    C11     15.394114   18.521933   20.249759 C.3        1 MOL1         0.1043
      36    H17     16.415018   18.923127   20.229364 H          1 MOL1         0.0783
      37    O9      14.456182   19.615515   20.433904 O.3        1 MOL1        -0.3740
      38    C12     15.116067   17.893563   18.862718 C.3        1 MOL1         0.0138
      39    H18     15.973633   17.270340   18.578797 H          1 MOL1         0.0794
      40    H19     15.045036   18.700576   18.121162 H          1 MOL1         0.0794
      41    O10     13.917640   17.107879   18.856343 O.3        1 MOL1        -0.5486
      42    H20     13.769729   16.797989   17.936371 H          1 MOL1         0.3769
      43    C13     18.425610   24.102814   21.236063 C.3        1 MOL1         0.2972
      44    H21     18.820600   25.104912   21.025480 H          1 MOL1         0.0751
      45    O11     19.482734   23.168774   21.536715 O.3        1 MOL1        -0.3740
      46    C14     17.487015   24.163561   22.466405 C.3        1 MOL1         0.1003
      47    H22     16.674919   24.864054   22.232029 H          1 MOL1         0.0783
      48    O12     18.207380   24.634833   23.616554 O.3        1 MOL1        -0.5519
      49    H23     19.147261   24.351736   23.498623 H          1 MOL1         0.3769
      50    C15     16.859940   22.778691   22.751070 C.3        1 MOL1         0.1053
      51    H24     17.662163   22.107174   23.083538 H          1 MOL1         0.0783
      52    O13     15.875087   22.895440   23.783192 O.3        1 MOL1        -0.5519
      53    H25     16.300612   23.441154   24.481606 H          1 MOL1         0.3769
      54    C16     16.218309   22.181764   21.474371 C.3        1 MOL1         0.1018
      55    H26     15.299551   22.740008   21.251463 H          1 MOL1         0.0783
      56    C17     17.176466   22.246232   20.251685 C.3        1 MOL1         0.1043
      57    H27     18.019010   21.570875   20.444372 H          1 MOL1         0.0783
      58    O14     17.677531   23.599238   20.107125 O.3        1 MOL1        -0.3740
      59    C18     16.549861   21.802448   18.904020 C.3        1 MOL1         0.0138
      60    H28     16.691615   20.720151   18.793758 H          1 MOL1         0.0794
      61    H29     17.105161   22.279716   18.085522 H          1 MOL1         0.0794
      62    O15     15.156474   22.112786   18.796348 O.3        1 MOL1        -0.5486
      63    H30     14.669624   21.399471   19.270066 H          1 MOL1         0.3769
      64    C19     23.555106   22.536790   20.804019 C.3        1 MOL1         0.2972
      65    H31     24.592130   22.639786   20.459265 H          1 MOL1         0.0751
      66    O16     23.313075   21.238966   21.380811 O.3        1 MOL1        -0.3740
      67    C20     23.215143   23.611176   21.871177 C.3        1 MOL1         0.1003
      68    H32     23.371430   24.593337   21.406451 H          1 MOL1         0.0783
      69    O17     24.070678   23.493951   23.019326 O.3        1 MOL1        -0.5519
      70    H33     24.045510   22.547780   23.312977 H          1 MOL1         0.3769
      71    C21     21.727750   23.515735   22.294407 C.3        1 MOL1         0.1053
      72    H34     21.582945   22.566331   22.827630 H          1 MOL1         0.0783
      73    O18     21.401100   24.610075   23.158038 O.3        1 MOL1        -0.5519
      74    H35     22.142451   24.659188   23.801862 H          1 MOL1         0.3769
      75    C22     20.794358   23.525822   21.058735 C.3        1 MOL1         0.1018
      76    H36     20.814784   24.532528   20.620969 H          1 MOL1         0.0783
      77    C23     21.243887   22.491242   19.989157 C.3        1 MOL1         0.1043
      78    H37     21.109948   21.486051   20.404554 H          1 MOL1         0.0783
      79    O19     22.645739   22.704800   19.694168 O.3        1 MOL1        -0.3740
      80    C24     20.457232   22.533029   18.654149 C.3        1 MOL1         0.0138
      81    H38     19.578139   21.884066   18.746838 H          1 MOL1         0.0794
      82    H39     21.087113   22.100075   17.865620 H          1 MOL1         0.0794
      83    O20     20.043163   23.851823   18.281012 O.3        1 MOL1        -0.5486
      84    H40     19.208785   24.035054   18.771484 H          1 MOL1         0.3769
      85    C25     25.097376   17.591719   22.117522 C.3        1 MOL1         0.2972
      86    H41     25.773900   16.748525   22.308482 H          1 MOL1         0.0751
      87    O21     23.736181   17.152512   21.954640 O.3        1 MOL1        -0.3740
      88    C26     25.139491   18.578743   23.307926 C.3        1 MOL1         0.1003
      89    H42     26.166922   18.955967   23.393069 H          1 MOL1         0.0783
      90    O22     24.773997   17.906927   24.524206 O.3        1 MOL1        -0.5519
      91    H43     24.272818   17.097651   24.261040 H          1 MOL1         0.3769
      92    C27     24.203159   19.782213   23.052705 C.3        1 MOL1         0.1053
      93    H44     23.171641   19.411220   23.058556 H          1 MOL1         0.0783
      94    O23     24.371419   20.748745   24.094631 O.3        1 MOL1        -0.5519
      95    H45     24.353929   20.226692   24.927803 H          1 MOL1         0.3769
      96    C28     24.473546   20.436862   21.675645 C.3        1 MOL1         0.1018
      97    H46     25.386461   21.042648   21.751239 H          1 MOL1         0.0783
      98    C29     24.611617   19.393998   20.529475 C.3        1 MOL1         0.1043
      99    H47     23.609391   18.997174   20.327278 H          1 MOL1         0.0783
     100    O24     25.483531   18.301842   20.922723 O.3        1 MOL1        -0.3740
     101    C30     25.145486   19.989638   19.204755 C.3        1 MOL1         0.0138
     102    H48     24.363670   20.624333   18.766225 H          1 MOL1         0.0794
     103    H49     25.330540   19.168027   18.499701 H          1 MOL1         0.0794
     104    O25     26.340206   20.755797   19.401770 O.3        1 MOL1        -0.5486
     105    H50     26.664939   21.034230   18.517719 H          1 MOL1         0.3769
     106    C31     21.435370   13.790366   21.169584 C.3        1 MOL1         0.2972
     107    H51     21.066422   12.797060   20.883571 H          1 MOL1         0.0751
     108    O26     20.354910   14.669222   21.541370 O.3        1 MOL1        -0.3740
     109    C32     22.375435   13.668584   22.394849 C.3        1 MOL1         0.1003
     110    H52     23.214775   13.020755   22.110376 H          1 MOL1         0.0783
     111    O27     21.670653   13.082672   23.500612 O.3        1 MOL1        -0.5519
     112    H53     20.732969   13.384953   23.427427 H          1 MOL1         0.3769
     113    C33     22.945206   15.051659   22.791336 C.3        1 MOL1         0.1053
     114    H54     22.114874   15.658673   23.171767 H          1 MOL1         0.0783
     115    O28     23.930310   14.897968   23.817921 O.3        1 MOL1        -0.5519
     116    H55     23.530397   14.275354   24.465361 H          1 MOL1         0.3769
     117    C34     23.561754   15.777717   21.570106 C.3        1 MOL1         0.1018
     118    H56     24.513043   15.292176   21.315449 H          1 MOL1         0.0783
     119    C35     22.625569   15.755798   20.330748 C.3        1 MOL1         0.1043
     120    H57     21.759208   16.389793   20.554791 H          1 MOL1         0.0783
     121    O29     22.174185   14.399084   20.087504 O.3        1 MOL1        -0.3740
     122    C36     23.259109   16.308873   19.026254 C.3        1 MOL1         0.0138
     123    H58     23.038342   17.381055   18.958858 H          1 MOL1         0.0794
     124    H59     22.766340   15.832603   18.168044 H          1 MOL1         0.0794
     125    O30     24.675184   16.106624   18.949636 O.3        1 MOL1        -0.5486
     126    H60     25.094483   16.742243   19.575669 H          1 MOL1         0.3769
     127    C1      20.557248   19.311607   22.069980 C.3        1 MOL1        -0.1693
     128    H1      20.992651   20.192491   22.558317 H          1 MOL1         0.0829
     129    H2      20.974643   19.223983   21.060577 H          1 MOL1         0.0829
     130    C2      19.003591   19.210212   22.190407 C.3        1 MOL1        -0.1768
     131    H3      18.527064   18.565531   21.444684 H          1 MOL1         0.0829
     132    H4      18.469226   20.161232   22.229049 H          1 MOL1         0.0829
     133    C3      19.271483   18.540779   23.572076 C.3        1 MOL1         0.1211
     134    H5      19.438768   19.253056   24.390997 H          1 MOL1         0.0786
     135    C4      20.583272   18.009106   22.930589 C.3        1 MOL1        -0.1768
     136    H6      20.459229   17.084780   22.361121 H          1 MOL1         0.0829
     137    H7      21.431120   17.895030   23.613952 H          1 MOL1         0.0829
     138    O1      18.351988   17.547907   23.957265 O.3        1 MOL1        -0.5515
     139    H8      17.881161   17.254784   23.150522 H          1 MOL1         0.3773
@<TRIPOS>BOND
    1     1     2    1
    2     1     3    1
    3     1     4    1
    4     4     5    1
    5     4     6    1
    6     6     7    1
    7     4     8    1
    8     8     9    1
    9     8    10    1
   10    10    11    1
   11     8    12    1
   12    12    13    1
   13    12    14    1
   14    14    15    1
   15     1    16    1
   16    14    16    1
   17    14    17    1
   18    17    18    1
   19    17    19    1
   20    17    20    1
   21    20    21    1
   22    22    23    1
   23    22    24    1
   24    22    25    1
   25    25    26    1
   26    25    27    1
   27    27    28    1
   28    25    29    1
   29    29    30    1
   30    29    31    1
   31    31    32    1
   32     3    33    1
   33    29    33    1
   34    33    34    1
   35    33    35    1
   36    35    36    1
   37    22    37    1
   38    35    37    1
   39    35    38    1
   40    38    39    1
   41    38    40    1
   42    38    41    1
   43    41    42    1
   44    43    44    1
   45    43    45    1
   46    43    46    1
   47    46    47    1
   48    46    48    1
   49    48    49    1
   50    46    50    1
   51    50    51    1
   52    50    52    1
   53    52    53    1
   54    24    54    1
   55    50    54    1
   56    54    55    1
   57    54    56    1
   58    56    57    1
   59    43    58    1
   60    56    58    1
   61    56    59    1
   62    59    60    1
   63    59    61    1
   64    59    62    1
   65    62    63    1
   66    64    65    1
   67    64    66    1
   68    64    67    1
   69    67    68    1
   70    67    69    1
   71    69    70    1
   72    67    71    1
   73    71    72    1
   74    71    73    1
   75    73    74    1
   76    45    75    1
   77    71    75    1
   78    75    76    1
   79    75    77    1
   80    77    78    1
   81    64    79    1
   82    77    79    1
   83    77    80    1
   84    80    81    1
   85    80    82    1
   86    80    83    1
   87    83    84    1
   88    85    86    1
   89    85    87    1
   90    85    88    1
   91    88    89    1
   92    88    90    1
   93    90    91    1
   94    88    92    1
   95    92    93    1
   96    92    94    1
   97    94    95    1
   98    66    96    1
   99    92    96    1
  100    96    97    1
  101    96    98    1
  102    98    99    1
  103    85   100    1
  104    98   100    1
  105    98   101    1
  106   101   102    1
  107   101   103    1
  108   101   104    1
  109   104   105    1
  110   106   107    1
  111    12   108    1
  112   106   108    1
  113   106   109    1
  114   109   110    1
  115   109   111    1
  116   111   112    1
  117   109   113    1
  118   113   114    1
  119   113   115    1
  120   115   116    1
  121    87   117    1
  122   113   117    1
  123   117   118    1
  124   117   119    1
  125   119   120    1
  126   106   121    1
  127   119   121    1
  128   119   122    1
  129   122   123    1
  130   122   124    1
  131   122   125    1
  132   125   126    1
  133   127   128    1
  134   127   129    1
  135   127   130    1
  136   130   131    1
  137   130   132    1
  138   130   133    1
  139   133   134    1
  140   127   135    1
  141   133   135    1
  142   135   136    1
  143   135   137    1
  144   133   138    1
  145   138   139    1
@<TRIPOS>SUBSTRUCTURE
       1 MOL1            1 RESIDUE      1      MOL     
       2 MOL1          139 RESIDUE      1      MOL     
@<SCITEGIC>MOL_PROPERTY
feprocess Rank
SciTegic.value.IntegerValue
185

@<SCITEGIC>MOL_PROPERTY
Conf_Id
SciTegic.value.IntegerValue
777

@<SCITEGIC>MOL_PROPERTY
Probability
SciTegic.value.DoubleValue
0.00

@<SCITEGIC>MOL_PROPERTY
G
SciTegic.value.DoubleValue
550.738

@<SCITEGIC>MOL_PROPERTY
E
SciTegic.value.DoubleValue
372.849

@<SCITEGIC>MOL_PROPERTY
-TS
SciTegic.value.DoubleValue
177.889

@<SCITEGIC>MOL_PROPERTY
U+W
SciTegic.value.DoubleValue
250.338

@<SCITEGIC>MOL_PROPERTY
U
SciTegic.value.DoubleValue
288.321

@<SCITEGIC>MOL_PROPERTY
W
SciTegic.value.DoubleValue
-37.984

@<SCITEGIC>MOL_PROPERTY
W(PB)
SciTegic.value.DoubleValue
-43.966

@<SCITEGIC>MOL_PROPERTY
W(SA)
SciTegic.value.DoubleValue
5.982

@<SCITEGIC>MOL_PROPERTY
Valence
SciTegic.value.DoubleValue
155.702

@<SCITEGIC>MOL_PROPERTY
Coulomb
SciTegic.value.DoubleValue
155.779

@<SCITEGIC>MOL_PROPERTY
VdW
SciTegic.value.DoubleValue
-23.159

@<SCITEGIC>MOL_PROPERTY
VdW6
SciTegic.value.DoubleValue
-168.627

@<SCITEGIC>MOL_PROPERTY
VdW12
SciTegic.value.DoubleValue
145.468

@<SCITEGIC>MOL_PROPERTY
Bond
SciTegic.value.DoubleValue
4.495

@<SCITEGIC>MOL_PROPERTY
Angle
SciTegic.value.DoubleValue
11.083

@<SCITEGIC>MOL_PROPERTY
Pdih
SciTegic.value.DoubleValue
140.124

@<SCITEGIC>MOL_PROPERTY
Idih
SciTegic.value.DoubleValue
0.000

@<SCITEGIC>MOL_PROPERTY
Tether
SciTegic.value.DoubleValue
0.000

@<TRIPOS>MOLECULE
CD_guest-s16_fast_vm2_rndm.mol2 : feprocess host+ligand conformer 186
         139         145           2
SMALL
USER_CHARGES
 
@<TRIPOS>ATOM
       1    C1      16.171611   15.168408   20.951313 C.3        1 MOL1         0.2972
       2    H1      15.138462   14.986929   20.629073 H          1 MOL1         0.0751
       3    O1      16.313173   16.484952   21.530484 O.3        1 MOL1        -0.3740
       4    C2      16.565507   14.118427   22.022647 C.3        1 MOL1         0.1003
       5    H2      16.408803   13.125989   21.580343 H          1 MOL1         0.0783
       6    O2      15.728931   14.258073   23.181860 O.3        1 MOL1        -0.5519
       7    H3      15.570602   15.225204   23.301653 H          1 MOL1         0.3769
       8    C3      18.058555   14.228586   22.419499 C.3        1 MOL1         0.1053
       9    H4      18.190713   15.152579   22.993580 H          1 MOL1         0.0783
      10    O3      18.423184   13.109624   23.234297 O.3        1 MOL1        -0.5519
      11    H5      17.714365   13.043212   23.912006 H          1 MOL1         0.3769
      12    C4      18.977714   14.293200   21.175137 C.3        1 MOL1         0.1018
      13    H6      19.017131   13.296929   20.715428 H          1 MOL1         0.0783
      14    C5      18.468784   15.323555   20.132096 C.3        1 MOL1         0.1043
      15    H7      18.551754   16.320583   20.577809 H          1 MOL1         0.0783
      16    O4      17.078141   15.047909   19.834071 O.3        1 MOL1        -0.3740
      17    C6      19.264528   15.355476   18.801017 C.3        1 MOL1         0.0138
      18    H8      20.096322   16.062297   18.909848 H          1 MOL1         0.0794
      19    H9      18.613060   15.752395   18.011610 H          1 MOL1         0.0794
      20    O5      19.773366   14.074732   18.413095 O.3        1 MOL1        -0.5486
      21    H10     20.591077   13.921617   18.940842 H          1 MOL1         0.3769
      22    C7      14.717309   20.344995   21.112786 C.3        1 MOL1         0.2972
      23    H11     14.066021   21.198498   20.884061 H          1 MOL1         0.0751
      24    O6      16.022924   20.771749   21.549189 O.3        1 MOL1        -0.3740
      25    C8      14.104766   19.475404   22.240449 C.3        1 MOL1         0.1003
      26    H12     13.113251   19.148162   21.901550 H          1 MOL1         0.0783
      27    O7      13.965390   20.240077   23.449632 O.3        1 MOL1        -0.5519
      28    H13     14.803663   20.752894   23.572780 H          1 MOL1         0.3769
      29    C9      14.962306   18.210664   22.501730 C.3        1 MOL1         0.1053
      30    H14     15.906799   18.534883   22.955038 H          1 MOL1         0.0783
      31    O8      14.271362   17.343334   23.406630 O.3        1 MOL1        -0.5519
      32    H15     13.965841   17.924065   24.138285 H          1 MOL1         0.3769
      33    C10     15.286263   17.446590   21.191259 C.3        1 MOL1         0.1018
      34    H16     14.364951   16.954849   20.852193 H          1 MOL1         0.0783
      35    C11     15.802174   18.408270   20.079886 C.3        1 MOL1         0.1043
      36    H17     16.777254   18.797136   20.388564 H          1 MOL1         0.0783
      37    O9      14.878180   19.513360   19.945214 O.3        1 MOL1        -0.3740
      38    C12     15.991058   17.782989   18.675487 C.3        1 MOL1         0.0138
      39    H18     16.991679   17.338140   18.622532 H          1 MOL1         0.0794
      40    H19     15.966377   18.589335   17.930354 H          1 MOL1         0.0794
      41    O10     15.003996   16.796094   18.358880 O.3        1 MOL1        -0.5486
      42    H20     15.396398   15.925024   18.590891 H          1 MOL1         0.3769
      43    C13     18.510285   24.061133   21.675585 C.3        1 MOL1         0.2972
      44    H21     18.969732   25.057551   21.711813 H          1 MOL1         0.0751
      45    O11     19.500714   23.024060   21.531374 O.3        1 MOL1        -0.3740
      46    C14     17.719248   23.801755   22.979562 C.3        1 MOL1         0.1003
      47    H22     16.920206   24.551956   23.041923 H          1 MOL1         0.0783
      48    O12     18.580271   23.922826   24.123583 O.3        1 MOL1        -0.5519
      49    H23     19.509908   23.909815   23.786642 H          1 MOL1         0.3769
      50    C15     17.068072   22.402208   22.939757 C.3        1 MOL1         0.1053
      51    H24     17.880680   21.667684   22.949201 H          1 MOL1         0.0783
      52    O13     16.236073   22.217296   24.089789 O.3        1 MOL1        -0.5519
      53    H25     16.776755   22.537956   24.845982 H          1 MOL1         0.3769
      54    C16     16.234986   22.194148   21.651589 C.3        1 MOL1         0.1018
      55    H26     15.290812   22.743725   21.762452 H          1 MOL1         0.0783
      56    C17     16.979627   22.659360   20.365430 C.3        1 MOL1         0.1043
      57    H27     17.762116   21.922769   20.150616 H          1 MOL1         0.0783
      58    O14     17.596778   23.958799   20.563554 O.3        1 MOL1        -0.3740
      59    C18     16.073088   22.742232   19.113988 C.3        1 MOL1         0.0138
      60    H28     15.821555   21.722455   18.794233 H          1 MOL1         0.0794
      61    H29     16.643352   23.205945   18.297795 H          1 MOL1         0.0794
      62    O15     14.872856   23.483215   19.366339 O.3        1 MOL1        -0.5486
      63    H30     14.381594   23.552046   18.518756 H          1 MOL1         0.3769
      64    C19     23.551565   22.582065   20.618139 C.3        1 MOL1         0.2972
      65    H31     24.570108   22.711405   20.229811 H          1 MOL1         0.0751
      66    O16     23.358860   21.272430   21.185728 O.3        1 MOL1        -0.3740
      67    C20     23.226340   23.634118   21.713355 C.3        1 MOL1         0.1003
      68    H32     23.305828   24.624855   21.247307 H          1 MOL1         0.0783
      69    O17     24.152200   23.558384   22.808345 O.3        1 MOL1        -0.5519
      70    H33     24.164679   22.618474   23.122164 H          1 MOL1         0.3769
      71    C21     21.771492   23.460319   22.219229 C.3        1 MOL1         0.1053
      72    H34     21.699323   22.491742   22.732535 H          1 MOL1         0.0783
      73    O18     21.444602   24.515584   23.129511 O.3        1 MOL1        -0.5519
      74    H35     22.232205   24.604007   23.711940 H          1 MOL1         0.3769
      75    C22     20.777937   23.457441   21.031152 C.3        1 MOL1         0.1018
      76    H36     20.731820   24.470571   20.610122 H          1 MOL1         0.0783
      77    C23     21.208601   22.470273   19.913931 C.3        1 MOL1         0.1043
      78    H37     21.133762   21.449925   20.307320 H          1 MOL1         0.0783
      79    O19     22.585599   22.743668   19.553188 O.3        1 MOL1        -0.3740
      80    C24     20.330020   22.521867   18.636248 C.3        1 MOL1         0.0138
      81    H38     19.507848   21.804771   18.752451 H          1 MOL1         0.0794
      82    H39     20.931104   22.177893   17.784000 H          1 MOL1         0.0794
      83    O20     19.793079   23.823208   18.366759 O.3        1 MOL1        -0.5486
      84    H40     19.101109   24.000991   19.045528 H          1 MOL1         0.3769
      85    C25     25.105227   17.647775   21.987280 C.3        1 MOL1         0.2972
      86    H41     25.755952   16.787005   22.188243 H          1 MOL1         0.0751
      87    O21     23.726405   17.254360   21.839798 O.3        1 MOL1        -0.3740
      88    C26     25.203849   18.664213   23.149565 C.3        1 MOL1         0.1003
      89    H42     26.240489   19.023500   23.188330 H          1 MOL1         0.0783
      90    O22     24.870955   18.043015   24.401265 O.3        1 MOL1        -0.5519
      91    H43     24.323421   17.245250   24.192773 H          1 MOL1         0.3769
      92    C27     24.286273   19.879185   22.887972 C.3        1 MOL1         0.1053
      93    H44     23.247194   19.530478   22.938516 H          1 MOL1         0.0783
      94    O23     24.506046   20.865081   23.901303 O.3        1 MOL1        -0.5519
      95    H45     24.506276   20.360193   24.745445 H          1 MOL1         0.3769
      96    C28     24.532528   20.493975   21.485551 C.3        1 MOL1         0.1018
      97    H46     25.438780   21.112601   21.528582 H          1 MOL1         0.0783
      98    C29     24.659652   19.424088   20.359999 C.3        1 MOL1         0.1043
      99    H47     23.653373   19.038844   20.153008 H          1 MOL1         0.0783
     100    O24     25.506099   18.320012   20.775773 O.3        1 MOL1        -0.3740
     101    C30     25.210008   19.989693   19.029173 C.3        1 MOL1         0.0138
     102    H48     24.442860   20.635568   18.580912 H          1 MOL1         0.0794
     103    H49     25.378525   19.154500   18.336059 H          1 MOL1         0.0794
     104    O25     26.420559   20.732675   19.218365 O.3        1 MOL1        -0.5486
     105    H50     26.751816   20.993770   18.331379 H          1 MOL1         0.3769
     106    C31     21.369838   13.831982   21.418995 C.3        1 MOL1         0.2972
     107    H51     21.025032   12.804549   21.245393 H          1 MOL1         0.0751
     108    O26     20.266804   14.730704   21.642946 O.3        1 MOL1        -0.3740
     109    C32     22.266583   13.877589   22.681527 C.3        1 MOL1         0.1003
     110    H52     23.119654   13.208973   22.507391 H          1 MOL1         0.0783
     111    O27     21.534062   13.423433   23.830639 O.3        1 MOL1        -0.5519
     112    H53     20.583773   13.638469   23.663314 H          1 MOL1         0.3769
     113    C33     22.816267   15.304881   22.918095 C.3        1 MOL1         0.1053
     114    H54     21.973051   15.961687   23.173682 H          1 MOL1         0.0783
     115    O28     23.757048   15.281121   23.996163 O.3        1 MOL1        -0.5519
     116    H55     23.326031   14.740725   24.695928 H          1 MOL1         0.3769
     117    C34     23.489586   15.849744   21.635290 C.3        1 MOL1         0.1018
     118    H56     24.421051   15.294459   21.463145 H          1 MOL1         0.0783
     119    C35     22.572866   15.697145   20.390596 C.3        1 MOL1         0.1043
     120    H57     21.698050   16.342340   20.527933 H          1 MOL1         0.0783
     121    O29     22.130597   14.318992   20.288641 O.3        1 MOL1        -0.3740
     122    C36     23.230880   16.121927   19.051731 C.3        1 MOL1         0.0138
     123    H58     23.048939   17.193878   18.902098 H          1 MOL1         0.0794
     124    H59     22.726846   15.595895   18.229938 H          1 MOL1         0.0794
     125    O30     24.640351   15.869553   19.007544 O.3        1 MOL1        -0.5486
     126    H60     25.075127   16.561091   19.558296 H          1 MOL1         0.3769
     127    C1      20.728126   18.914409   21.853413 C.3        1 MOL1        -0.1693
     128    H1      21.563505   19.441091   21.387357 H          1 MOL1         0.0829
     129    H2      20.990310   17.855454   21.950117 H          1 MOL1         0.0829
     130    C2      19.318783   19.187555   21.240428 C.3        1 MOL1        -0.1768
     131    H3      19.173844   20.205554   20.863753 H          1 MOL1         0.0829
     132    H4      18.993544   18.481648   20.472637 H          1 MOL1         0.0829
     133    C3      18.770077   18.963131   22.684459 C.3        1 MOL1         0.1211
     134    H5      17.900918   19.570900   22.953904 H          1 MOL1         0.0786
     135    C4      20.140985   19.537791   23.160957 C.3        1 MOL1        -0.1768
     136    H6      20.526674   19.131011   24.102013 H          1 MOL1         0.0829
     137    H7      20.182718   20.632444   23.206011 H          1 MOL1         0.0829
     138    O1      18.531197   17.617921   23.036893 O.3        1 MOL1        -0.5515
     139    H8      17.733640   17.316926   22.551178 H          1 MOL1         0.3773
@<TRIPOS>BOND
    1     1     2    1
    2     1     3    1
    3     1     4    1
    4     4     5    1
    5     4     6    1
    6     6     7    1
    7     4     8    1
    8     8     9    1
    9     8    10    1
   10    10    11    1
   11     8    12    1
   12    12    13    1
   13    12    14    1
   14    14    15    1
   15     1    16    1
   16    14    16    1
   17    14    17    1
   18    17    18    1
   19    17    19    1
   20    17    20    1
   21    20    21    1
   22    22    23    1
   23    22    24    1
   24    22    25    1
   25    25    26    1
   26    25    27    1
   27    27    28    1
   28    25    29    1
   29    29    30    1
   30    29    31    1
   31    31    32    1
   32     3    33    1
   33    29    33    1
   34    33    34    1
   35    33    35    1
   36    35    36    1
   37    22    37    1
   38    35    37    1
   39    35    38    1
   40    38    39    1
   41    38    40    1
   42    38    41    1
   43    41    42    1
   44    43    44    1
   45    43    45    1
   46    43    46    1
   47    46    47    1
   48    46    48    1
   49    48    49    1
   50    46    50    1
   51    50    51    1
   52    50    52    1
   53    52    53    1
   54    24    54    1
   55    50    54    1
   56    54    55    1
   57    54    56    1
   58    56    57    1
   59    43    58    1
   60    56    58    1
   61    56    59    1
   62    59    60    1
   63    59    61    1
   64    59    62    1
   65    62    63    1
   66    64    65    1
   67    64    66    1
   68    64    67    1
   69    67    68    1
   70    67    69    1
   71    69    70    1
   72    67    71    1
   73    71    72    1
   74    71    73    1
   75    73    74    1
   76    45    75    1
   77    71    75    1
   78    75    76    1
   79    75    77    1
   80    77    78    1
   81    64    79    1
   82    77    79    1
   83    77    80    1
   84    80    81    1
   85    80    82    1
   86    80    83    1
   87    83    84    1
   88    85    86    1
   89    85    87    1
   90    85    88    1
   91    88    89    1
   92    88    90    1
   93    90    91    1
   94    88    92    1
   95    92    93    1
   96    92    94    1
   97    94    95    1
   98    66    96    1
   99    92    96    1
  100    96    97    1
  101    96    98    1
  102    98    99    1
  103    85   100    1
  104    98   100    1
  105    98   101    1
  106   101   102    1
  107   101   103    1
  108   101   104    1
  109   104   105    1
  110   106   107    1
  111    12   108    1
  112   106   108    1
  113   106   109    1
  114   109   110    1
  115   109   111    1
  116   111   112    1
  117   109   113    1
  118   113   114    1
  119   113   115    1
  120   115   116    1
  121    87   117    1
  122   113   117    1
  123   117   118    1
  124   117   119    1
  125   119   120    1
  126   106   121    1
  127   119   121    1
  128   119   122    1
  129   122   123    1
  130   122   124    1
  131   122   125    1
  132   125   126    1
  133   127   128    1
  134   127   129    1
  135   127   130    1
  136   130   131    1
  137   130   132    1
  138   130   133    1
  139   133   134    1
  140   127   135    1
  141   133   135    1
  142   135   136    1
  143   135   137    1
  144   133   138    1
  145   138   139    1
@<TRIPOS>SUBSTRUCTURE
       1 MOL1            1 RESIDUE      1      MOL     
       2 MOL1          139 RESIDUE      1      MOL     
@<SCITEGIC>MOL_PROPERTY
feprocess Rank
SciTegic.value.IntegerValue
186

@<SCITEGIC>MOL_PROPERTY
Conf_Id
SciTegic.value.IntegerValue
563

@<SCITEGIC>MOL_PROPERTY
Probability
SciTegic.value.DoubleValue
0.00

@<SCITEGIC>MOL_PROPERTY
G
SciTegic.value.DoubleValue
550.767

@<SCITEGIC>MOL_PROPERTY
E
SciTegic.value.DoubleValue
372.509

@<SCITEGIC>MOL_PROPERTY
-TS
SciTegic.value.DoubleValue
178.258

@<SCITEGIC>MOL_PROPERTY
U+W
SciTegic.value.DoubleValue
249.998

@<SCITEGIC>MOL_PROPERTY
U
SciTegic.value.DoubleValue
286.666

@<SCITEGIC>MOL_PROPERTY
W
SciTegic.value.DoubleValue
-36.668

@<SCITEGIC>MOL_PROPERTY
W(PB)
SciTegic.value.DoubleValue
-42.615

@<SCITEGIC>MOL_PROPERTY
W(SA)
SciTegic.value.DoubleValue
5.947

@<SCITEGIC>MOL_PROPERTY
Valence
SciTegic.value.DoubleValue
155.410

@<SCITEGIC>MOL_PROPERTY
Coulomb
SciTegic.value.DoubleValue
153.347

@<SCITEGIC>MOL_PROPERTY
VdW
SciTegic.value.DoubleValue
-22.092

@<SCITEGIC>MOL_PROPERTY
VdW6
SciTegic.value.DoubleValue
-170.757

@<SCITEGIC>MOL_PROPERTY
VdW12
SciTegic.value.DoubleValue
148.665

@<SCITEGIC>MOL_PROPERTY
Bond
SciTegic.value.DoubleValue
4.645

@<SCITEGIC>MOL_PROPERTY
Angle
SciTegic.value.DoubleValue
11.442

@<SCITEGIC>MOL_PROPERTY
Pdih
SciTegic.value.DoubleValue
139.323

@<SCITEGIC>MOL_PROPERTY
Idih
SciTegic.value.DoubleValue
0.000

@<SCITEGIC>MOL_PROPERTY
Tether
SciTegic.value.DoubleValue
0.000

@<TRIPOS>MOLECULE
CD_guest-s16_fast_vm2_rndm.mol2 : feprocess host+ligand conformer 187
         139         145           2
SMALL
USER_CHARGES
 
@<TRIPOS>ATOM
       1    C1      16.350372   15.426828   20.168268 C.3        1 MOL1         0.2972
       2    H1      15.360558   15.358418   19.698992 H          1 MOL1         0.0751
       3    O1      16.562092   16.722237   20.769056 O.3        1 MOL1        -0.3740
       4    C2      16.549812   14.314514   21.235957 C.3        1 MOL1         0.1003
       5    H2      16.489971   13.351426   20.712569 H          1 MOL1         0.0783
       6    O2      15.533410   14.353871   22.248015 O.3        1 MOL1        -0.5519
       7    H3      15.613241   15.230941   22.702227 H          1 MOL1         0.3769
       8    C3      17.957452   14.421762   21.873699 C.3        1 MOL1         0.1053
       9    H4      17.989858   15.356619   22.445818 H          1 MOL1         0.0783
      10    O3      18.185142   13.314301   22.751633 O.3        1 MOL1        -0.5519
      11    H5      17.356330   13.225133   23.273005 H          1 MOL1         0.3769
      12    C4      19.060995   14.460941   20.784500 C.3        1 MOL1         0.1018
      13    H6      19.151009   13.455718   20.352174 H          1 MOL1         0.0783
      14    C5      18.740093   15.465580   19.644297 C.3        1 MOL1         0.1043
      15    H7      18.812208   16.479416   20.052366 H          1 MOL1         0.0783
      16    O4      17.386167   15.241147   19.175409 O.3        1 MOL1        -0.3740
      17    C6      19.712716   15.400841   18.436545 C.3        1 MOL1         0.0138
      18    H8      20.540804   16.096849   18.618325 H          1 MOL1         0.0794
      19    H9      19.185773   15.763791   17.544049 H          1 MOL1         0.0794
      20    O5      20.239936   14.089824   18.197498 O.3        1 MOL1        -0.5486
      21    H10     20.901893   13.907845   18.904172 H          1 MOL1         0.3769
      22    C7      14.803367   20.226239   22.058364 C.3        1 MOL1         0.2972
      23    H11     14.134573   21.028568   22.395829 H          1 MOL1         0.0751
      24    O6      16.138703   20.711116   21.827718 O.3        1 MOL1        -0.3740
      25    C8      14.875002   19.115101   23.131999 C.3        1 MOL1         0.1003
      26    H12     13.861043   18.714047   23.258964 H          1 MOL1         0.0783
      27    O7      15.329913   19.655663   24.383416 O.3        1 MOL1        -0.5519
      28    H13     15.791922   20.504648   24.177613 H          1 MOL1         0.3769
      29    C9      15.791490   17.955750   22.673273 C.3        1 MOL1         0.1053
      30    H14     16.824539   18.327174   22.640580 H          1 MOL1         0.0783
      31    O8      15.693803   16.887830   23.621024 O.3        1 MOL1        -0.5519
      32    H15     15.862256   17.311636   24.491846 H          1 MOL1         0.3769
      33    C10     15.415681   17.448820   21.255861 C.3        1 MOL1         0.1018
      34    H16     14.523752   16.812680   21.329102 H          1 MOL1         0.0783
      35    C11     15.167108   18.611413   20.250321 C.3        1 MOL1         0.1043
      36    H17     16.141510   19.052178   20.006655 H          1 MOL1         0.0783
      37    O9      14.321413   19.638488   20.831985 O.3        1 MOL1        -0.3740
      38    C12     14.531455   18.149498   18.917558 C.3        1 MOL1         0.0138
      39    H18     15.279991   17.574535   18.355704 H          1 MOL1         0.0794
      40    H19     14.285948   19.037478   18.319586 H          1 MOL1         0.0794
      41    O10     13.361055   17.349578   19.126315 O.3        1 MOL1        -0.5486
      42    H20     12.967709   17.161086   18.246361 H          1 MOL1         0.3769
      43    C13     18.399235   24.164852   21.442642 C.3        1 MOL1         0.2972
      44    H21     18.761204   25.190809   21.297728 H          1 MOL1         0.0751
      45    O11     19.492412   23.232653   21.582529 O.3        1 MOL1        -0.3740
      46    C14     17.554379   24.084606   22.738868 C.3        1 MOL1         0.1003
      47    H22     16.702234   24.767512   22.626635 H          1 MOL1         0.0783
      48    O12     18.344981   24.486380   23.868662 O.3        1 MOL1        -0.5519
      49    H23     19.276113   24.226329   23.666226 H          1 MOL1         0.3769
      50    C15     17.002710   22.653578   22.947923 C.3        1 MOL1         0.1053
      51    H24     17.855763   21.996116   23.154184 H          1 MOL1         0.0783
      52    O13     16.105422   22.634941   24.062111 O.3        1 MOL1        -0.5519
      53    H25     16.559506   23.152279   24.764410 H          1 MOL1         0.3769
      54    C16     16.283509   22.135159   21.677723 C.3        1 MOL1         0.1018
      55    H26     15.316304   22.645759   21.582043 H          1 MOL1         0.0783
      56    C17     17.119922   22.370472   20.392060 C.3        1 MOL1         0.1043
      57    H27     17.996957   21.721608   20.453793 H          1 MOL1         0.0783
      58    O14     17.568636   23.748074   20.335031 O.3        1 MOL1        -0.3740
      59    C18     16.390512   22.011060   19.070778 C.3        1 MOL1         0.0138
      60    H28     16.593943   20.957854   18.839126 H          1 MOL1         0.0794
      61    H29     16.825334   22.605174   18.255906 H          1 MOL1         0.0794
      62    O15     14.974423   22.218801   19.129143 O.3        1 MOL1        -0.5486
      63    H30     14.597369   21.490045   19.674445 H          1 MOL1         0.3769
      64    C19     23.467291   22.565652   20.492579 C.3        1 MOL1         0.2972
      65    H31     24.478379   22.642442   20.072448 H          1 MOL1         0.0751
      66    O16     23.217373   21.246244   21.024442 O.3        1 MOL1        -0.3740
      67    C20     23.239746   23.629963   21.601332 C.3        1 MOL1         0.1003
      68    H32     23.362521   24.614244   21.130934 H          1 MOL1         0.0783
      69    O17     24.193317   23.507340   22.666975 O.3        1 MOL1        -0.5519
      70    H33     24.086284   22.600559   23.051188 H          1 MOL1         0.3769
      71    C21     21.793885   23.546683   22.150344 C.3        1 MOL1         0.1053
      72    H34     21.678780   22.581918   22.663384 H          1 MOL1         0.0783
      73    O18     21.565786   24.616633   23.074036 O.3        1 MOL1        -0.5519
      74    H35     22.365599   24.639105   23.645058 H          1 MOL1         0.3769
      75    C22     20.755131   23.615743   21.002315 C.3        1 MOL1         0.1018
      76    H36     20.736070   24.643053   20.615594 H          1 MOL1         0.0783
      77    C23     21.102642   22.629826   19.848537 C.3        1 MOL1         0.1043
      78    H37     20.971674   21.607453   20.221552 H          1 MOL1         0.0783
      79    O19     22.487071   22.815213   19.461461 O.3        1 MOL1        -0.3740
      80    C24     20.227347   22.764934   18.575320 C.3        1 MOL1         0.0138
      81    H38     19.356844   22.106712   18.675363 H          1 MOL1         0.0794
      82    H39     20.803064   22.394324   17.716668 H          1 MOL1         0.0794
      83    O20     19.787810   24.104788   18.327183 O.3        1 MOL1        -0.5486
      84    H40     19.005764   24.258431   18.906127 H          1 MOL1         0.3769
      85    C25     25.040890   17.680156   22.103226 C.3        1 MOL1         0.2972
      86    H41     25.733194   16.877690   22.387143 H          1 MOL1         0.0751
      87    O21     23.717274   17.174885   21.824347 O.3        1 MOL1        -0.3740
      88    C26     24.952468   18.736912   23.233669 C.3        1 MOL1         0.1003
      89    H42     25.953333   19.173038   23.349772 H          1 MOL1         0.0783
      90    O22     24.556628   18.150423   24.482757 O.3        1 MOL1        -0.5519
      91    H43     24.030033   17.337532   24.278768 H          1 MOL1         0.3769
      92    C27     23.986945   19.878171   22.841498 C.3        1 MOL1         0.1053
      93    H44     22.977411   19.459848   22.763515 H          1 MOL1         0.0783
      94    O23     24.014507   20.882343   23.859973 O.3        1 MOL1        -0.5519
      95    H45     23.976707   20.379903   24.705245 H          1 MOL1         0.3769
      96    C28     24.363983   20.489648   21.468871 C.3        1 MOL1         0.1018
      97    H46     25.248241   21.126870   21.603128 H          1 MOL1         0.0783
      98    C29     24.652030   19.400297   20.392082 C.3        1 MOL1         0.1043
      99    H47     23.696896   18.946370   20.100463 H          1 MOL1         0.0783
     100    O24     25.517482   18.362280   20.923661 O.3        1 MOL1        -0.3740
     101    C30     25.298782   19.963547   19.104111 C.3        1 MOL1         0.0138
     102    H48     24.543706   20.549643   18.562839 H          1 MOL1         0.0794
     103    H49     25.583143   19.122070   18.458183 H          1 MOL1         0.0794
     104    O25     26.439944   20.783514   19.385663 O.3        1 MOL1        -0.5486
     105    H50     26.845201   21.035280   18.527134 H          1 MOL1         0.3769
     106    C31     21.278828   13.856351   21.590676 C.3        1 MOL1         0.2972
     107    H51     20.833748   12.854311   21.535380 H          1 MOL1         0.0751
     108    O26     20.285344   14.887771   21.416283 O.3        1 MOL1        -0.3740
     109    C32     21.946110   14.052374   22.971122 C.3        1 MOL1         0.1003
     110    H52     22.733915   13.293709   23.066417 H          1 MOL1         0.0783
     111    O27     20.986525   13.875010   24.026013 O.3        1 MOL1        -0.5519
     112    H53     20.089314   13.892933   23.611394 H          1 MOL1         0.3769
     113    C33     22.607866   15.445914   23.072627 C.3        1 MOL1         0.1053
     114    H54     21.810498   16.197434   23.083661 H          1 MOL1         0.0783
     115    O28     23.348172   15.520044   24.292315 O.3        1 MOL1        -0.5519
     116    H55     22.751484   15.131111   24.971571 H          1 MOL1         0.3769
     117    C34     23.534586   15.742604   21.865155 C.3        1 MOL1         0.1018
     118    H56     24.480872   15.205058   22.005490 H          1 MOL1         0.0783
     119    C35     22.905022   15.333866   20.501973 C.3        1 MOL1         0.1043
     120    H57     22.129581   16.064590   20.261865 H          1 MOL1         0.0783
     121    O29     22.291654   14.021159   20.575538 O.3        1 MOL1        -0.3740
     122    C36     23.907910   15.352253   19.322857 C.3        1 MOL1         0.0138
     123    H58     24.178690   16.394977   19.107817 H          1 MOL1         0.0794
     124    H59     23.402294   14.958303   18.431150 H          1 MOL1         0.0794
     125    O30     25.090330   14.589541   19.591881 O.3        1 MOL1        -0.5486
     126    H60     25.684998   15.145518   20.138751 H          1 MOL1         0.3769
     127    C1      19.283742   19.308348   20.799147 C.3        1 MOL1        -0.1693
     128    H1      19.279917   20.070520   20.016812 H          1 MOL1         0.0829
     129    H2      18.413647   18.658425   20.655351 H          1 MOL1         0.0829
     130    C2      19.488026   19.789624   22.274839 C.3        1 MOL1        -0.1768
     131    H3      20.109216   20.684893   22.388541 H          1 MOL1         0.0829
     132    H4      18.580731   19.908555   22.874011 H          1 MOL1         0.0829
     133    C3      20.251906   18.450139   22.497929 C.3        1 MOL1         0.1211
     134    H5      21.090335   18.508135   23.201553 H          1 MOL1         0.0786
     135    C4      20.639037   18.561952   20.992249 C.3        1 MOL1        -0.1768
     136    H6      20.739889   17.624579   20.447509 H          1 MOL1         0.0829
     137    H7      21.523496   19.176478   20.799247 H          1 MOL1         0.0829
     138    O1      19.430794   17.351180   22.824231 O.3        1 MOL1        -0.5515
     139    H8      19.848812   16.546335   22.452734 H          1 MOL1         0.3773
@<TRIPOS>BOND
    1     1     2    1
    2     1     3    1
    3     1     4    1
    4     4     5    1
    5     4     6    1
    6     6     7    1
    7     4     8    1
    8     8     9    1
    9     8    10    1
   10    10    11    1
   11     8    12    1
   12    12    13    1
   13    12    14    1
   14    14    15    1
   15     1    16    1
   16    14    16    1
   17    14    17    1
   18    17    18    1
   19    17    19    1
   20    17    20    1
   21    20    21    1
   22    22    23    1
   23    22    24    1
   24    22    25    1
   25    25    26    1
   26    25    27    1
   27    27    28    1
   28    25    29    1
   29    29    30    1
   30    29    31    1
   31    31    32    1
   32     3    33    1
   33    29    33    1
   34    33    34    1
   35    33    35    1
   36    35    36    1
   37    22    37    1
   38    35    37    1
   39    35    38    1
   40    38    39    1
   41    38    40    1
   42    38    41    1
   43    41    42    1
   44    43    44    1
   45    43    45    1
   46    43    46    1
   47    46    47    1
   48    46    48    1
   49    48    49    1
   50    46    50    1
   51    50    51    1
   52    50    52    1
   53    52    53    1
   54    24    54    1
   55    50    54    1
   56    54    55    1
   57    54    56    1
   58    56    57    1
   59    43    58    1
   60    56    58    1
   61    56    59    1
   62    59    60    1
   63    59    61    1
   64    59    62    1
   65    62    63    1
   66    64    65    1
   67    64    66    1
   68    64    67    1
   69    67    68    1
   70    67    69    1
   71    69    70    1
   72    67    71    1
   73    71    72    1
   74    71    73    1
   75    73    74    1
   76    45    75    1
   77    71    75    1
   78    75    76    1
   79    75    77    1
   80    77    78    1
   81    64    79    1
   82    77    79    1
   83    77    80    1
   84    80    81    1
   85    80    82    1
   86    80    83    1
   87    83    84    1
   88    85    86    1
   89    85    87    1
   90    85    88    1
   91    88    89    1
   92    88    90    1
   93    90    91    1
   94    88    92    1
   95    92    93    1
   96    92    94    1
   97    94    95    1
   98    66    96    1
   99    92    96    1
  100    96    97    1
  101    96    98    1
  102    98    99    1
  103    85   100    1
  104    98   100    1
  105    98   101    1
  106   101   102    1
  107   101   103    1
  108   101   104    1
  109   104   105    1
  110   106   107    1
  111    12   108    1
  112   106   108    1
  113   106   109    1
  114   109   110    1
  115   109   111    1
  116   111   112    1
  117   109   113    1
  118   113   114    1
  119   113   115    1
  120   115   116    1
  121    87   117    1
  122   113   117    1
  123   117   118    1
  124   117   119    1
  125   119   120    1
  126   106   121    1
  127   119   121    1
  128   119   122    1
  129   122   123    1
  130   122   124    1
  131   122   125    1
  132   125   126    1
  133   127   128    1
  134   127   129    1
  135   127   130    1
  136   130   131    1
  137   130   132    1
  138   130   133    1
  139   133   134    1
  140   127   135    1
  141   133   135    1
  142   135   136    1
  143   135   137    1
  144   133   138    1
  145   138   139    1
@<TRIPOS>SUBSTRUCTURE
       1 MOL1            1 RESIDUE      1      MOL     
       2 MOL1          139 RESIDUE      1      MOL     
@<SCITEGIC>MOL_PROPERTY
feprocess Rank
SciTegic.value.IntegerValue
187

@<SCITEGIC>MOL_PROPERTY
Conf_Id
SciTegic.value.IntegerValue
808

@<SCITEGIC>MOL_PROPERTY
Probability
SciTegic.value.DoubleValue
0.00

@<SCITEGIC>MOL_PROPERTY
G
SciTegic.value.DoubleValue
550.787

@<SCITEGIC>MOL_PROPERTY
E
SciTegic.value.DoubleValue
371.860

@<SCITEGIC>MOL_PROPERTY
-TS
SciTegic.value.DoubleValue
178.928

@<SCITEGIC>MOL_PROPERTY
U+W
SciTegic.value.DoubleValue
249.348

@<SCITEGIC>MOL_PROPERTY
U
SciTegic.value.DoubleValue
286.892

@<SCITEGIC>MOL_PROPERTY
W
SciTegic.value.DoubleValue
-37.544

@<SCITEGIC>MOL_PROPERTY
W(PB)
SciTegic.value.DoubleValue
-43.552

@<SCITEGIC>MOL_PROPERTY
W(SA)
SciTegic.value.DoubleValue
6.008

@<SCITEGIC>MOL_PROPERTY
Valence
SciTegic.value.DoubleValue
156.052

@<SCITEGIC>MOL_PROPERTY
Coulomb
SciTegic.value.DoubleValue
153.225

@<SCITEGIC>MOL_PROPERTY
VdW
SciTegic.value.DoubleValue
-22.386

@<SCITEGIC>MOL_PROPERTY
VdW6
SciTegic.value.DoubleValue
-173.236

@<SCITEGIC>MOL_PROPERTY
VdW12
SciTegic.value.DoubleValue
150.850

@<SCITEGIC>MOL_PROPERTY
Bond
SciTegic.value.DoubleValue
4.854

@<SCITEGIC>MOL_PROPERTY
Angle
SciTegic.value.DoubleValue
12.434

@<SCITEGIC>MOL_PROPERTY
Pdih
SciTegic.value.DoubleValue
138.764

@<SCITEGIC>MOL_PROPERTY
Idih
SciTegic.value.DoubleValue
0.000

@<SCITEGIC>MOL_PROPERTY
Tether
SciTegic.value.DoubleValue
0.000

@<TRIPOS>MOLECULE
CD_guest-s16_fast_vm2_rndm.mol2 : feprocess host+ligand conformer 188
         139         145           2
SMALL
USER_CHARGES
 
@<TRIPOS>ATOM
       1    C1      16.242655   15.360266   20.376125 C.3        1 MOL1         0.2972
       2    H1      15.242197   15.258908   19.937975 H          1 MOL1         0.0751
       3    O1      16.434543   16.659377   20.970202 O.3        1 MOL1        -0.3740
       4    C2      16.495323   14.270805   21.451828 C.3        1 MOL1         0.1003
       5    H2      16.420278   13.297254   20.950052 H          1 MOL1         0.0783
       6    O2      15.517692   14.327771   22.501664 O.3        1 MOL1        -0.5519
       7    H3      15.555575   15.236895   22.893719 H          1 MOL1         0.3769
       8    C3      17.927295   14.398048   22.027999 C.3        1 MOL1         0.1053
       9    H4      17.993635   15.345644   22.580066 H          1 MOL1         0.0783
      10    O3      18.190053   13.303346   22.912573 O.3        1 MOL1        -0.5519
      11    H5      17.386312   13.225689   23.473169 H          1 MOL1         0.3769
      12    C4      18.981801   14.418739   20.892878 C.3        1 MOL1         0.1018
      13    H6      19.039087   13.409514   20.464387 H          1 MOL1         0.0783
      14    C5      18.616147   15.432744   19.769945 C.3        1 MOL1         0.1043
      15    H7      18.701846   16.447368   20.176725 H          1 MOL1         0.0783
      16    O4      17.247708   15.199762   19.351712 O.3        1 MOL1        -0.3740
      17    C6      19.520865   15.382502   18.512090 C.3        1 MOL1         0.0138
      18    H8      20.376041   16.050239   18.671274 H          1 MOL1         0.0794
      19    H9      18.957487   15.789297   17.661720 H          1 MOL1         0.0794
      20    O5      19.991234   14.066083   18.202893 O.3        1 MOL1        -0.5486
      21    H10     20.782142   13.909492   18.768837 H          1 MOL1         0.3769
      22    C7      14.741606   20.243422   21.973426 C.3        1 MOL1         0.2972
      23    H11     14.113423   21.106106   22.230900 H          1 MOL1         0.0751
      24    O6      16.118916   20.623191   21.786047 O.3        1 MOL1        -0.3740
      25    C8      14.675580   19.191486   23.103746 C.3        1 MOL1         0.1003
      26    H12     13.634619   18.851718   23.181883 H          1 MOL1         0.0783
      27    O7      15.083775   19.769416   24.354348 O.3        1 MOL1        -0.5519
      28    H13     15.563472   20.607618   24.141613 H          1 MOL1         0.3769
      29    C9      15.556863   17.970072   22.760137 C.3        1 MOL1         0.1053
      30    H14     16.600755   18.299827   22.782794 H          1 MOL1         0.0783
      31    O8      15.358572   16.951954   23.744796 O.3        1 MOL1        -0.5519
      32    H15     15.406459   17.424749   24.606072 H          1 MOL1         0.3769
      33    C10     15.262413   17.410022   21.344236 C.3        1 MOL1         0.1018
      34    H16     14.363851   16.781895   21.394382 H          1 MOL1         0.0783
      35    C11     15.093428   18.521317   20.266461 C.3        1 MOL1         0.1043
      36    H17     16.096111   18.899637   20.032214 H          1 MOL1         0.0783
      37    O9      14.282159   19.619217   20.758062 O.3        1 MOL1        -0.3740
      38    C12     14.477660   18.018553   18.938143 C.3        1 MOL1         0.0138
      39    H18     15.172331   17.307652   18.470694 H          1 MOL1         0.0794
      40    H19     14.385476   18.873347   18.254820 H          1 MOL1         0.0794
      41    O10     13.194915   17.405756   19.124144 O.3        1 MOL1        -0.5486
      42    H20     13.318321   16.567956   19.615485 H          1 MOL1         0.3769
      43    C13     18.450791   24.050343   21.280337 C.3        1 MOL1         0.2972
      44    H21     18.786198   25.075230   21.075876 H          1 MOL1         0.0751
      45    O11     19.562868   23.175387   21.548304 O.3        1 MOL1        -0.3740
      46    C14     17.540917   24.036374   22.535294 C.3        1 MOL1         0.1003
      47    H22     16.685743   24.695006   22.335283 H          1 MOL1         0.0783
      48    O12     18.263458   24.525222   23.676135 O.3        1 MOL1        -0.5519
      49    H23     19.208848   24.275944   23.537881 H          1 MOL1         0.3769
      50    C15     16.998850   22.612931   22.809819 C.3        1 MOL1         0.1053
      51    H24     17.846018   21.974895   23.091867 H          1 MOL1         0.0783
      52    O13     16.047840   22.652517   23.878621 O.3        1 MOL1        -0.5519
      53    H25     16.462073   23.219719   24.567038 H          1 MOL1         0.3769
      54    C16     16.346966   22.021168   21.537798 C.3        1 MOL1         0.1018
      55    H26     15.413997   22.562856   21.332717 H          1 MOL1         0.0783
      56    C17     17.280813   22.136565   20.304263 C.3        1 MOL1         0.1043
      57    H27     18.156666   21.500043   20.483249 H          1 MOL1         0.0783
      58    O14     17.709657   23.514946   20.160578 O.3        1 MOL1        -0.3740
      59    C18     16.644439   21.669914   18.968120 C.3        1 MOL1         0.0138
      60    H28     16.848722   20.599687   18.840663 H          1 MOL1         0.0794
      61    H29     17.146905   22.187737   18.140184 H          1 MOL1         0.0794
      62    O15     15.231452   21.898112   18.902024 O.3        1 MOL1        -0.5486
      63    H30     14.800331   21.239836   19.495591 H          1 MOL1         0.3769
      64    C19     23.591960   22.562889   20.691537 C.3        1 MOL1         0.2972
      65    H31     24.620239   22.640173   20.315334 H          1 MOL1         0.0751
      66    O16     23.349736   21.290573   21.322639 O.3        1 MOL1        -0.3740
      67    C20     23.292173   23.682153   21.722632 C.3        1 MOL1         0.1003
      68    H32     23.444141   24.643597   21.215111 H          1 MOL1         0.0783
      69    O17     24.177871   23.599120   22.851337 O.3        1 MOL1        -0.5519
      70    H33     24.134905   22.671885   23.196198 H          1 MOL1         0.3769
      71    C21     21.817566   23.617004   22.191452 C.3        1 MOL1         0.1053
      72    H34     21.692006   22.700348   22.781331 H          1 MOL1         0.0783
      73    O18     21.520531   24.755145   23.006815 O.3        1 MOL1        -0.5519
      74    H35     22.274622   24.828518   23.632969 H          1 MOL1         0.3769
      75    C22     20.835692   23.557656   20.993469 C.3        1 MOL1         0.1018
      76    H36     20.802368   24.549296   20.523411 H          1 MOL1         0.0783
      77    C23     21.261975   22.493376   19.941119 C.3        1 MOL1         0.1043
      78    H37     21.139737   21.498418   20.388021 H          1 MOL1         0.0783
      79    O19     22.654658   22.699803   19.602895 O.3        1 MOL1        -0.3740
      80    C24     20.447370   22.495913   18.621776 C.3        1 MOL1         0.0138
      81    H38     19.594202   21.817258   18.735682 H          1 MOL1         0.0794
      82    H39     21.075765   22.077090   17.824406 H          1 MOL1         0.0794
      83    O20     19.981455   23.795709   18.243441 O.3        1 MOL1        -0.5486
      84    H40     19.166942   23.968568   18.770120 H          1 MOL1         0.3769
      85    C25     25.090819   17.668367   22.168470 C.3        1 MOL1         0.2972
      86    H41     25.733192   16.806568   22.390958 H          1 MOL1         0.0751
      87    O21     23.716139   17.279802   21.976803 O.3        1 MOL1        -0.3740
      88    C26     25.140843   18.684243   23.334788 C.3        1 MOL1         0.1003
      89    H42     26.168492   19.062479   23.412184 H          1 MOL1         0.0783
      90    O22     24.767020   18.052816   24.569504 O.3        1 MOL1        -0.5519
      91    H43     24.196679   17.278929   24.337042 H          1 MOL1         0.3769
      92    C27     24.205421   19.874540   23.030878 C.3        1 MOL1         0.1053
      93    H44     23.185663   19.481534   23.000976 H          1 MOL1         0.0783
      94    O23     24.301743   20.863363   24.060790 O.3        1 MOL1        -0.5519
      95    H45     24.324093   20.350377   24.900751 H          1 MOL1         0.3769
      96    C28     24.512039   20.506511   21.652795 C.3        1 MOL1         0.1018
      97    H46     25.415528   21.123987   21.745493 H          1 MOL1         0.0783
      98    C29     24.691240   19.445438   20.526380 C.3        1 MOL1         0.1043
      99    H47     23.695100   19.057262   20.280781 H          1 MOL1         0.0783
     100    O24     25.528723   18.344978   20.971818 O.3        1 MOL1        -0.3740
     101    C30     25.292218   20.015504   19.219465 C.3        1 MOL1         0.0138
     102    H48     24.536775   20.647052   18.732821 H          1 MOL1         0.0794
     103    H49     25.505359   19.180622   18.538299 H          1 MOL1         0.0794
     104    O25     26.481329   20.777438   19.460977 O.3        1 MOL1        -0.5486
     105    H50     26.854187   21.032820   18.588956 H          1 MOL1         0.3769
     106    C31     21.336119   13.919928   21.315131 C.3        1 MOL1         0.2972
     107    H51     20.995327   12.901586   21.088357 H          1 MOL1         0.0751
     108    O26     20.224319   14.818682   21.503504 O.3        1 MOL1        -0.3740
     109    C32     22.161407   13.909197   22.626648 C.3        1 MOL1         0.1003
     110    H52     23.006825   13.223955   22.482310 H          1 MOL1         0.0783
     111    O27     21.351472   13.443856   23.717924 O.3        1 MOL1        -0.5519
     112    H53     20.420241   13.698616   23.507081 H          1 MOL1         0.3769
     113    C33     22.730033   15.314193   22.935829 C.3        1 MOL1         0.1053
     114    H54     21.886172   15.975953   23.170400 H          1 MOL1         0.0783
     115    O28     23.614117   15.242667   24.058992 O.3        1 MOL1        -0.5519
     116    H55     23.138704   14.694648   24.722817 H          1 MOL1         0.3769
     117    C34     23.475850   15.889053   21.707484 C.3        1 MOL1         0.1018
     118    H56     24.407812   15.327114   21.561297 H          1 MOL1         0.0783
     119    C35     22.614643   15.800616   20.418791 C.3        1 MOL1         0.1043
     120    H57     21.744767   16.458287   20.546490 H          1 MOL1         0.0783
     121    O29     22.161867   14.433844   20.246115 O.3        1 MOL1        -0.3740
     122    C36     23.338377   16.253179   19.122918 C.3        1 MOL1         0.0138
     123    H58     23.162629   17.326936   18.983073 H          1 MOL1         0.0794
     124    H59     22.876455   15.743514   18.266812 H          1 MOL1         0.0794
     125    O30     24.748019   15.999115   19.141138 O.3        1 MOL1        -0.5486
     126    H60     25.156179   16.673836   19.732264 H          1 MOL1         0.3769
     127    C1      19.174890   18.656028   22.220577 C.3        1 MOL1        -0.1693
     128    H1      18.665000   19.239566   21.443787 H          1 MOL1         0.0829
     129    H2      18.888747   17.604121   22.118823 H          1 MOL1         0.0829
     130    C2      19.064566   19.246594   23.664447 C.3        1 MOL1        -0.1768
     131    H3      19.269412   18.530020   24.469226 H          1 MOL1         0.0829
     132    H4      18.140643   19.783676   23.901786 H          1 MOL1         0.0829
     133    C3      20.282301   20.131427   23.266294 C.3        1 MOL1         0.1211
     134    H5      20.006268   21.031866   22.707709 H          1 MOL1         0.0786
     135    C4      20.704675   18.935258   22.361046 C.3        1 MOL1        -0.1768
     136    H6      21.260655   18.149955   22.884484 H          1 MOL1         0.0829
     137    H7      21.237301   19.193203   21.439739 H          1 MOL1         0.0829
     138    O1      21.160162   20.448300   24.322644 O.3        1 MOL1        -0.5515
     139    H8      22.003977   20.767873   23.938413 H          1 MOL1         0.3773
@<TRIPOS>BOND
    1     1     2    1
    2     1     3    1
    3     1     4    1
    4     4     5    1
    5     4     6    1
    6     6     7    1
    7     4     8    1
    8     8     9    1
    9     8    10    1
   10    10    11    1
   11     8    12    1
   12    12    13    1
   13    12    14    1
   14    14    15    1
   15     1    16    1
   16    14    16    1
   17    14    17    1
   18    17    18    1
   19    17    19    1
   20    17    20    1
   21    20    21    1
   22    22    23    1
   23    22    24    1
   24    22    25    1
   25    25    26    1
   26    25    27    1
   27    27    28    1
   28    25    29    1
   29    29    30    1
   30    29    31    1
   31    31    32    1
   32     3    33    1
   33    29    33    1
   34    33    34    1
   35    33    35    1
   36    35    36    1
   37    22    37    1
   38    35    37    1
   39    35    38    1
   40    38    39    1
   41    38    40    1
   42    38    41    1
   43    41    42    1
   44    43    44    1
   45    43    45    1
   46    43    46    1
   47    46    47    1
   48    46    48    1
   49    48    49    1
   50    46    50    1
   51    50    51    1
   52    50    52    1
   53    52    53    1
   54    24    54    1
   55    50    54    1
   56    54    55    1
   57    54    56    1
   58    56    57    1
   59    43    58    1
   60    56    58    1
   61    56    59    1
   62    59    60    1
   63    59    61    1
   64    59    62    1
   65    62    63    1
   66    64    65    1
   67    64    66    1
   68    64    67    1
   69    67    68    1
   70    67    69    1
   71    69    70    1
   72    67    71    1
   73    71    72    1
   74    71    73    1
   75    73    74    1
   76    45    75    1
   77    71    75    1
   78    75    76    1
   79    75    77    1
   80    77    78    1
   81    64    79    1
   82    77    79    1
   83    77    80    1
   84    80    81    1
   85    80    82    1
   86    80    83    1
   87    83    84    1
   88    85    86    1
   89    85    87    1
   90    85    88    1
   91    88    89    1
   92    88    90    1
   93    90    91    1
   94    88    92    1
   95    92    93    1
   96    92    94    1
   97    94    95    1
   98    66    96    1
   99    92    96    1
  100    96    97    1
  101    96    98    1
  102    98    99    1
  103    85   100    1
  104    98   100    1
  105    98   101    1
  106   101   102    1
  107   101   103    1
  108   101   104    1
  109   104   105    1
  110   106   107    1
  111    12   108    1
  112   106   108    1
  113   106   109    1
  114   109   110    1
  115   109   111    1
  116   111   112    1
  117   109   113    1
  118   113   114    1
  119   113   115    1
  120   115   116    1
  121    87   117    1
  122   113   117    1
  123   117   118    1
  124   117   119    1
  125   119   120    1
  126   106   121    1
  127   119   121    1
  128   119   122    1
  129   122   123    1
  130   122   124    1
  131   122   125    1
  132   125   126    1
  133   127   128    1
  134   127   129    1
  135   127   130    1
  136   130   131    1
  137   130   132    1
  138   130   133    1
  139   133   134    1
  140   127   135    1
  141   133   135    1
  142   135   136    1
  143   135   137    1
  144   133   138    1
  145   138   139    1
@<TRIPOS>SUBSTRUCTURE
       1 MOL1            1 RESIDUE      1      MOL     
       2 MOL1          139 RESIDUE      1      MOL     
@<SCITEGIC>MOL_PROPERTY
feprocess Rank
SciTegic.value.IntegerValue
188

@<SCITEGIC>MOL_PROPERTY
Conf_Id
SciTegic.value.IntegerValue
482

@<SCITEGIC>MOL_PROPERTY
Probability
SciTegic.value.DoubleValue
0.00

@<SCITEGIC>MOL_PROPERTY
G
SciTegic.value.DoubleValue
550.821

@<SCITEGIC>MOL_PROPERTY
E
SciTegic.value.DoubleValue
373.165

@<SCITEGIC>MOL_PROPERTY
-TS
SciTegic.value.DoubleValue
177.656

@<SCITEGIC>MOL_PROPERTY
U+W
SciTegic.value.DoubleValue
250.653

@<SCITEGIC>MOL_PROPERTY
U
SciTegic.value.DoubleValue
289.148

@<SCITEGIC>MOL_PROPERTY
W
SciTegic.value.DoubleValue
-38.494

@<SCITEGIC>MOL_PROPERTY
W(PB)
SciTegic.value.DoubleValue
-44.458

@<SCITEGIC>MOL_PROPERTY
W(SA)
SciTegic.value.DoubleValue
5.964

@<SCITEGIC>MOL_PROPERTY
Valence
SciTegic.value.DoubleValue
155.431

@<SCITEGIC>MOL_PROPERTY
Coulomb
SciTegic.value.DoubleValue
156.106

@<SCITEGIC>MOL_PROPERTY
VdW
SciTegic.value.DoubleValue
-22.390

@<SCITEGIC>MOL_PROPERTY
VdW6
SciTegic.value.DoubleValue
-168.653

@<SCITEGIC>MOL_PROPERTY
VdW12
SciTegic.value.DoubleValue
146.264

@<SCITEGIC>MOL_PROPERTY
Bond
SciTegic.value.DoubleValue
4.509

@<SCITEGIC>MOL_PROPERTY
Angle
SciTegic.value.DoubleValue
11.900

@<SCITEGIC>MOL_PROPERTY
Pdih
SciTegic.value.DoubleValue
139.023

@<SCITEGIC>MOL_PROPERTY
Idih
SciTegic.value.DoubleValue
0.000

@<SCITEGIC>MOL_PROPERTY
Tether
SciTegic.value.DoubleValue
0.000

@<TRIPOS>MOLECULE
CD_guest-s16_fast_vm2_rndm.mol2 : feprocess host+ligand conformer 189
         139         145           2
SMALL
USER_CHARGES
 
@<TRIPOS>ATOM
       1    C1      16.248970   15.354546   20.654887 C.3        1 MOL1         0.2972
       2    H1      15.224060   15.249072   20.276319 H          1 MOL1         0.0751
       3    O1      16.461973   16.642123   21.263536 O.3        1 MOL1        -0.3740
       4    C2      16.559478   14.269808   21.719043 C.3        1 MOL1         0.1003
       5    H2      16.414791   13.291708   21.242196 H          1 MOL1         0.0783
       6    O2      15.671969   14.382930   22.843676 O.3        1 MOL1        -0.5519
       7    H3      15.658375   15.335820   23.115358 H          1 MOL1         0.3769
       8    C3      18.034012   14.360150   22.186289 C.3        1 MOL1         0.1053
       9    H4      18.159818   15.300274   22.739953 H          1 MOL1         0.0783
      10    O3      18.335222   13.251819   23.041496 O.3        1 MOL1        -0.5519
      11    H5      17.578312   13.196633   23.666320 H          1 MOL1         0.3769
      12    C4      19.008349   14.374618   20.982097 C.3        1 MOL1         0.1018
      13    H6      19.009432   13.374140   20.529902 H          1 MOL1         0.0783
      14    C5      18.585884   15.424754   19.915071 C.3        1 MOL1         0.1043
      15    H7      18.703103   16.423447   20.349934 H          1 MOL1         0.0783
      16    O4      17.195054   15.208632   19.573761 O.3        1 MOL1        -0.3740
      17    C6      19.405916   15.411723   18.600282 C.3        1 MOL1         0.0138
      18    H8      20.276197   16.066864   18.725915 H          1 MOL1         0.0794
      19    H9      18.792568   15.853874   17.803893 H          1 MOL1         0.0794
      20    O5      19.838161   14.102464   18.214737 O.3        1 MOL1        -0.5486
      21    H10     20.677221   13.930777   18.701026 H          1 MOL1         0.3769
      22    C7      14.670077   20.322905   21.820034 C.3        1 MOL1         0.2972
      23    H11     13.984777   21.170951   21.947252 H          1 MOL1         0.0751
      24    O6      16.043451   20.753636   21.775503 O.3        1 MOL1        -0.3740
      25    C8      14.513623   19.341998   23.006366 C.3        1 MOL1         0.1003
      26    H12     13.478663   18.975970   23.003004 H          1 MOL1         0.0783
      27    O7      14.778581   20.015970   24.247196 O.3        1 MOL1        -0.5519
      28    H13     15.332752   20.804089   24.028725 H          1 MOL1         0.3769
      29    C9      15.454844   18.127413   22.838602 C.3        1 MOL1         0.1053
      30    H14     16.485147   18.489251   22.934498 H          1 MOL1         0.0783
      31    O8      15.185528   17.164412   23.862960 O.3        1 MOL1        -0.5519
      32    H15     15.139313   17.686834   24.694636 H          1 MOL1         0.3769
      33    C10     15.297074   17.470380   21.445543 C.3        1 MOL1         0.1018
      34    H16     14.369088   16.883162   21.442800 H          1 MOL1         0.0783
      35    C11     15.279530   18.510050   20.288237 C.3        1 MOL1         0.1043
      36    H17     16.300484   18.896058   20.177724 H          1 MOL1         0.0783
      37    O9      14.385511   19.611129   20.598121 O.3        1 MOL1        -0.3740
      38    C12     14.861100   17.916918   18.921490 C.3        1 MOL1         0.0138
      39    H18     15.672916   17.274388   18.555124 H          1 MOL1         0.0794
      40    H19     14.748033   18.739046   18.201993 H          1 MOL1         0.0794
      41    O10     13.645994   17.162615   19.010822 O.3        1 MOL1        -0.5486
      42    H20     13.402426   16.881370   18.101967 H          1 MOL1         0.3769
      43    C13     18.398749   24.118008   21.137449 C.3        1 MOL1         0.2972
      44    H21     18.774519   25.116395   20.879705 H          1 MOL1         0.0751
      45    O11     19.466791   23.241085   21.548741 O.3        1 MOL1        -0.3740
      46    C14     17.405922   24.223559   22.321625 C.3        1 MOL1         0.1003
      47    H22     16.582030   24.878957   22.010593 H          1 MOL1         0.0783
      48    O12     18.063323   24.789338   23.466644 O.3        1 MOL1        -0.5519
      49    H23     18.997349   24.467475   23.441722 H          1 MOL1         0.3769
      50    C15     16.814647   22.837214   22.671348 C.3        1 MOL1         0.1053
      51    H24     17.623717   22.222874   23.083678 H          1 MOL1         0.0783
      52    O13     15.780916   22.981727   23.650614 O.3        1 MOL1        -0.5519
      53    H25     16.151398   23.592419   24.326202 H          1 MOL1         0.3769
      54    C16     16.256276   22.129396   21.412251 C.3        1 MOL1         0.1018
      55    H26     15.325021   22.629535   21.115368 H          1 MOL1         0.0783
      56    C17     17.254299   22.160446   20.221150 C.3        1 MOL1         0.1043
      57    H27     18.112439   21.526728   20.476353 H          1 MOL1         0.0783
      58    O14     17.711524   23.521272   20.015238 O.3        1 MOL1        -0.3740
      59    C18     16.685370   21.620466   18.882104 C.3        1 MOL1         0.0138
      60    H28     16.896087   20.545620   18.822902 H          1 MOL1         0.0794
      61    H29     17.229611   22.093783   18.054026 H          1 MOL1         0.0794
      62    O15     15.278177   21.840895   18.729942 O.3        1 MOL1        -0.5486
      63    H30     14.818734   21.190937   19.311538 H          1 MOL1         0.3769
      64    C19     23.549697   22.538687   20.895761 C.3        1 MOL1         0.2972
      65    H31     24.591626   22.654208   20.570236 H          1 MOL1         0.0751
      66    O16     23.310795   21.223549   21.441720 O.3        1 MOL1        -0.3740
      67    C20     23.195490   23.596769   21.974197 C.3        1 MOL1         0.1003
      68    H32     23.380827   24.584291   21.532036 H          1 MOL1         0.0783
      69    O17     24.018497   23.446825   23.142419 O.3        1 MOL1        -0.5519
      70    H33     24.001949   22.490381   23.400440 H          1 MOL1         0.3769
      71    C21     21.695969   23.524485   22.354642 C.3        1 MOL1         0.1053
      72    H34     21.517158   22.568095   22.863974 H          1 MOL1         0.0783
      73    O18     21.372013   24.609205   23.231685 O.3        1 MOL1        -0.5519
      74    H35     22.095524   24.625723   23.896914 H          1 MOL1         0.3769
      75    C22     20.793456   23.578297   21.097091 C.3        1 MOL1         0.1018
      76    H36     20.841321   24.592549   20.679495 H          1 MOL1         0.0783
      77    C23     21.252933   22.547523   20.027081 C.3        1 MOL1         0.1043
      78    H37     21.084345   21.544995   20.430760 H          1 MOL1         0.0783
      79    O19     22.666099   22.730886   19.770875 O.3        1 MOL1        -0.3740
      80    C24     20.513765   22.613726   18.666926 C.3        1 MOL1         0.0138
      81    H38     19.626364   21.972256   18.720814 H          1 MOL1         0.0794
      82    H39     21.165884   22.182027   17.895987 H          1 MOL1         0.0794
      83    O20     20.129046   23.941566   18.294890 O.3        1 MOL1        -0.5486
      84    H40     19.257904   24.108899   18.722065 H          1 MOL1         0.3769
      85    C25     25.136542   17.588538   22.067997 C.3        1 MOL1         0.2972
      86    H41     25.795969   16.725676   22.228068 H          1 MOL1         0.0751
      87    O21     23.762565   17.191031   21.902314 O.3        1 MOL1        -0.3740
      88    C26     25.206670   18.543443   23.282018 C.3        1 MOL1         0.1003
      89    H42     26.232643   18.928024   23.350366 H          1 MOL1         0.0783
      90    O22     24.874441   17.842950   24.491739 O.3        1 MOL1        -0.5519
      91    H43     24.364793   17.037949   24.227004 H          1 MOL1         0.3769
      92    C27     24.251757   19.739532   23.071307 C.3        1 MOL1         0.1053
      93    H44     23.230366   19.345997   23.081428 H          1 MOL1         0.0783
      94    O23     24.412419   20.680328   24.136714 O.3        1 MOL1        -0.5519
      95    H45     24.428057   20.134607   24.954703 H          1 MOL1         0.3769
      96    C28     24.492157   20.436001   21.708515 C.3        1 MOL1         0.1018
      97    H46     25.390346   21.061126   21.802070 H          1 MOL1         0.0783
      98    C29     24.661829   19.434503   20.526355 C.3        1 MOL1         0.1043
      99    H47     23.670093   19.037206   20.282021 H          1 MOL1         0.0783
     100    O24     25.529857   18.330307   20.895051 O.3        1 MOL1        -0.3740
     101    C30     25.218525   20.081364   19.235740 C.3        1 MOL1         0.0138
     102    H48     24.441061   20.726076   18.804039 H          1 MOL1         0.0794
     103    H49     25.423628   19.286779   18.505684 H          1 MOL1         0.0794
     104    O25     26.403553   20.847451   19.484683 O.3        1 MOL1        -0.5486
     105    H50     26.744206   21.159445   18.617975 H          1 MOL1         0.3769
     106    C31     21.392100   13.850762   21.174292 C.3        1 MOL1         0.2972
     107    H51     21.033439   12.850133   20.901164 H          1 MOL1         0.0751
     108    O26     20.299638   14.728060   21.517320 O.3        1 MOL1        -0.3740
     109    C32     22.317385   13.749848   22.412946 C.3        1 MOL1         0.1003
     110    H52     23.152124   13.086063   22.152696 H          1 MOL1         0.0783
     111    O27     21.595660   13.197342   23.525260 O.3        1 MOL1        -0.5519
     112    H53     20.657030   13.490092   23.425775 H          1 MOL1         0.3769
     113    C33     22.900686   15.134124   22.782750 C.3        1 MOL1         0.1053
     114    H54     22.075102   15.761624   23.141474 H          1 MOL1         0.0783
     115    O28     23.876076   14.989482   23.820056 O.3        1 MOL1        -0.5519
     116    H55     23.465286   14.380571   24.473967 H          1 MOL1         0.3769
     117    C34     23.535790   15.817819   21.547076 C.3        1 MOL1         0.1018
     118    H56     24.467469   15.295776   21.291907 H          1 MOL1         0.0783
     119    C35     22.586928   15.801860   20.317584 C.3        1 MOL1         0.1043
     120    H57     21.720795   16.436411   20.544254 H          1 MOL1         0.0783
     121    O29     22.136638   14.443171   20.086542 O.3        1 MOL1        -0.3740
     122    C36     23.211677   16.352889   19.008545 C.3        1 MOL1         0.0138
     123    H58     22.991872   17.426052   18.945736 H          1 MOL1         0.0794
     124    H59     22.711079   15.878716   18.153910 H          1 MOL1         0.0794
     125    O30     24.627051   16.147276   18.922051 O.3        1 MOL1        -0.5486
     126    H60     25.050650   16.779259   19.548565 H          1 MOL1         0.3769
     127    C1      19.125571   19.855845   23.018060 C.3        1 MOL1        -0.1693
     128    H1      18.362058   20.042091   23.781998 H          1 MOL1         0.0829
     129    H2      19.123972   20.684582   22.303291 H          1 MOL1         0.0829
     130    C2      19.107663   18.439945   22.359124 C.3        1 MOL1        -0.1768
     131    H3      18.750446   17.635383   23.012081 H          1 MOL1         0.0829
     132    H4      18.584861   18.380004   21.400107 H          1 MOL1         0.0829
     133    C3      20.658040   18.556863   22.280460 C.3        1 MOL1         0.1211
     134    H5      21.194248   17.618975   22.453427 H          1 MOL1         0.0786
     135    C4      20.544754   19.473658   23.539627 C.3        1 MOL1        -0.1768
     136    H6      20.546263   18.928532   24.491015 H          1 MOL1         0.0829
     137    H7      21.259009   20.300069   23.610305 H          1 MOL1         0.0829
     138    O1      21.139468   19.177216   21.107201 O.3        1 MOL1        -0.5515
     139    H8      21.900519   19.739334   21.365327 H          1 MOL1         0.3773
@<TRIPOS>BOND
    1     1     2    1
    2     1     3    1
    3     1     4    1
    4     4     5    1
    5     4     6    1
    6     6     7    1
    7     4     8    1
    8     8     9    1
    9     8    10    1
   10    10    11    1
   11     8    12    1
   12    12    13    1
   13    12    14    1
   14    14    15    1
   15     1    16    1
   16    14    16    1
   17    14    17    1
   18    17    18    1
   19    17    19    1
   20    17    20    1
   21    20    21    1
   22    22    23    1
   23    22    24    1
   24    22    25    1
   25    25    26    1
   26    25    27    1
   27    27    28    1
   28    25    29    1
   29    29    30    1
   30    29    31    1
   31    31    32    1
   32     3    33    1
   33    29    33    1
   34    33    34    1
   35    33    35    1
   36    35    36    1
   37    22    37    1
   38    35    37    1
   39    35    38    1
   40    38    39    1
   41    38    40    1
   42    38    41    1
   43    41    42    1
   44    43    44    1
   45    43    45    1
   46    43    46    1
   47    46    47    1
   48    46    48    1
   49    48    49    1
   50    46    50    1
   51    50    51    1
   52    50    52    1
   53    52    53    1
   54    24    54    1
   55    50    54    1
   56    54    55    1
   57    54    56    1
   58    56    57    1
   59    43    58    1
   60    56    58    1
   61    56    59    1
   62    59    60    1
   63    59    61    1
   64    59    62    1
   65    62    63    1
   66    64    65    1
   67    64    66    1
   68    64    67    1
   69    67    68    1
   70    67    69    1
   71    69    70    1
   72    67    71    1
   73    71    72    1
   74    71    73    1
   75    73    74    1
   76    45    75    1
   77    71    75    1
   78    75    76    1
   79    75    77    1
   80    77    78    1
   81    64    79    1
   82    77    79    1
   83    77    80    1
   84    80    81    1
   85    80    82    1
   86    80    83    1
   87    83    84    1
   88    85    86    1
   89    85    87    1
   90    85    88    1
   91    88    89    1
   92    88    90    1
   93    90    91    1
   94    88    92    1
   95    92    93    1
   96    92    94    1
   97    94    95    1
   98    66    96    1
   99    92    96    1
  100    96    97    1
  101    96    98    1
  102    98    99    1
  103    85   100    1
  104    98   100    1
  105    98   101    1
  106   101   102    1
  107   101   103    1
  108   101   104    1
  109   104   105    1
  110   106   107    1
  111    12   108    1
  112   106   108    1
  113   106   109    1
  114   109   110    1
  115   109   111    1
  116   111   112    1
  117   109   113    1
  118   113   114    1
  119   113   115    1
  120   115   116    1
  121    87   117    1
  122   113   117    1
  123   117   118    1
  124   117   119    1
  125   119   120    1
  126   106   121    1
  127   119   121    1
  128   119   122    1
  129   122   123    1
  130   122   124    1
  131   122   125    1
  132   125   126    1
  133   127   128    1
  134   127   129    1
  135   127   130    1
  136   130   131    1
  137   130   132    1
  138   130   133    1
  139   133   134    1
  140   127   135    1
  141   133   135    1
  142   135   136    1
  143   135   137    1
  144   133   138    1
  145   138   139    1
@<TRIPOS>SUBSTRUCTURE
       1 MOL1            1 RESIDUE      1      MOL     
       2 MOL1          139 RESIDUE      1      MOL     
@<SCITEGIC>MOL_PROPERTY
feprocess Rank
SciTegic.value.IntegerValue
189

@<SCITEGIC>MOL_PROPERTY
Conf_Id
SciTegic.value.IntegerValue
655

@<SCITEGIC>MOL_PROPERTY
Probability
SciTegic.value.DoubleValue
0.00

@<SCITEGIC>MOL_PROPERTY
G
SciTegic.value.DoubleValue
550.822

@<SCITEGIC>MOL_PROPERTY
E
SciTegic.value.DoubleValue
372.051

@<SCITEGIC>MOL_PROPERTY
-TS
SciTegic.value.DoubleValue
178.772

@<SCITEGIC>MOL_PROPERTY
U+W
SciTegic.value.DoubleValue
249.539

@<SCITEGIC>MOL_PROPERTY
U
SciTegic.value.DoubleValue
284.650

@<SCITEGIC>MOL_PROPERTY
W
SciTegic.value.DoubleValue
-35.111

@<SCITEGIC>MOL_PROPERTY
W(PB)
SciTegic.value.DoubleValue
-41.048

@<SCITEGIC>MOL_PROPERTY
W(SA)
SciTegic.value.DoubleValue
5.937

@<SCITEGIC>MOL_PROPERTY
Valence
SciTegic.value.DoubleValue
155.930

@<SCITEGIC>MOL_PROPERTY
Coulomb
SciTegic.value.DoubleValue
151.586

@<SCITEGIC>MOL_PROPERTY
VdW
SciTegic.value.DoubleValue
-22.866

@<SCITEGIC>MOL_PROPERTY
VdW6
SciTegic.value.DoubleValue
-171.087

@<SCITEGIC>MOL_PROPERTY
VdW12
SciTegic.value.DoubleValue
148.221

@<SCITEGIC>MOL_PROPERTY
Bond
SciTegic.value.DoubleValue
4.539

@<SCITEGIC>MOL_PROPERTY
Angle
SciTegic.value.DoubleValue
10.996

@<SCITEGIC>MOL_PROPERTY
Pdih
SciTegic.value.DoubleValue
140.395

@<SCITEGIC>MOL_PROPERTY
Idih
SciTegic.value.DoubleValue
0.000

@<SCITEGIC>MOL_PROPERTY
Tether
SciTegic.value.DoubleValue
0.000

@<TRIPOS>MOLECULE
CD_guest-s16_fast_vm2_rndm.mol2 : feprocess host+ligand conformer 190
         139         145           2
SMALL
USER_CHARGES
 
@<TRIPOS>ATOM
       1    C1      16.218548   15.345583   20.533243 C.3        1 MOL1         0.2972
       2    H1      15.200298   15.270509   20.130230 H          1 MOL1         0.0751
       3    O1      16.441167   16.609323   21.186379 O.3        1 MOL1        -0.3740
       4    C2      16.491976   14.217738   21.561483 C.3        1 MOL1         0.1003
       5    H2      16.343682   13.260599   21.044859 H          1 MOL1         0.0783
       6    O2      15.583549   14.301328   22.671974 O.3        1 MOL1        -0.5519
       7    H3      15.600207   15.236747   22.998413 H          1 MOL1         0.3769
       8    C3      17.957168   14.268701   22.061865 C.3        1 MOL1         0.1053
       9    H4      18.077688   15.180042   22.662406 H          1 MOL1         0.0783
      10    O3      18.225269   13.118860   22.871988 O.3        1 MOL1        -0.5519
      11    H5      17.458262   13.049636   23.482652 H          1 MOL1         0.3769
      12    C4      18.964907   14.329366   20.885203 C.3        1 MOL1         0.1018
      13    H6      18.986331   13.344095   20.401307 H          1 MOL1         0.0783
      14    C5      18.568430   15.418263   19.844323 C.3        1 MOL1         0.1043
      15    H7      18.681351   16.403539   20.314409 H          1 MOL1         0.0783
      16    O4      17.183891   15.222309   19.468186 O.3        1 MOL1        -0.3740
      17    C6      19.405943   15.442923   18.540552 C.3        1 MOL1         0.0138
      18    H8      20.267583   16.103217   18.690909 H          1 MOL1         0.0794
      19    H9      18.798747   15.897268   17.746220 H          1 MOL1         0.0794
      20    O5      19.855656   14.147706   18.129609 O.3        1 MOL1        -0.5486
      21    H10     20.704319   13.984909   18.601049 H          1 MOL1         0.3769
      22    C7      14.712756   20.272255   21.903892 C.3        1 MOL1         0.2972
      23    H11     14.059974   21.137200   22.078729 H          1 MOL1         0.0751
      24    O6      16.097067   20.657805   21.811898 O.3        1 MOL1        -0.3740
      25    C8      14.572041   19.262115   23.067647 C.3        1 MOL1         0.1003
      26    H12     13.530050   18.917045   23.085464 H          1 MOL1         0.0783
      27    O7      14.887706   19.891957   24.319811 O.3        1 MOL1        -0.5519
      28    H13     15.460098   20.671908   24.113502 H          1 MOL1         0.3769
      29    C9      15.481608   18.033722   22.836403 C.3        1 MOL1         0.1053
      30    H14     16.522176   18.368794   22.915259 H          1 MOL1         0.0783
      31    O8      15.220523   17.044530   23.837706 O.3        1 MOL1        -0.5519
      32    H15     15.205032   17.541942   24.685704 H          1 MOL1         0.3769
      33    C10     15.276959   17.421722   21.429196 C.3        1 MOL1         0.1018
      34    H16     14.353569   16.827356   21.440744 H          1 MOL1         0.0783
      35    C11     15.216648   18.491207   20.299634 C.3        1 MOL1         0.1043
      36    H17     16.236828   18.864165   20.146393 H          1 MOL1         0.0783
      37    O9      14.358695   19.599493   20.678528 O.3        1 MOL1        -0.3740
      38    C12     14.723784   17.939103   18.940571 C.3        1 MOL1         0.0138
      39    H18     15.508089   17.296665   18.518208 H          1 MOL1         0.0794
      40    H19     14.586662   18.781352   18.249031 H          1 MOL1         0.0794
      41    O10     13.504589   17.197529   19.070025 O.3        1 MOL1        -0.5486
      42    H20     13.208871   16.949977   18.166788 H          1 MOL1         0.3769
      43    C13     18.498470   24.030621   21.254175 C.3        1 MOL1         0.2972
      44    H21     18.840155   25.051016   21.038005 H          1 MOL1         0.0751
      45    O11     19.608980   23.148620   21.514008 O.3        1 MOL1        -0.3740
      46    C14     17.599696   24.042286   22.516831 C.3        1 MOL1         0.1003
      47    H22     16.757642   24.718459   22.319683 H          1 MOL1         0.0783
      48    O12     18.342058   24.522951   23.648552 O.3        1 MOL1        -0.5519
      49    H23     19.286457   24.283405   23.486854 H          1 MOL1         0.3769
      50    C15     17.027092   22.634225   22.804664 C.3        1 MOL1         0.1053
      51    H24     17.862130   21.980466   23.089122 H          1 MOL1         0.0783
      52    O13     16.082022   22.705087   23.877200 O.3        1 MOL1        -0.5519
      53    H25     16.514911   23.262949   24.561617 H          1 MOL1         0.3769
      54    C16     16.354041   22.046450   21.541311 C.3        1 MOL1         0.1018
      55    H26     15.432231   22.606864   21.336475 H          1 MOL1         0.0783
      56    C17     17.289149   22.128467   20.304708 C.3        1 MOL1         0.1043
      57    H27     18.154756   21.479590   20.490539 H          1 MOL1         0.0783
      58    O14     17.741677   23.497041   20.144319 O.3        1 MOL1        -0.3740
      59    C18     16.646502   21.658855   18.972867 C.3        1 MOL1         0.0138
      60    H28     16.826193   20.582665   18.859793 H          1 MOL1         0.0794
      61    H29     17.163161   22.154495   18.140133 H          1 MOL1         0.0794
      62    O15     15.239796   21.918329   18.899215 O.3        1 MOL1        -0.5486
      63    H30     14.791898   21.247889   19.466174 H          1 MOL1         0.3769
      64    C19     23.636055   22.578718   20.617083 C.3        1 MOL1         0.2972
      65    H31     24.662873   22.642872   20.234334 H          1 MOL1         0.0751
      66    O16     23.386919   21.320051   21.269956 O.3        1 MOL1        -0.3740
      67    C20     23.334210   23.720983   21.622701 C.3        1 MOL1         0.1003
      68    H32     23.447480   24.669563   21.081898 H          1 MOL1         0.0783
      69    O17     24.247750   23.702393   22.730760 O.3        1 MOL1        -0.5519
      70    H33     24.204931   22.799119   23.135667 H          1 MOL1         0.3769
      71    C21     21.871369   23.629250   22.124646 C.3        1 MOL1         0.1053
      72    H34     21.774040   22.715805   22.726812 H          1 MOL1         0.0783
      73    O18     21.566458   24.771399   22.931994 O.3        1 MOL1        -0.5519
      74    H35     22.338183   24.876654   23.531741 H          1 MOL1         0.3769
      75    C22     20.872740   23.541467   20.942185 C.3        1 MOL1         0.1018
      76    H36     20.821729   24.529558   20.466350 H          1 MOL1         0.0783
      77    C23     21.299515   22.482249   19.883912 C.3        1 MOL1         0.1043
      78    H37     21.188093   21.485606   20.328039 H          1 MOL1         0.0783
      79    O19     22.689691   22.697038   19.532389 O.3        1 MOL1        -0.3740
      80    C24     20.467090   22.477938   18.575959 C.3        1 MOL1         0.0138
      81    H38     19.613148   21.803169   18.708643 H          1 MOL1         0.0794
      82    H39     21.082917   22.051190   17.773047 H          1 MOL1         0.0794
      83    O20     19.998630   23.776173   18.195219 O.3        1 MOL1        -0.5486
      84    H40     19.187495   23.950823   18.726469 H          1 MOL1         0.3769
      85    C25     24.904224   17.704657   22.425939 C.3        1 MOL1         0.2972
      86    H41     25.510393   16.845373   22.741443 H          1 MOL1         0.0751
      87    O21     23.537845   17.300051   22.167078 O.3        1 MOL1        -0.3740
      88    C26     24.963102   18.799066   23.524763 C.3        1 MOL1         0.1003
      89    H42     26.016312   19.093583   23.620819 H          1 MOL1         0.0783
      90    O22     24.506265   18.305022   24.793615 O.3        1 MOL1        -0.5519
      91    H43     23.554153   18.066467   24.692408 H          1 MOL1         0.3769
      92    C27     24.163077   20.054901   23.118467 C.3        1 MOL1         0.1053
      93    H44     23.102678   19.788942   23.115323 H          1 MOL1         0.0783
      94    O23     24.386182   21.096997   24.073459 O.3        1 MOL1        -0.5519
      95    H45     24.290971   20.664564   24.951390 H          1 MOL1         0.3769
      96    C28     24.526875   20.553536   21.700581 C.3        1 MOL1         0.1018
      97    H46     25.442050   21.157928   21.757017 H          1 MOL1         0.0783
      98    C29     24.689416   19.403403   20.667882 C.3        1 MOL1         0.1043
      99    H47     23.678877   19.063823   20.419529 H          1 MOL1         0.0783
     100    O24     25.435958   18.283831   21.214947 O.3        1 MOL1        -0.3740
     101    C30     25.361932   19.851318   19.347704 C.3        1 MOL1         0.0138
     102    H48     24.663988   20.501952   18.803598 H          1 MOL1         0.0794
     103    H49     25.536774   18.967023   18.720604 H          1 MOL1         0.0794
     104    O25     26.592701   20.546326   19.580662 O.3        1 MOL1        -0.5486
     105    H50     27.002592   20.728794   18.706934 H          1 MOL1         0.3769
     106    C31     21.372805   13.880882   21.074182 C.3        1 MOL1         0.2972
     107    H51     21.067959   12.893270   20.705216 H          1 MOL1         0.0751
     108    O26     20.235724   14.667010   21.478197 O.3        1 MOL1        -0.3740
     109    C32     22.289039   13.716852   22.309459 C.3        1 MOL1         0.1003
     110    H52     23.159879   13.123398   22.001814 H          1 MOL1         0.0783
     111    O27     21.584064   13.027169   23.353875 O.3        1 MOL1        -0.5519
     112    H53     20.644541   13.327024   23.302169 H          1 MOL1         0.3769
     113    C33     22.796181   15.088393   22.816990 C.3        1 MOL1         0.1053
     114    H54     21.937146   15.623533   23.240560 H          1 MOL1         0.0783
     115    O28     23.782434   14.872396   23.829352 O.3        1 MOL1        -0.5519
     116    H55     23.374096   14.238165   24.458560 H          1 MOL1         0.3769
     117    C34     23.394859   15.945589   21.669618 C.3        1 MOL1         0.1018
     118    H56     24.364823   15.511170   21.393519 H          1 MOL1         0.0783
     119    C35     22.479978   15.962054   20.408960 C.3        1 MOL1         0.1043
     120    H57     21.577399   16.539768   20.646099 H          1 MOL1         0.0783
     121    O29     22.104206   14.604491   20.064514 O.3        1 MOL1        -0.3740
     122    C36     23.115575   16.595294   19.143202 C.3        1 MOL1         0.0138
     123    H58     22.879753   17.664948   19.124646 H          1 MOL1         0.0794
     124    H59     22.634412   16.160386   18.257005 H          1 MOL1         0.0794
     125    O30     24.532766   16.400633   19.062784 O.3        1 MOL1        -0.5486
     126    H60     24.948146   16.935345   19.779391 H          1 MOL1         0.3769
     127    C1      19.087618   19.090635   22.143463 C.3        1 MOL1        -0.1693
     128    H1      18.375344   19.768041   22.626137 H          1 MOL1         0.0829
     129    H2      18.773945   18.926628   21.106280 H          1 MOL1         0.0829
     130    C2      19.420957   17.810285   22.974326 C.3        1 MOL1        -0.1768
     131    H3      18.610663   17.405097   23.589651 H          1 MOL1         0.0829
     132    H4      19.866437   16.996053   22.397406 H          1 MOL1         0.0829
     133    C3      20.449586   18.708400   23.719430 C.3        1 MOL1         0.1211
     134    H5      20.011786   19.306542   24.529776 H          1 MOL1         0.0786
     135    C4      20.584248   19.473320   22.366984 C.3        1 MOL1        -0.1768
     136    H6      21.282825   19.028803   21.648254 H          1 MOL1         0.0829
     137    H7      20.796814   20.543533   22.453077 H          1 MOL1         0.0829
     138    O1      21.610070   18.047419   24.161016 O.3        1 MOL1        -0.5515
     139    H8      22.012748   17.635756   23.365455 H          1 MOL1         0.3773
@<TRIPOS>BOND
    1     1     2    1
    2     1     3    1
    3     1     4    1
    4     4     5    1
    5     4     6    1
    6     6     7    1
    7     4     8    1
    8     8     9    1
    9     8    10    1
   10    10    11    1
   11     8    12    1
   12    12    13    1
   13    12    14    1
   14    14    15    1
   15     1    16    1
   16    14    16    1
   17    14    17    1
   18    17    18    1
   19    17    19    1
   20    17    20    1
   21    20    21    1
   22    22    23    1
   23    22    24    1
   24    22    25    1
   25    25    26    1
   26    25    27    1
   27    27    28    1
   28    25    29    1
   29    29    30    1
   30    29    31    1
   31    31    32    1
   32     3    33    1
   33    29    33    1
   34    33    34    1
   35    33    35    1
   36    35    36    1
   37    22    37    1
   38    35    37    1
   39    35    38    1
   40    38    39    1
   41    38    40    1
   42    38    41    1
   43    41    42    1
   44    43    44    1
   45    43    45    1
   46    43    46    1
   47    46    47    1
   48    46    48    1
   49    48    49    1
   50    46    50    1
   51    50    51    1
   52    50    52    1
   53    52    53    1
   54    24    54    1
   55    50    54    1
   56    54    55    1
   57    54    56    1
   58    56    57    1
   59    43    58    1
   60    56    58    1
   61    56    59    1
   62    59    60    1
   63    59    61    1
   64    59    62    1
   65    62    63    1
   66    64    65    1
   67    64    66    1
   68    64    67    1
   69    67    68    1
   70    67    69    1
   71    69    70    1
   72    67    71    1
   73    71    72    1
   74    71    73    1
   75    73    74    1
   76    45    75    1
   77    71    75    1
   78    75    76    1
   79    75    77    1
   80    77    78    1
   81    64    79    1
   82    77    79    1
   83    77    80    1
   84    80    81    1
   85    80    82    1
   86    80    83    1
   87    83    84    1
   88    85    86    1
   89    85    87    1
   90    85    88    1
   91    88    89    1
   92    88    90    1
   93    90    91    1
   94    88    92    1
   95    92    93    1
   96    92    94    1
   97    94    95    1
   98    66    96    1
   99    92    96    1
  100    96    97    1
  101    96    98    1
  102    98    99    1
  103    85   100    1
  104    98   100    1
  105    98   101    1
  106   101   102    1
  107   101   103    1
  108   101   104    1
  109   104   105    1
  110   106   107    1
  111    12   108    1
  112   106   108    1
  113   106   109    1
  114   109   110    1
  115   109   111    1
  116   111   112    1
  117   109   113    1
  118   113   114    1
  119   113   115    1
  120   115   116    1
  121    87   117    1
  122   113   117    1
  123   117   118    1
  124   117   119    1
  125   119   120    1
  126   106   121    1
  127   119   121    1
  128   119   122    1
  129   122   123    1
  130   122   124    1
  131   122   125    1
  132   125   126    1
  133   127   128    1
  134   127   129    1
  135   127   130    1
  136   130   131    1
  137   130   132    1
  138   130   133    1
  139   133   134    1
  140   127   135    1
  141   133   135    1
  142   135   136    1
  143   135   137    1
  144   133   138    1
  145   138   139    1
@<TRIPOS>SUBSTRUCTURE
       1 MOL1            1 RESIDUE      1      MOL     
       2 MOL1          139 RESIDUE      1      MOL     
@<SCITEGIC>MOL_PROPERTY
feprocess Rank
SciTegic.value.IntegerValue
190

@<SCITEGIC>MOL_PROPERTY
Conf_Id
SciTegic.value.IntegerValue
329

@<SCITEGIC>MOL_PROPERTY
Probability
SciTegic.value.DoubleValue
0.00

@<SCITEGIC>MOL_PROPERTY
G
SciTegic.value.DoubleValue
550.836

@<SCITEGIC>MOL_PROPERTY
E
SciTegic.value.DoubleValue
371.482

@<SCITEGIC>MOL_PROPERTY
-TS
SciTegic.value.DoubleValue
179.353

@<SCITEGIC>MOL_PROPERTY
U+W
SciTegic.value.DoubleValue
248.971

@<SCITEGIC>MOL_PROPERTY
U
SciTegic.value.DoubleValue
286.515

@<SCITEGIC>MOL_PROPERTY
W
SciTegic.value.DoubleValue
-37.543

@<SCITEGIC>MOL_PROPERTY
W(PB)
SciTegic.value.DoubleValue
-43.488

@<SCITEGIC>MOL_PROPERTY
W(SA)
SciTegic.value.DoubleValue
5.944

@<SCITEGIC>MOL_PROPERTY
Valence
SciTegic.value.DoubleValue
154.559

@<SCITEGIC>MOL_PROPERTY
Coulomb
SciTegic.value.DoubleValue
153.888

@<SCITEGIC>MOL_PROPERTY
VdW
SciTegic.value.DoubleValue
-21.932

@<SCITEGIC>MOL_PROPERTY
VdW6
SciTegic.value.DoubleValue
-170.844

@<SCITEGIC>MOL_PROPERTY
VdW12
SciTegic.value.DoubleValue
148.912

@<SCITEGIC>MOL_PROPERTY
Bond
SciTegic.value.DoubleValue
4.708

@<SCITEGIC>MOL_PROPERTY
Angle
SciTegic.value.DoubleValue
12.319

@<SCITEGIC>MOL_PROPERTY
Pdih
SciTegic.value.DoubleValue
137.531

@<SCITEGIC>MOL_PROPERTY
Idih
SciTegic.value.DoubleValue
0.000

@<SCITEGIC>MOL_PROPERTY
Tether
SciTegic.value.DoubleValue
0.000

@<TRIPOS>MOLECULE
CD_guest-s16_fast_vm2_rndm.mol2 : feprocess host+ligand conformer 191
         139         145           2
SMALL
USER_CHARGES
 
@<TRIPOS>ATOM
       1    C1      16.267282   15.303111   21.945564 C.3        1 MOL1         0.2972
       2    H1      15.178471   15.253932   22.076383 H          1 MOL1         0.0751
       3    O1      16.694880   16.668249   21.721675 O.3        1 MOL1        -0.3740
       4    C2      16.959821   14.703926   23.199140 C.3        1 MOL1         0.1003
       5    H2      16.630646   13.659512   23.276265 H          1 MOL1         0.0783
       6    O2      16.580625   15.399706   24.396988 O.3        1 MOL1        -0.5519
       7    H3      16.907070   16.327406   24.313255 H          1 MOL1         0.3769
       8    C3      18.495382   14.702981   23.049242 C.3        1 MOL1         0.1053
       9    H4      18.829360   15.743867   23.078133 H          1 MOL1         0.0783
      10    O3      19.095656   13.983851   24.132214 O.3        1 MOL1        -0.5519
      11    H5      18.648489   14.316522   24.941821 H          1 MOL1         0.3769
      12    C4      18.959213   14.093815   21.707411 C.3        1 MOL1         0.1018
      13    H6      18.975724   12.999962   21.802769 H          1 MOL1         0.0783
      14    C5      18.092604   14.529618   20.492500 C.3        1 MOL1         0.1043
      15    H7      18.388672   15.554082   20.250592 H          1 MOL1         0.0783
      16    O4      16.674475   14.515985   20.805091 O.3        1 MOL1        -0.3740
      17    C6      18.324928   13.671861   19.224562 C.3        1 MOL1         0.0138
      18    H8      19.318275   13.906536   18.819372 H          1 MOL1         0.0794
      19    H9      17.589398   13.959761   18.461792 H          1 MOL1         0.0794
      20    O5      18.230176   12.269059   19.499160 O.3        1 MOL1        -0.5486
      21    H10     18.308565   11.791678   18.644342 H          1 MOL1         0.3769
      22    C7      15.066301   20.274912   20.323950 C.3        1 MOL1         0.2972
      23    H11     14.485457   21.037651   19.789274 H          1 MOL1         0.0751
      24    O6      16.130286   20.856134   21.097660 O.3        1 MOL1        -0.3740
      25    C8      14.166212   19.485967   21.305999 C.3        1 MOL1         0.1003
      26    H12     13.358958   19.029758   20.718365 H          1 MOL1         0.0783
      27    O7      13.599944   20.369840   22.288427 O.3        1 MOL1        -0.5519
      28    H13     14.328884   20.960396   22.604512 H          1 MOL1         0.3769
      29    C9      14.955995   18.347300   22.002260 C.3        1 MOL1         0.1053
      30    H14     15.672024   18.809210   22.694728 H          1 MOL1         0.0783
      31    O8      14.034614   17.530549   22.729616 O.3        1 MOL1        -0.5519
      32    H15     13.495524   18.156971   23.260732 H          1 MOL1         0.3769
      33    C10     15.748900   17.480900   20.983945 C.3        1 MOL1         0.1018
      34    H16     15.030773   16.859424   20.432751 H          1 MOL1         0.0783
      35    C11     16.536783   18.351917   19.962700 C.3        1 MOL1         0.1043
      36    H17     17.352788   18.860734   20.489974 H          1 MOL1         0.0783
      37    O9      15.643121   19.336645   19.393407 O.3        1 MOL1        -0.3740
      38    C12     17.173924   17.568608   18.787104 C.3        1 MOL1         0.0138
      39    H18     18.178276   17.245369   19.083896 H          1 MOL1         0.0794
      40    H19     17.309730   18.257679   17.942776 H          1 MOL1         0.0794
      41    O10     16.391703   16.441053   18.372721 O.3        1 MOL1        -0.5486
      42    H20     16.350945   15.810771   19.128258 H          1 MOL1         0.3769
      43    C13     18.392854   24.252825   21.522904 C.3        1 MOL1         0.2972
      44    H21     18.812631   25.265638   21.569949 H          1 MOL1         0.0751
      45    O11     19.387519   23.247036   21.801473 O.3        1 MOL1        -0.3740
      46    C14     17.260270   24.109995   22.566818 C.3        1 MOL1         0.1003
      47    H22     16.480761   24.841156   22.316069 H          1 MOL1         0.0783
      48    O12     17.763407   24.378717   23.885622 O.3        1 MOL1        -0.5519
      49    H23     18.703021   24.068331   23.904899 H          1 MOL1         0.3769
      50    C15     16.633413   22.698584   22.505766 C.3        1 MOL1         0.1053
      51    H24     17.380893   21.988755   22.876391 H          1 MOL1         0.0783
      52    O13     15.472732   22.644527   23.342567 O.3        1 MOL1        -0.5519
      53    H25     15.752188   23.048950   24.193768 H          1 MOL1         0.3769
      54    C16     16.251079   22.290103   21.061690 C.3        1 MOL1         0.1018
      55    H26     15.300463   22.777474   20.807733 H          1 MOL1         0.0783
      56    C17     17.339630   22.647290   20.006550 C.3        1 MOL1         0.1043
      57    H27     18.167805   21.936254   20.124511 H          1 MOL1         0.0783
      58    O14     17.838016   23.993093   20.218619 O.3        1 MOL1        -0.3740
      59    C18     16.850157   22.542411   18.541824 C.3        1 MOL1         0.0138
      60    H28     16.734943   21.481384   18.284602 H          1 MOL1         0.0794
      61    H29     17.627202   22.952412   17.882893 H          1 MOL1         0.0794
      62    O15     15.610474   23.230844   18.335295 O.3        1 MOL1        -0.5486
      63    H30     15.398226   23.181683   17.377716 H          1 MOL1         0.3769
      64    C19     23.545326   22.746984   21.789290 C.3        1 MOL1         0.2972
      65    H31     24.623981   22.942099   21.735635 H          1 MOL1         0.0751
      66    O16     23.267298   21.340489   21.928863 O.3        1 MOL1        -0.3740
      67    C20     22.945351   23.472362   23.020590 C.3        1 MOL1         0.1003
      68    H32     23.156023   24.543866   22.908519 H          1 MOL1         0.0783
      69    O17     23.554149   22.993627   24.230779 O.3        1 MOL1        -0.5519
      70    H33     23.858508   22.068779   24.053867 H          1 MOL1         0.3769
      71    C21     21.410014   23.291263   23.078869 C.3        1 MOL1         0.1053
      72    H34     21.197856   22.231963   23.274115 H          1 MOL1         0.0783
      73    O18     20.868534   24.097115   24.131356 O.3        1 MOL1        -0.5519
      74    H35     21.454538   23.932602   24.903496 H          1 MOL1         0.3769
      75    C22     20.759699   23.678275   21.729974 C.3        1 MOL1         0.1018
      76    H36     20.846420   24.765548   21.604351 H          1 MOL1         0.0783
      77    C23     21.452851   22.963638   20.536655 C.3        1 MOL1         0.1043
      78    H37     21.273859   21.887188   20.636944 H          1 MOL1         0.0783
      79    O19     22.880243   23.218326   20.595622 O.3        1 MOL1        -0.3740
      80    C24     20.935739   23.374259   19.134299 C.3        1 MOL1         0.0138
      81    H38     20.063196   22.755220   18.890188 H          1 MOL1         0.0794
      82    H39     21.710873   23.138578   18.392916 H          1 MOL1         0.0794
      83    O20     20.577757   24.757453   19.047138 O.3        1 MOL1        -0.5486
      84    H40     19.643052   24.825233   19.348657 H          1 MOL1         0.3769
      85    C25     25.036576   17.605771   21.282246 C.3        1 MOL1         0.2972
      86    H41     25.750219   16.812768   21.024724 H          1 MOL1         0.0751
      87    O21     23.752787   17.061337   21.649281 O.3        1 MOL1        -0.3740
      88    C26     25.567594   18.406992   22.497571 C.3        1 MOL1         0.1003
      89    H42     26.547970   18.817746   22.223222 H          1 MOL1         0.0783
      90    O22     25.713806   17.541343   23.634659 O.3        1 MOL1        -0.5519
      91    H43     25.010064   16.852084   23.556511 H          1 MOL1         0.3769
      92    C27     24.629091   19.589643   22.836542 C.3        1 MOL1         0.1053
      93    H44     23.680244   19.175755   23.202114 H          1 MOL1         0.0783
      94    O23     25.224760   20.403461   23.852286 O.3        1 MOL1        -0.5519
      95    H45     25.548584   19.769490   24.530440 H          1 MOL1         0.3769
      96    C28     24.338049   20.443203   21.578989 C.3        1 MOL1         0.1018
      97    H46     25.255340   20.979727   21.302821 H          1 MOL1         0.0783
      98    C29     23.878222   19.562965   20.384425 C.3        1 MOL1         0.1043
      99    H47     22.914349   19.109513   20.645007 H          1 MOL1         0.0783
     100    O24     24.852735   18.510689   20.170236 O.3        1 MOL1        -0.3740
     101    C30     23.671155   20.328643   19.052029 C.3        1 MOL1         0.0138
     102    H48     22.647176   20.722560   19.033317 H          1 MOL1         0.0794
     103    H49     23.753833   19.615680   18.221024 H          1 MOL1         0.0794
     104    O25     24.598242   21.403660   18.867550 O.3        1 MOL1        -0.5486
     105    H50     24.240209   22.174796   19.364915 H          1 MOL1         0.3769
     106    C31     21.268509   13.783996   20.927094 C.3        1 MOL1         0.2972
     107    H51     20.842426   12.826682   20.599899 H          1 MOL1         0.0751
     108    O26     20.271887   14.645098   21.502715 O.3        1 MOL1        -0.3740
     109    C32     22.365763   13.568943   22.001039 C.3        1 MOL1         0.1003
     110    H52     23.143730   12.934724   21.556599 H          1 MOL1         0.0783
     111    O27     21.821349   12.915465   23.160031 O.3        1 MOL1        -0.5519
     112    H53     20.991190   13.395988   23.405927 H          1 MOL1         0.3769
     113    C33     23.015068   14.917290   22.404982 C.3        1 MOL1         0.1053
     114    H54     22.264295   15.504926   22.949454 H          1 MOL1         0.0783
     115    O28     24.140218   14.672997   23.255960 O.3        1 MOL1        -0.5519
     116    H55     23.825569   14.018075   23.917957 H          1 MOL1         0.3769
     117    C34     23.461877   15.734516   21.166034 C.3        1 MOL1         0.1018
     118    H56     24.347315   15.247436   20.736926 H          1 MOL1         0.0783
     119    C35     22.342596   15.819529   20.088683 C.3        1 MOL1         0.1043
     120    H57     21.522283   16.427225   20.490575 H          1 MOL1         0.0783
     121    O29     21.860091   14.482106   19.810261 O.3        1 MOL1        -0.3740
     122    C36     22.757783   16.468632   18.743996 C.3        1 MOL1         0.0138
     123    H58     22.601918   17.551475   18.817669 H          1 MOL1         0.0794
     124    H59     22.081243   16.105549   17.958837 H          1 MOL1         0.0794
     125    O30     24.116503   16.202518   18.380492 O.3        1 MOL1        -0.5486
     126    H60     24.664959   16.887463   18.827273 H          1 MOL1         0.3769
     127    C1      20.569611   19.456127   22.302109 C.3        1 MOL1        -0.1693
     128    H1      21.442295   19.670753   22.929822 H          1 MOL1         0.0829
     129    H2      20.776290   19.781629   21.278031 H          1 MOL1         0.0829
     130    C2      19.211179   19.928353   22.907395 C.3        1 MOL1        -0.1768
     131    H3      19.249935   20.827452   23.531050 H          1 MOL1         0.0829
     132    H4      18.403085   20.036651   22.177924 H          1 MOL1         0.0829
     133    C3      19.217696   18.577333   23.679356 C.3        1 MOL1         0.1211
     134    H5      19.801660   18.601710   24.609033 H          1 MOL1         0.0786
     135    C4      19.999316   18.012032   22.454658 C.3        1 MOL1        -0.1768
     136    H6      20.732256   17.232099   22.682530 H          1 MOL1         0.0829
     137    H7      19.373842   17.676874   21.619189 H          1 MOL1         0.0829
     138    O1      17.950339   18.008660   23.903840 O.3        1 MOL1        -0.5515
     139    H8      17.545049   17.877662   23.019242 H          1 MOL1         0.3773
@<TRIPOS>BOND
    1     1     2    1
    2     1     3    1
    3     1     4    1
    4     4     5    1
    5     4     6    1
    6     6     7    1
    7     4     8    1
    8     8     9    1
    9     8    10    1
   10    10    11    1
   11     8    12    1
   12    12    13    1
   13    12    14    1
   14    14    15    1
   15     1    16    1
   16    14    16    1
   17    14    17    1
   18    17    18    1
   19    17    19    1
   20    17    20    1
   21    20    21    1
   22    22    23    1
   23    22    24    1
   24    22    25    1
   25    25    26    1
   26    25    27    1
   27    27    28    1
   28    25    29    1
   29    29    30    1
   30    29    31    1
   31    31    32    1
   32     3    33    1
   33    29    33    1
   34    33    34    1
   35    33    35    1
   36    35    36    1
   37    22    37    1
   38    35    37    1
   39    35    38    1
   40    38    39    1
   41    38    40    1
   42    38    41    1
   43    41    42    1
   44    43    44    1
   45    43    45    1
   46    43    46    1
   47    46    47    1
   48    46    48    1
   49    48    49    1
   50    46    50    1
   51    50    51    1
   52    50    52    1
   53    52    53    1
   54    24    54    1
   55    50    54    1
   56    54    55    1
   57    54    56    1
   58    56    57    1
   59    43    58    1
   60    56    58    1
   61    56    59    1
   62    59    60    1
   63    59    61    1
   64    59    62    1
   65    62    63    1
   66    64    65    1
   67    64    66    1
   68    64    67    1
   69    67    68    1
   70    67    69    1
   71    69    70    1
   72    67    71    1
   73    71    72    1
   74    71    73    1
   75    73    74    1
   76    45    75    1
   77    71    75    1
   78    75    76    1
   79    75    77    1
   80    77    78    1
   81    64    79    1
   82    77    79    1
   83    77    80    1
   84    80    81    1
   85    80    82    1
   86    80    83    1
   87    83    84    1
   88    85    86    1
   89    85    87    1
   90    85    88    1
   91    88    89    1
   92    88    90    1
   93    90    91    1
   94    88    92    1
   95    92    93    1
   96    92    94    1
   97    94    95    1
   98    66    96    1
   99    92    96    1
  100    96    97    1
  101    96    98    1
  102    98    99    1
  103    85   100    1
  104    98   100    1
  105    98   101    1
  106   101   102    1
  107   101   103    1
  108   101   104    1
  109   104   105    1
  110   106   107    1
  111    12   108    1
  112   106   108    1
  113   106   109    1
  114   109   110    1
  115   109   111    1
  116   111   112    1
  117   109   113    1
  118   113   114    1
  119   113   115    1
  120   115   116    1
  121    87   117    1
  122   113   117    1
  123   117   118    1
  124   117   119    1
  125   119   120    1
  126   106   121    1
  127   119   121    1
  128   119   122    1
  129   122   123    1
  130   122   124    1
  131   122   125    1
  132   125   126    1
  133   127   128    1
  134   127   129    1
  135   127   130    1
  136   130   131    1
  137   130   132    1
  138   130   133    1
  139   133   134    1
  140   127   135    1
  141   133   135    1
  142   135   136    1
  143   135   137    1
  144   133   138    1
  145   138   139    1
@<TRIPOS>SUBSTRUCTURE
       1 MOL1            1 RESIDUE      1      MOL     
       2 MOL1          139 RESIDUE      1      MOL     
@<SCITEGIC>MOL_PROPERTY
feprocess Rank
SciTegic.value.IntegerValue
191

@<SCITEGIC>MOL_PROPERTY
Conf_Id
SciTegic.value.IntegerValue
666

@<SCITEGIC>MOL_PROPERTY
Probability
SciTegic.value.DoubleValue
0.00

@<SCITEGIC>MOL_PROPERTY
G
SciTegic.value.DoubleValue
550.998

@<SCITEGIC>MOL_PROPERTY
E
SciTegic.value.DoubleValue
372.266

@<SCITEGIC>MOL_PROPERTY
-TS
SciTegic.value.DoubleValue
178.732

@<SCITEGIC>MOL_PROPERTY
U+W
SciTegic.value.DoubleValue
249.755

@<SCITEGIC>MOL_PROPERTY
U
SciTegic.value.DoubleValue
287.323

@<SCITEGIC>MOL_PROPERTY
W
SciTegic.value.DoubleValue
-37.568

@<SCITEGIC>MOL_PROPERTY
W(PB)
SciTegic.value.DoubleValue
-43.536

@<SCITEGIC>MOL_PROPERTY
W(SA)
SciTegic.value.DoubleValue
5.967

@<SCITEGIC>MOL_PROPERTY
Valence
SciTegic.value.DoubleValue
154.498

@<SCITEGIC>MOL_PROPERTY
Coulomb
SciTegic.value.DoubleValue
155.561

@<SCITEGIC>MOL_PROPERTY
VdW
SciTegic.value.DoubleValue
-22.737

@<SCITEGIC>MOL_PROPERTY
VdW6
SciTegic.value.DoubleValue
-169.510

@<SCITEGIC>MOL_PROPERTY
VdW12
SciTegic.value.DoubleValue
146.773

@<SCITEGIC>MOL_PROPERTY
Bond
SciTegic.value.DoubleValue
4.605

@<SCITEGIC>MOL_PROPERTY
Angle
SciTegic.value.DoubleValue
11.795

@<SCITEGIC>MOL_PROPERTY
Pdih
SciTegic.value.DoubleValue
138.099

@<SCITEGIC>MOL_PROPERTY
Idih
SciTegic.value.DoubleValue
0.000

@<SCITEGIC>MOL_PROPERTY
Tether
SciTegic.value.DoubleValue
0.000

@<TRIPOS>MOLECULE
CD_guest-s16_fast_vm2_rndm.mol2 : feprocess host+ligand conformer 192
         139         145           2
SMALL
USER_CHARGES
 
@<TRIPOS>ATOM
       1    C1      16.191245   15.114831   21.633781 C.3        1 MOL1         0.2972
       2    H1      15.112333   14.992410   21.794992 H          1 MOL1         0.0751
       3    O1      16.568759   16.504279   21.580162 O.3        1 MOL1        -0.3740
       4    C2      16.973967   14.439122   22.783058 C.3        1 MOL1         0.1003
       5    H2      16.736677   13.367506   22.759566 H          1 MOL1         0.0783
       6    O2      16.582278   14.983964   24.053458 O.3        1 MOL1        -0.5519
       7    H3      16.135267   15.847979   23.872225 H          1 MOL1         0.3769
       8    C3      18.496973   14.597817   22.575335 C.3        1 MOL1         0.1053
       9    H4      18.740077   15.658788   22.700473 H          1 MOL1         0.0783
      10    O3      19.181804   13.836682   23.572684 O.3        1 MOL1        -0.5519
      11    H5      18.716419   14.051136   24.412705 H          1 MOL1         0.3769
      12    C4      18.943217   14.155669   21.154871 C.3        1 MOL1         0.1018
      13    H6      19.008683   13.060418   21.131491 H          1 MOL1         0.0783
      14    C5      17.992381   14.667000   20.032374 C.3        1 MOL1         0.1043
      15    H7      18.193482   15.737231   19.898189 H          1 MOL1         0.0783
      16    O4      16.598183   14.495306   20.397131 O.3        1 MOL1        -0.3740
      17    C6      18.224963   13.988401   18.660661 C.3        1 MOL1         0.0138
      18    H8      19.226925   14.255429   18.297994 H          1 MOL1         0.0794
      19    H9      17.502643   14.401469   17.943938 H          1 MOL1         0.0794
      20    O5      18.086889   12.562761   18.722318 O.3        1 MOL1        -0.5486
      21    H10     18.841548   12.200236   19.229934 H          1 MOL1         0.3769
      22    C7      14.769986   20.277711   21.268683 C.3        1 MOL1         0.2972
      23    H11     14.037626   21.073448   21.081672 H          1 MOL1         0.0751
      24    O6      16.052362   20.817053   21.639418 O.3        1 MOL1        -0.3740
      25    C8      14.286692   19.387753   22.442782 C.3        1 MOL1         0.1003
      26    H12     13.303409   18.983578   22.169026 H          1 MOL1         0.0783
      27    O7      14.161749   20.170099   23.641203 O.3        1 MOL1        -0.5519
      28    H13     14.829670   20.895968   23.577983 H          1 MOL1         0.3769
      29    C9      15.246644   18.195194   22.674190 C.3        1 MOL1         0.1053
      30    H14     16.207086   18.588591   23.034189 H          1 MOL1         0.0783
      31    O8      14.687600   17.312161   23.651739 O.3        1 MOL1        -0.5519
      32    H15     14.364328   17.900727   24.370440 H          1 MOL1         0.3769
      33    C10     15.497433   17.435972   21.349918 C.3        1 MOL1         0.1018
      34    H16     14.570276   16.930672   21.048148 H          1 MOL1         0.0783
      35    C11     15.936716   18.401391   20.217478 C.3        1 MOL1         0.1043
      36    H17     16.903549   18.840515   20.495864 H          1 MOL1         0.0783
      37    O9      14.947512   19.455064   20.092672 O.3        1 MOL1        -0.3740
      38    C12     16.126474   17.724298   18.834636 C.3        1 MOL1         0.0138
      39    H18     17.162637   17.371056   18.760601 H          1 MOL1         0.0794
      40    H19     15.992998   18.482094   18.051144 H          1 MOL1         0.0794
      41    O10     15.231497   16.627413   18.613448 O.3        1 MOL1        -0.5486
      42    H20     15.544478   15.877528   19.171206 H          1 MOL1         0.3769
      43    C13     18.463775   24.193130   21.204579 C.3        1 MOL1         0.2972
      44    H21     18.828019   25.201667   20.970984 H          1 MOL1         0.0751
      45    O11     19.529864   23.357194   21.708067 O.3        1 MOL1        -0.3740
      46    C14     17.362540   24.286135   22.291331 C.3        1 MOL1         0.1003
      47    H22     16.575903   24.947801   21.905851 H          1 MOL1         0.0783
      48    O12     17.904072   24.845598   23.498201 O.3        1 MOL1        -0.5519
      49    H23     18.830959   24.515374   23.573742 H          1 MOL1         0.3769
      50    C15     16.723448   22.905735   22.576797 C.3        1 MOL1         0.1053
      51    H24     17.468419   22.286028   23.087483 H          1 MOL1         0.0783
      52    O13     15.582329   23.068265   23.425220 O.3        1 MOL1        -0.5519
      53    H25     15.883897   23.657105   24.152238 H          1 MOL1         0.3769
      54    C16     16.306532   22.186094   21.271233 C.3        1 MOL1         0.1018
      55    H26     15.412085   22.682966   20.872997 H          1 MOL1         0.0783
      56    C17     17.436765   22.211247   20.204478 C.3        1 MOL1         0.1043
      57    H27     18.267333   21.597917   20.573449 H          1 MOL1         0.0783
      58    O14     17.896143   23.574388   20.030142 O.3        1 MOL1        -0.3740
      59    C18     17.040852   21.646756   18.815012 C.3        1 MOL1         0.0138
      60    H28     17.227445   20.565817   18.812282 H          1 MOL1         0.0794
      61    H29     17.701948   22.084556   18.055794 H          1 MOL1         0.0794
      62    O15     15.674904   21.896864   18.468811 O.3        1 MOL1        -0.5486
      63    H30     15.144670   21.173484   18.875336 H          1 MOL1         0.3769
      64    C19     23.640977   22.732844   21.208869 C.3        1 MOL1         0.2972
      65    H31     24.706353   22.822467   20.960292 H          1 MOL1         0.0751
      66    O16     23.304122   21.404578   21.652334 O.3        1 MOL1        -0.3740
      67    C20     23.246271   23.725550   22.331483 C.3        1 MOL1         0.1003
      68    H32     23.465916   24.738307   21.969487 H          1 MOL1         0.0783
      69    O17     24.003078   23.472686   23.526761 O.3        1 MOL1        -0.5519
      70    H33     23.930288   22.503740   23.721671 H          1 MOL1         0.3769
      71    C21     21.728655   23.638973   22.629434 C.3        1 MOL1         0.1053
      72    H34     21.543146   22.659818   23.086885 H          1 MOL1         0.0783
      73    O18     21.358528   24.676517   23.543430 O.3        1 MOL1        -0.5519
      74    H35     22.026349   24.636191   24.263181 H          1 MOL1         0.3769
      75    C22     20.873597   23.750607   21.338672 C.3        1 MOL1         0.1018
      76    H36     20.913578   24.794942   21.002238 H          1 MOL1         0.0783
      77    C23     21.407434   22.821746   20.206728 C.3        1 MOL1         0.1043
      78    H37     21.226947   21.782259   20.501937 H          1 MOL1         0.0783
      79    O19     22.831800   23.032528   20.053125 O.3        1 MOL1        -0.3740
      80    C24     20.760008   23.009336   18.811890 C.3        1 MOL1         0.0138
      81    H38     19.876250   22.364710   18.748297 H          1 MOL1         0.0794
      82    H39     21.464928   22.649433   18.050530 H          1 MOL1         0.0794
      83    O20     20.392725   24.364353   18.533765 O.3        1 MOL1        -0.5486
      84    H40     19.467376   24.471841   18.850541 H          1 MOL1         0.3769
      85    C25     24.874097   17.601897   22.062284 C.3        1 MOL1         0.2972
      86    H41     25.519977   16.724526   22.198163 H          1 MOL1         0.0751
      87    O21     23.516258   17.211978   21.775437 O.3        1 MOL1        -0.3740
      88    C26     24.882220   18.453434   23.355099 C.3        1 MOL1         0.1003
      89    H42     25.918388   18.765711   23.539499 H          1 MOL1         0.0783
      90    O22     24.415573   17.672573   24.466337 O.3        1 MOL1        -0.5519
      91    H43     23.880885   16.936601   24.085148 H          1 MOL1         0.3769
      92    C27     24.021576   19.726296   23.188360 C.3        1 MOL1         0.1053
      93    H44     22.972352   19.414091   23.112985 H          1 MOL1         0.0783
      94    O23     24.191217   20.573108   24.330329 O.3        1 MOL1        -0.5519
      95    H45     24.071925   19.980496   25.105453 H          1 MOL1         0.3769
      96    C28     24.399083   20.504546   21.904071 C.3        1 MOL1         0.1018
      97    H46     25.340194   21.040803   22.085250 H          1 MOL1         0.0783
      98    C29     24.535252   19.581581   20.659908 C.3        1 MOL1         0.1043
      99    H47     23.525638   19.254714   20.382946 H          1 MOL1         0.0783
     100    O24     25.344369   18.417396   20.969272 O.3        1 MOL1        -0.3740
     101    C30     25.148948   20.283555   19.424595 C.3        1 MOL1         0.0138
     102    H48     24.414312   20.995464   19.025080 H          1 MOL1         0.0794
     103    H49     25.327941   19.530760   18.645122 H          1 MOL1         0.0794
     104    O25     26.366276   20.968513   19.744208 O.3        1 MOL1        -0.5486
     105    H50     26.737822   21.322372   18.906830 H          1 MOL1         0.3769
     106    C31     21.303307   13.965090   20.424488 C.3        1 MOL1         0.2972
     107    H51     20.938271   13.042220   19.957290 H          1 MOL1         0.0751
     108    O26     20.218678   14.784083   20.911957 O.3        1 MOL1        -0.3740
     109    C32     22.272007   13.656043   21.595927 C.3        1 MOL1         0.1003
     110    H52     23.143561   13.143523   21.168078 H          1 MOL1         0.0783
     111    O27     21.669581   12.797667   22.575111 O.3        1 MOL1        -0.5519
     112    H53     20.842031   13.241220   22.890563 H          1 MOL1         0.3769
     113    C33     22.767719   14.973788   22.240523 C.3        1 MOL1         0.1053
     114    H54     21.907738   15.478232   22.701424 H          1 MOL1         0.0783
     115    O28     23.748040   14.682901   23.241720 O.3        1 MOL1        -0.5519
     116    H55     23.382293   13.923494   23.747809 H          1 MOL1         0.3769
     117    C34     23.373462   15.913789   21.166565 C.3        1 MOL1         0.1018
     118    H56     24.341726   15.497323   20.859108 H          1 MOL1         0.0783
     119    C35     22.469555   16.059099   19.906667 C.3        1 MOL1         0.1043
     120    H57     21.583028   16.643474   20.174501 H          1 MOL1         0.0783
     121    O29     22.047341   14.745088   19.461437 O.3        1 MOL1        -0.3740
     122    C36     23.133886   16.797343   18.714426 C.3        1 MOL1         0.0138
     123    H58     22.914497   17.868302   18.802884 H          1 MOL1         0.0794
     124    H59     22.659172   16.456236   17.784733 H          1 MOL1         0.0794
     125    O30     24.551814   16.603166   18.639921 O.3        1 MOL1        -0.5486
     126    H60     24.956948   17.118886   19.375991 H          1 MOL1         0.3769
     127    C1      19.784947   18.045753   22.087646 C.3        1 MOL1        -0.1693
     128    H1      18.852495   17.681879   21.644167 H          1 MOL1         0.0829
     129    H2      20.562750   17.292107   21.946580 H          1 MOL1         0.0829
     130    C2      19.658552   18.592708   23.544160 C.3        1 MOL1        -0.1768
     131    H3      18.899295   18.117089   24.174284 H          1 MOL1         0.0829
     132    H4      20.603153   18.638185   24.099922 H          1 MOL1         0.0829
     133    C3      19.241349   19.933829   22.876689 C.3        1 MOL1         0.1211
     134    H5      18.175846   19.981669   22.626554 H          1 MOL1         0.0786
     135    C4      20.154370   19.507154   21.688478 C.3        1 MOL1        -0.1768
     136    H6      19.830342   19.824201   20.692573 H          1 MOL1         0.0829
     137    H7      21.211655   19.758143   21.813331 H          1 MOL1         0.0829
     138    O1      19.647409   21.090107   23.565883 O.3        1 MOL1        -0.5515
     139    H8      19.597114   21.844101   22.939254 H          1 MOL1         0.3773
@<TRIPOS>BOND
    1     1     2    1
    2     1     3    1
    3     1     4    1
    4     4     5    1
    5     4     6    1
    6     6     7    1
    7     4     8    1
    8     8     9    1
    9     8    10    1
   10    10    11    1
   11     8    12    1
   12    12    13    1
   13    12    14    1
   14    14    15    1
   15     1    16    1
   16    14    16    1
   17    14    17    1
   18    17    18    1
   19    17    19    1
   20    17    20    1
   21    20    21    1
   22    22    23    1
   23    22    24    1
   24    22    25    1
   25    25    26    1
   26    25    27    1
   27    27    28    1
   28    25    29    1
   29    29    30    1
   30    29    31    1
   31    31    32    1
   32     3    33    1
   33    29    33    1
   34    33    34    1
   35    33    35    1
   36    35    36    1
   37    22    37    1
   38    35    37    1
   39    35    38    1
   40    38    39    1
   41    38    40    1
   42    38    41    1
   43    41    42    1
   44    43    44    1
   45    43    45    1
   46    43    46    1
   47    46    47    1
   48    46    48    1
   49    48    49    1
   50    46    50    1
   51    50    51    1
   52    50    52    1
   53    52    53    1
   54    24    54    1
   55    50    54    1
   56    54    55    1
   57    54    56    1
   58    56    57    1
   59    43    58    1
   60    56    58    1
   61    56    59    1
   62    59    60    1
   63    59    61    1
   64    59    62    1
   65    62    63    1
   66    64    65    1
   67    64    66    1
   68    64    67    1
   69    67    68    1
   70    67    69    1
   71    69    70    1
   72    67    71    1
   73    71    72    1
   74    71    73    1
   75    73    74    1
   76    45    75    1
   77    71    75    1
   78    75    76    1
   79    75    77    1
   80    77    78    1
   81    64    79    1
   82    77    79    1
   83    77    80    1
   84    80    81    1
   85    80    82    1
   86    80    83    1
   87    83    84    1
   88    85    86    1
   89    85    87    1
   90    85    88    1
   91    88    89    1
   92    88    90    1
   93    90    91    1
   94    88    92    1
   95    92    93    1
   96    92    94    1
   97    94    95    1
   98    66    96    1
   99    92    96    1
  100    96    97    1
  101    96    98    1
  102    98    99    1
  103    85   100    1
  104    98   100    1
  105    98   101    1
  106   101   102    1
  107   101   103    1
  108   101   104    1
  109   104   105    1
  110   106   107    1
  111    12   108    1
  112   106   108    1
  113   106   109    1
  114   109   110    1
  115   109   111    1
  116   111   112    1
  117   109   113    1
  118   113   114    1
  119   113   115    1
  120   115   116    1
  121    87   117    1
  122   113   117    1
  123   117   118    1
  124   117   119    1
  125   119   120    1
  126   106   121    1
  127   119   121    1
  128   119   122    1
  129   122   123    1
  130   122   124    1
  131   122   125    1
  132   125   126    1
  133   127   128    1
  134   127   129    1
  135   127   130    1
  136   130   131    1
  137   130   132    1
  138   130   133    1
  139   133   134    1
  140   127   135    1
  141   133   135    1
  142   135   136    1
  143   135   137    1
  144   133   138    1
  145   138   139    1
@<TRIPOS>SUBSTRUCTURE
       1 MOL1            1 RESIDUE      1      MOL     
       2 MOL1          139 RESIDUE      1      MOL     
@<SCITEGIC>MOL_PROPERTY
feprocess Rank
SciTegic.value.IntegerValue
192

@<SCITEGIC>MOL_PROPERTY
Conf_Id
SciTegic.value.IntegerValue
326

@<SCITEGIC>MOL_PROPERTY
Probability
SciTegic.value.DoubleValue
0.00

@<SCITEGIC>MOL_PROPERTY
G
SciTegic.value.DoubleValue
551.089

@<SCITEGIC>MOL_PROPERTY
E
SciTegic.value.DoubleValue
373.954

@<SCITEGIC>MOL_PROPERTY
-TS
SciTegic.value.DoubleValue
177.135

@<SCITEGIC>MOL_PROPERTY
U+W
SciTegic.value.DoubleValue
251.443

@<SCITEGIC>MOL_PROPERTY
U
SciTegic.value.DoubleValue
290.201

@<SCITEGIC>MOL_PROPERTY
W
SciTegic.value.DoubleValue
-38.758

@<SCITEGIC>MOL_PROPERTY
W(PB)
SciTegic.value.DoubleValue
-44.700

@<SCITEGIC>MOL_PROPERTY
W(SA)
SciTegic.value.DoubleValue
5.942

@<SCITEGIC>MOL_PROPERTY
Valence
SciTegic.value.DoubleValue
155.655

@<SCITEGIC>MOL_PROPERTY
Coulomb
SciTegic.value.DoubleValue
156.955

@<SCITEGIC>MOL_PROPERTY
VdW
SciTegic.value.DoubleValue
-22.409

@<SCITEGIC>MOL_PROPERTY
VdW6
SciTegic.value.DoubleValue
-168.958

@<SCITEGIC>MOL_PROPERTY
VdW12
SciTegic.value.DoubleValue
146.549

@<SCITEGIC>MOL_PROPERTY
Bond
SciTegic.value.DoubleValue
4.645

@<SCITEGIC>MOL_PROPERTY
Angle
SciTegic.value.DoubleValue
11.754

@<SCITEGIC>MOL_PROPERTY
Pdih
SciTegic.value.DoubleValue
139.256

@<SCITEGIC>MOL_PROPERTY
Idih
SciTegic.value.DoubleValue
0.000

@<SCITEGIC>MOL_PROPERTY
Tether
SciTegic.value.DoubleValue
0.000

@<TRIPOS>MOLECULE
CD_guest-s16_fast_vm2_rndm.mol2 : feprocess host+ligand conformer 193
         139         145           2
SMALL
USER_CHARGES
 
@<TRIPOS>ATOM
       1    C1      16.216253   15.124477   21.391239 C.3        1 MOL1         0.2972
       2    H1      15.132073   14.992892   21.284950 H          1 MOL1         0.0751
       3    O1      16.565871   16.503452   21.631517 O.3        1 MOL1        -0.3740
       4    C2      16.727439   14.277737   22.583124 C.3        1 MOL1         0.1003
       5    H2      16.476721   13.229342   22.375549 H          1 MOL1         0.0783
       6    O2      16.087349   14.685702   23.802904 O.3        1 MOL1        -0.5519
       7    H3      15.917164   15.658992   23.731972 H          1 MOL1         0.3769
       8    C3      18.263982   14.382414   22.717382 C.3        1 MOL1         0.1053
       9    H4      18.505986   15.409981   23.017386 H          1 MOL1         0.0783
      10    O3      18.725546   13.468664   23.718480 O.3        1 MOL1        -0.5519
      11    H5      18.113621   13.593344   24.477906 H          1 MOL1         0.3769
      12    C4      18.972485   14.087688   21.372681 C.3        1 MOL1         0.1018
      13    H6      18.921683   13.008083   21.180425 H          1 MOL1         0.0783
      14    C5      18.334923   14.874160   20.191760 C.3        1 MOL1         0.1043
      15    H7      18.558177   15.937290   20.337345 H          1 MOL1         0.0783
      16    O4      16.896267   14.688883   20.195048 O.3        1 MOL1        -0.3740
      17    C6      18.873362   14.487424   18.792560 C.3        1 MOL1         0.0138
      18    H8      19.859180   14.949566   18.653865 H          1 MOL1         0.0794
      19    H9      18.208041   14.920022   18.033629 H          1 MOL1         0.0794
      20    O5      18.969782   13.070669   18.607167 O.3        1 MOL1        -0.5486
      21    H10     19.895218   12.812785   18.805985 H          1 MOL1         0.3769
      22    C7      14.823039   20.315899   21.226617 C.3        1 MOL1         0.2972
      23    H11     14.077031   21.101569   21.051879 H          1 MOL1         0.0751
      24    O6      16.129814   20.874591   21.459853 O.3        1 MOL1        -0.3740
      25    C8      14.433489   19.502422   22.488104 C.3        1 MOL1         0.1003
      26    H12     13.425112   19.100941   22.323518 H          1 MOL1         0.0783
      27    O7      14.421096   20.355145   23.644234 O.3        1 MOL1        -0.5519
      28    H13     15.106112   21.050752   23.489702 H          1 MOL1         0.3769
      29    C9      15.392583   18.306699   22.707700 C.3        1 MOL1         0.1053
      30    H14     16.386365   18.700477   22.962722 H          1 MOL1         0.0783
      31    O8      14.900579   17.489938   23.775707 O.3        1 MOL1        -0.5519
      32    H15     14.674579   18.120890   24.495067 H          1 MOL1         0.3769
      33    C10     15.515871   17.467476   21.414857 C.3        1 MOL1         0.1018
      34    H16     14.548120   16.985625   21.222909 H          1 MOL1         0.0783
      35    C11     15.887753   18.365761   20.204430 C.3        1 MOL1         0.1043
      36    H17     16.870379   18.810994   20.399099 H          1 MOL1         0.0783
      37    O9      14.903486   19.425079   20.090494 O.3        1 MOL1        -0.3740
      38    C12     15.982757   17.623869   18.846778 C.3        1 MOL1         0.0138
      39    H18     16.984138   17.182473   18.761438 H          1 MOL1         0.0794
      40    H19     15.886404   18.359480   18.037438 H          1 MOL1         0.0794
      41    O10     14.996345   16.597672   18.695592 O.3        1 MOL1        -0.5486
      42    H20     15.384379   15.776776   19.075620 H          1 MOL1         0.3769
      43    C13     18.526457   24.157571   20.605004 C.3        1 MOL1         0.2972
      44    H21     18.953179   25.110223   20.268110 H          1 MOL1         0.0751
      45    O11     19.549058   23.246721   21.062442 O.3        1 MOL1        -0.3740
      46    C14     17.484685   24.374704   21.733582 C.3        1 MOL1         0.1003
      47    H22     16.663619   24.964209   21.305056 H          1 MOL1         0.0783
      48    O12     18.038979   25.098468   22.841354 O.3        1 MOL1        -0.5519
      49    H23     18.789957   24.559732   23.197667 H          1 MOL1         0.3769
      50    C15     16.901497   23.015014   22.191215 C.3        1 MOL1         0.1053
      51    H24     17.709442   22.428770   22.651574 H          1 MOL1         0.0783
      52    O13     15.857687   23.234568   23.146358 O.3        1 MOL1        -0.5519
      53    H25     16.214542   23.906065   23.769136 H          1 MOL1         0.3769
      54    C16     16.343946   22.218169   20.983953 C.3        1 MOL1         0.1018
      55    H26     15.408317   22.697705   20.668115 H          1 MOL1         0.0783
      56    C17     17.336792   22.178493   19.783534 C.3        1 MOL1         0.1043
      57    H27     18.183930   21.542410   20.057266 H          1 MOL1         0.0783
      58    O14     17.827846   23.516553   19.514361 O.3        1 MOL1        -0.3740
      59    C18     16.762181   21.589982   18.469979 C.3        1 MOL1         0.0138
      60    H28     16.909490   20.503014   18.484626 H          1 MOL1         0.0794
      61    H29     17.350164   21.977937   17.627514 H          1 MOL1         0.0794
      62    O15     15.374196   21.881391   18.275439 O.3        1 MOL1        -0.5486
      63    H30     14.871840   21.173686   18.739556 H          1 MOL1         0.3769
      64    C19     23.473253   22.714864   22.166027 C.3        1 MOL1         0.2972
      65    H31     24.526406   22.796564   22.465288 H          1 MOL1         0.0751
      66    O16     23.117982   21.356135   21.841951 O.3        1 MOL1        -0.3740
      67    C20     22.562247   23.200920   23.316219 C.3        1 MOL1         0.1003
      68    H32     22.794056   24.258748   23.496135 H          1 MOL1         0.0783
      69    O17     22.817525   22.451184   24.514783 O.3        1 MOL1        -0.5519
      70    H33     23.348796   21.662082   24.249676 H          1 MOL1         0.3769
      71    C21     21.073290   23.098877   22.914044 C.3        1 MOL1         0.1053
      72    H34     20.823341   22.035467   22.820057 H          1 MOL1         0.0783
      73    O18     20.275570   23.684750   23.945540 O.3        1 MOL1        -0.5519
      74    H35     20.596347   23.261635   24.773890 H          1 MOL1         0.3769
      75    C22     20.791999   23.791021   21.552060 C.3        1 MOL1         0.1018
      76    H36     20.735221   24.875254   21.711870 H          1 MOL1         0.0783
      77    C23     21.862683   23.456032   20.471105 C.3        1 MOL1         0.1043
      78    H37     21.679359   22.428128   20.135491 H          1 MOL1         0.0783
      79    O19     23.207060   23.535406   21.010440 O.3        1 MOL1        -0.3740
      80    C24     21.786144   24.360576   19.217241 C.3        1 MOL1         0.0138
      81    H38     20.830939   24.178448   18.706273 H          1 MOL1         0.0794
      82    H39     22.583604   24.059854   18.524643 H          1 MOL1         0.0794
      83    O20     21.917705   25.752475   19.534800 O.3        1 MOL1        -0.5486
      84    H40     21.117972   26.036008   20.023370 H          1 MOL1         0.3769
      85    C25     24.990791   17.661044   21.300194 C.3        1 MOL1         0.2972
      86    H41     25.721784   16.878999   21.058823 H          1 MOL1         0.0751
      87    O21     23.710306   17.101037   21.655579 O.3        1 MOL1        -0.3740
      88    C26     25.491731   18.486146   22.513240 C.3        1 MOL1         0.1003
      89    H42     26.464995   18.915828   22.242518 H          1 MOL1         0.0783
      90    O22     25.649250   17.638207   23.662442 O.3        1 MOL1        -0.5519
      91    H43     24.955038   16.935915   23.600328 H          1 MOL1         0.3769
      92    C27     24.525495   19.652603   22.832117 C.3        1 MOL1         0.1053
      93    H44     23.586882   19.221731   23.200971 H          1 MOL1         0.0783
      94    O23     25.096865   20.487034   23.843933 O.3        1 MOL1        -0.5519
      95    H45     25.452882   19.864542   24.517206 H          1 MOL1         0.3769
      96    C28     24.223990   20.480922   21.557468 C.3        1 MOL1         0.1018
      97    H46     25.125665   21.041535   21.276981 H          1 MOL1         0.0783
      98    C29     23.804057   19.580229   20.366361 C.3        1 MOL1         0.1043
      99    H47     22.846591   19.109274   20.614906 H          1 MOL1         0.0783
     100    O24     24.805057   18.549684   20.175104 O.3        1 MOL1        -0.3740
     101    C30     23.594759   20.344963   19.033263 C.3        1 MOL1         0.0138
     102    H48     22.552727   20.687097   18.992361 H          1 MOL1         0.0794
     103    H49     23.732153   19.643783   18.199418 H          1 MOL1         0.0794
     104    O25     24.471767   21.468509   18.881887 O.3        1 MOL1        -0.5486
     105    H50     24.199072   22.146010   19.542543 H          1 MOL1         0.3769
     106    C31     21.387472   13.678189   21.113857 C.3        1 MOL1         0.2972
     107    H51     21.021424   12.672137   20.873818 H          1 MOL1         0.0751
     108    O26     20.324640   14.546931   21.547339 O.3        1 MOL1        -0.3740
     109    C32     22.417070   13.613403   22.270339 C.3        1 MOL1         0.1003
     110    H52     23.246736   12.973946   21.941999 H          1 MOL1         0.0783
     111    O27     21.813605   13.047029   23.445242 O.3        1 MOL1        -0.5519
     112    H53     20.884568   13.386522   23.486359 H          1 MOL1         0.3769
     113    C33     22.987666   15.019695   22.582936 C.3        1 MOL1         0.1053
     114    H54     22.179727   15.629277   23.008762 H          1 MOL1         0.0783
     115    O28     24.054753   14.908368   23.530883 O.3        1 MOL1        -0.5519
     116    H55     23.714122   14.307510   24.230506 H          1 MOL1         0.3769
     117    C34     23.497755   15.720473   21.299903 C.3        1 MOL1         0.1018
     118    H56     24.425804   15.225423   20.985223 H          1 MOL1         0.0783
     119    C35     22.455550   15.653344   20.148157 C.3        1 MOL1         0.1043
     120    H57     21.589823   16.256649   20.439836 H          1 MOL1         0.0783
     121    O29     22.029588   14.279582   19.968410 O.3        1 MOL1        -0.3740
     122    C36     22.943602   16.204275   18.784577 C.3        1 MOL1         0.0138
     123    H58     22.790936   17.290950   18.773201 H          1 MOL1         0.0794
     124    H59     22.309691   15.785104   17.991962 H          1 MOL1         0.0794
     125    O30     24.319376   15.912639   18.518113 O.3        1 MOL1        -0.5486
     126    H60     24.841739   16.662374   18.881347 H          1 MOL1         0.3769
     127    C1      19.822638   18.468872   20.790528 C.3        1 MOL1        -0.1693
     128    H1      20.763779   18.299677   20.257215 H          1 MOL1         0.0829
     129    H2      18.996678   18.202344   20.124853 H          1 MOL1         0.0829
     130    C2      19.722418   19.860761   21.488623 C.3        1 MOL1        -0.1768
     131    H3      20.240316   20.682985   20.987834 H          1 MOL1         0.0829
     132    H4      18.707768   20.178488   21.752457 H          1 MOL1         0.0829
     133    C3      20.489427   19.196761   22.666386 C.3        1 MOL1         0.1211
     134    H5      21.574419   19.165515   22.524335 H          1 MOL1         0.0786
     135    C4      19.761616   17.889683   22.242753 C.3        1 MOL1        -0.1768
     136    H6      20.316925   16.966886   22.425396 H          1 MOL1         0.0829
     137    H7      18.750620   17.783240   22.653598 H          1 MOL1         0.0829
     138    O1      20.165216   19.683222   23.946772 O.3        1 MOL1        -0.5515
     139    H8      20.576678   19.084519   24.601437 H          1 MOL1         0.3773
@<TRIPOS>BOND
    1     1     2    1
    2     1     3    1
    3     1     4    1
    4     4     5    1
    5     4     6    1
    6     6     7    1
    7     4     8    1
    8     8     9    1
    9     8    10    1
   10    10    11    1
   11     8    12    1
   12    12    13    1
   13    12    14    1
   14    14    15    1
   15     1    16    1
   16    14    16    1
   17    14    17    1
   18    17    18    1
   19    17    19    1
   20    17    20    1
   21    20    21    1
   22    22    23    1
   23    22    24    1
   24    22    25    1
   25    25    26    1
   26    25    27    1
   27    27    28    1
   28    25    29    1
   29    29    30    1
   30    29    31    1
   31    31    32    1
   32     3    33    1
   33    29    33    1
   34    33    34    1
   35    33    35    1
   36    35    36    1
   37    22    37    1
   38    35    37    1
   39    35    38    1
   40    38    39    1
   41    38    40    1
   42    38    41    1
   43    41    42    1
   44    43    44    1
   45    43    45    1
   46    43    46    1
   47    46    47    1
   48    46    48    1
   49    48    49    1
   50    46    50    1
   51    50    51    1
   52    50    52    1
   53    52    53    1
   54    24    54    1
   55    50    54    1
   56    54    55    1
   57    54    56    1
   58    56    57    1
   59    43    58    1
   60    56    58    1
   61    56    59    1
   62    59    60    1
   63    59    61    1
   64    59    62    1
   65    62    63    1
   66    64    65    1
   67    64    66    1
   68    64    67    1
   69    67    68    1
   70    67    69    1
   71    69    70    1
   72    67    71    1
   73    71    72    1
   74    71    73    1
   75    73    74    1
   76    45    75    1
   77    71    75    1
   78    75    76    1
   79    75    77    1
   80    77    78    1
   81    64    79    1
   82    77    79    1
   83    77    80    1
   84    80    81    1
   85    80    82    1
   86    80    83    1
   87    83    84    1
   88    85    86    1
   89    85    87    1
   90    85    88    1
   91    88    89    1
   92    88    90    1
   93    90    91    1
   94    88    92    1
   95    92    93    1
   96    92    94    1
   97    94    95    1
   98    66    96    1
   99    92    96    1
  100    96    97    1
  101    96    98    1
  102    98    99    1
  103    85   100    1
  104    98   100    1
  105    98   101    1
  106   101   102    1
  107   101   103    1
  108   101   104    1
  109   104   105    1
  110   106   107    1
  111    12   108    1
  112   106   108    1
  113   106   109    1
  114   109   110    1
  115   109   111    1
  116   111   112    1
  117   109   113    1
  118   113   114    1
  119   113   115    1
  120   115   116    1
  121    87   117    1
  122   113   117    1
  123   117   118    1
  124   117   119    1
  125   119   120    1
  126   106   121    1
  127   119   121    1
  128   119   122    1
  129   122   123    1
  130   122   124    1
  131   122   125    1
  132   125   126    1
  133   127   128    1
  134   127   129    1
  135   127   130    1
  136   130   131    1
  137   130   132    1
  138   130   133    1
  139   133   134    1
  140   127   135    1
  141   133   135    1
  142   135   136    1
  143   135   137    1
  144   133   138    1
  145   138   139    1
@<TRIPOS>SUBSTRUCTURE
       1 MOL1            1 RESIDUE      1      MOL     
       2 MOL1          139 RESIDUE      1      MOL     
@<SCITEGIC>MOL_PROPERTY
feprocess Rank
SciTegic.value.IntegerValue
193

@<SCITEGIC>MOL_PROPERTY
Conf_Id
SciTegic.value.IntegerValue
776

@<SCITEGIC>MOL_PROPERTY
Probability
SciTegic.value.DoubleValue
0.00

@<SCITEGIC>MOL_PROPERTY
G
SciTegic.value.DoubleValue
551.177

@<SCITEGIC>MOL_PROPERTY
E
SciTegic.value.DoubleValue
375.132

@<SCITEGIC>MOL_PROPERTY
-TS
SciTegic.value.DoubleValue
176.045

@<SCITEGIC>MOL_PROPERTY
U+W
SciTegic.value.DoubleValue
252.620

@<SCITEGIC>MOL_PROPERTY
U
SciTegic.value.DoubleValue
293.645

@<SCITEGIC>MOL_PROPERTY
W
SciTegic.value.DoubleValue
-41.025

@<SCITEGIC>MOL_PROPERTY
W(PB)
SciTegic.value.DoubleValue
-46.931

@<SCITEGIC>MOL_PROPERTY
W(SA)
SciTegic.value.DoubleValue
5.906

@<SCITEGIC>MOL_PROPERTY
Valence
SciTegic.value.DoubleValue
157.115

@<SCITEGIC>MOL_PROPERTY
Coulomb
SciTegic.value.DoubleValue
160.227

@<SCITEGIC>MOL_PROPERTY
VdW
SciTegic.value.DoubleValue
-23.697

@<SCITEGIC>MOL_PROPERTY
VdW6
SciTegic.value.DoubleValue
-168.999

@<SCITEGIC>MOL_PROPERTY
VdW12
SciTegic.value.DoubleValue
145.302

@<SCITEGIC>MOL_PROPERTY
Bond
SciTegic.value.DoubleValue
4.567

@<SCITEGIC>MOL_PROPERTY
Angle
SciTegic.value.DoubleValue
12.159

@<SCITEGIC>MOL_PROPERTY
Pdih
SciTegic.value.DoubleValue
140.389

@<SCITEGIC>MOL_PROPERTY
Idih
SciTegic.value.DoubleValue
0.000

@<SCITEGIC>MOL_PROPERTY
Tether
SciTegic.value.DoubleValue
0.000

@<TRIPOS>MOLECULE
CD_guest-s16_fast_vm2_rndm.mol2 : feprocess host+ligand conformer 194
         139         145           2
SMALL
USER_CHARGES
 
@<TRIPOS>ATOM
       1    C1      16.139884   15.257528   20.428372 C.3        1 MOL1         0.2972
       2    H1      15.124758   15.172070   20.019484 H          1 MOL1         0.0751
       3    O1      16.364626   16.541000   21.041528 O.3        1 MOL1        -0.3740
       4    C2      16.417079   14.160601   21.488706 C.3        1 MOL1         0.1003
       5    H2      16.330084   13.188969   20.985281 H          1 MOL1         0.0783
       6    O2      15.467434   14.218211   22.564740 O.3        1 MOL1        -0.5519
       7    H3      15.479083   15.142617   22.921440 H          1 MOL1         0.3769
       8    C3      17.861621   14.290654   22.032506 C.3        1 MOL1         0.1053
       9    H4      17.931509   15.232680   22.594240 H          1 MOL1         0.0783
      10    O3      18.150192   13.190159   22.901635 O.3        1 MOL1        -0.5519
      11    H5      17.360758   13.106167   23.481253 H          1 MOL1         0.3769
      12    C4      18.899132   14.336388   20.881500 C.3        1 MOL1         0.1018
      13    H6      18.987669   13.326408   20.460424 H          1 MOL1         0.0783
      14    C5      18.495532   15.338546   19.759306 C.3        1 MOL1         0.1043
      15    H7      18.584371   16.356094   20.157607 H          1 MOL1         0.0783
      16    O4      17.117977   15.097160   19.377550 O.3        1 MOL1        -0.3740
      17    C6      19.368179   15.292587   18.478959 C.3        1 MOL1         0.0138
      18    H8      20.203902   15.991788   18.603238 H          1 MOL1         0.0794
      19    H9      18.770097   15.664282   17.636276 H          1 MOL1         0.0794
      20    O5      19.874595   13.986983   18.181607 O.3        1 MOL1        -0.5486
      21    H10     20.694208   13.876664   18.716335 H          1 MOL1         0.3769
      22    C7      14.768938   20.185343   21.957149 C.3        1 MOL1         0.2972
      23    H11     14.160380   21.069072   22.188659 H          1 MOL1         0.0751
      24    O6      16.164165   20.521671   21.809363 O.3        1 MOL1        -0.3740
      25    C8      14.628672   19.146276   23.093619 C.3        1 MOL1         0.1003
      26    H12     13.574187   18.844389   23.139518 H          1 MOL1         0.0783
      27    O7      15.015511   19.719749   24.352872 O.3        1 MOL1        -0.5519
      28    H13     15.578223   20.508150   24.150781 H          1 MOL1         0.3769
      29    C9      15.474440   17.890482   22.790467 C.3        1 MOL1         0.1053
      30    H14     16.528260   18.181559   22.854070 H          1 MOL1         0.0783
      31    O8      15.201869   16.883755   23.769909 O.3        1 MOL1        -0.5519
      32    H15     15.233734   17.356989   24.631463 H          1 MOL1         0.3769
      33    C10     15.209480   17.334528   21.367499 C.3        1 MOL1         0.1018
      34    H16     14.287482   16.738401   21.387782 H          1 MOL1         0.0783
      35    C11     15.118822   18.441388   20.276503 C.3        1 MOL1         0.1043
      36    H17     16.140411   18.786462   20.074732 H          1 MOL1         0.0783
      37    O9      14.325831   19.567816   20.732050 O.3        1 MOL1        -0.3740
      38    C12     14.536414   17.941525   18.933052 C.3        1 MOL1         0.0138
      39    H18     15.272009   17.277350   18.459399 H          1 MOL1         0.0794
      40    H19     14.400059   18.804179   18.266959 H          1 MOL1         0.0794
      41    O10     13.296004   17.246186   19.108610 O.3        1 MOL1        -0.5486
      42    H20     12.947361   17.028329   18.216603 H          1 MOL1         0.3769
      43    C13     18.539406   23.939317   21.295869 C.3        1 MOL1         0.2972
      44    H21     18.851704   24.972656   21.097922 H          1 MOL1         0.0751
      45    O11     19.672523   23.076720   21.511330 O.3        1 MOL1        -0.3740
      46    C14     17.671103   23.897049   22.578849 C.3        1 MOL1         0.1003
      47    H22     16.810575   24.559900   22.420002 H          1 MOL1         0.0783
      48    O12     18.427845   24.362149   23.708092 O.3        1 MOL1        -0.5519
      49    H23     19.376907   24.159782   23.518018 H          1 MOL1         0.3769
      50    C15     17.135316   22.469315   22.837981 C.3        1 MOL1         0.1053
      51    H24     17.990179   21.822720   23.074514 H          1 MOL1         0.0783
      52    O13     16.220150   22.489727   23.938298 O.3        1 MOL1        -0.5519
      53    H25     16.660525   23.039866   24.624342 H          1 MOL1         0.3769
      54    C16     16.438785   21.914655   21.573303 C.3        1 MOL1         0.1018
      55    H26     15.520666   22.490736   21.396835 H          1 MOL1         0.0783
      56    C17     17.351287   22.033244   20.323130 C.3        1 MOL1         0.1043
      57    H27     18.230590   21.394955   20.475427 H          1 MOL1         0.0783
      58    O14     17.774900   23.414036   20.186658 O.3        1 MOL1        -0.3740
      59    C18     16.688938   21.583148   18.994745 C.3        1 MOL1         0.0138
      60    H28     16.862724   20.507538   18.866624 H          1 MOL1         0.0794
      61    H29     17.196966   22.086913   18.161614 H          1 MOL1         0.0794
      62    O15     15.282196   21.850097   18.944405 O.3        1 MOL1        -0.5486
      63    H30     14.839281   21.187448   19.524332 H          1 MOL1         0.3769
      64    C19     23.723854   22.714401   20.612344 C.3        1 MOL1         0.2972
      65    H31     24.750490   22.841093   20.247366 H          1 MOL1         0.0751
      66    O16     23.503499   21.396482   21.146751 O.3        1 MOL1        -0.3740
      67    C20     23.373446   23.760414   21.703722 C.3        1 MOL1         0.1003
      68    H32     23.441176   24.751467   21.236427 H          1 MOL1         0.0783
      69    O17     24.290667   23.704515   22.806452 O.3        1 MOL1        -0.5519
      70    H33     24.243847   22.789151   23.182295 H          1 MOL1         0.3769
      71    C21     21.915407   23.562052   22.189741 C.3        1 MOL1         0.1053
      72    H34     21.849972   22.590387   22.699196 H          1 MOL1         0.0783
      73    O18     21.560878   24.610315   23.098422 O.3        1 MOL1        -0.5519
      74    H35     22.329308   24.696394   23.705356 H          1 MOL1         0.3769
      75    C22     20.930507   23.550481   20.993816 C.3        1 MOL1         0.1018
      76    H36     20.858221   24.573886   20.603078 H          1 MOL1         0.0783
      77    C23     21.398030   22.599025   19.855269 C.3        1 MOL1         0.1043
      78    H37     21.323529   21.567103   20.217824 H          1 MOL1         0.0783
      79    O19     22.781564   22.896000   19.531397 O.3        1 MOL1        -0.3740
      80    C24     20.560221   22.665011   18.553055 C.3        1 MOL1         0.0138
      81    H38     19.724573   21.959875   18.643617 H          1 MOL1         0.0794
      82    H39     21.182999   22.312070   17.720321 H          1 MOL1         0.0794
      83    O20     20.053653   23.973788   18.268387 O.3        1 MOL1        -0.5486
      84    H40     19.222313   24.071724   18.787208 H          1 MOL1         0.3769
      85    C25     24.921645   17.764105   22.266562 C.3        1 MOL1         0.2972
      86    H41     25.477075   16.869355   22.576786 H          1 MOL1         0.0751
      87    O21     23.552974   17.448942   21.930792 O.3        1 MOL1        -0.3740
      88    C26     24.933586   18.801075   23.411882 C.3        1 MOL1         0.1003
      89    H42     25.980628   19.071441   23.601062 H          1 MOL1         0.0783
      90    O22     24.361359   18.246011   24.607529 O.3        1 MOL1        -0.5519
      91    H43     23.972900   17.369151   24.364605 H          1 MOL1         0.3769
      92    C27     24.173472   20.079308   22.999941 C.3        1 MOL1         0.1053
      93    H44     23.112984   19.819383   22.923467 H          1 MOL1         0.0783
      94    O23     24.342920   21.073650   24.013532 O.3        1 MOL1        -0.5519
      95    H45     24.194189   20.593867   24.859462 H          1 MOL1         0.3769
      96    C28     24.623145   20.629524   21.621423 C.3        1 MOL1         0.1018
      97    H46     25.524687   21.240704   21.754244 H          1 MOL1         0.0783
      98    C29     24.855159   19.518323   20.554392 C.3        1 MOL1         0.1043
      99    H47     23.868804   19.197173   20.198011 H          1 MOL1         0.0783
     100    O24     25.541180   18.369757   21.114689 O.3        1 MOL1        -0.3740
     101    C30     25.642037   20.002070   19.312622 C.3        1 MOL1         0.0138
     102    H48     25.039981   20.752511   18.782555 H          1 MOL1         0.0794
     103    H49     25.768190   19.150923   18.630197 H          1 MOL1         0.0794
     104    O25     26.923848   20.547592   19.651801 O.3        1 MOL1        -0.5486
     105    H50     26.784849   21.394717   20.123238 H          1 MOL1         0.3769
     106    C31     21.293068   13.969386   21.256002 C.3        1 MOL1         0.2972
     107    H51     21.018815   12.934256   21.015555 H          1 MOL1         0.0751
     108    O26     20.127858   14.782886   21.485523 O.3        1 MOL1        -0.3740
     109    C32     22.130517   13.999324   22.560711 C.3        1 MOL1         0.1003
     110    H52     23.017863   13.372991   22.401154 H          1 MOL1         0.0783
     111    O27     21.363875   13.469590   23.653809 O.3        1 MOL1        -0.5519
     112    H53     20.418865   13.686928   23.464963 H          1 MOL1         0.3769
     113    C33     22.607960   15.436323   22.883611 C.3        1 MOL1         0.1053
     114    H54     21.727294   16.046911   23.124843 H          1 MOL1         0.0783
     115    O28     23.500296   15.406230   24.002420 O.3        1 MOL1        -0.5519
     116    H55     23.067766   14.811552   24.655752 H          1 MOL1         0.3769
     117    C34     23.310704   16.056085   21.652856 C.3        1 MOL1         0.1018
     118    H56     24.245828   15.509658   21.470167 H          1 MOL1         0.0783
     119    C35     22.426704   15.952203   20.382225 C.3        1 MOL1         0.1043
     120    H57     21.516272   16.543509   20.539933 H          1 MOL1         0.0783
     121    O29     22.062687   14.562151   20.183838 O.3        1 MOL1        -0.3740
     122    C36     23.101139   16.489466   19.092918 C.3        1 MOL1         0.0138
     123    H58     22.894306   17.564900   19.017676 H          1 MOL1         0.0794
     124    H59     22.627942   16.013902   18.223713 H          1 MOL1         0.0794
     125    O30     24.517298   16.269521   19.062405 O.3        1 MOL1        -0.5486
     126    H60     24.923297   16.873197   19.727066 H          1 MOL1         0.3769
     127    C1      19.089323   18.829175   23.614986 C.3        1 MOL1        -0.1693
     128    H1      18.401094   19.674234   23.737392 H          1 MOL1         0.0829
     129    H2      18.858135   18.078071   24.379402 H          1 MOL1         0.0829
     130    C2      20.596346   19.220406   23.469844 C.3        1 MOL1        -0.1768
     131    H3      20.913056   20.119022   24.010681 H          1 MOL1         0.0829
     132    H4      21.299457   18.408649   23.692034 H          1 MOL1         0.0829
     133    C3      20.274414   19.419854   21.957730 C.3        1 MOL1         0.1211
     134    H5      19.838879   20.398769   21.723475 H          1 MOL1         0.0786
     135    C4      19.219053   18.296382   22.151699 C.3        1 MOL1        -0.1768
     136    H6      19.615808   17.279119   22.076932 H          1 MOL1         0.0829
     137    H7      18.331084   18.380177   21.518265 H          1 MOL1         0.0829
     138    O1      21.307286   19.107758   21.055106 O.3        1 MOL1        -0.5515
     139    H8      21.947830   18.537603   21.531130 H          1 MOL1         0.3773
@<TRIPOS>BOND
    1     1     2    1
    2     1     3    1
    3     1     4    1
    4     4     5    1
    5     4     6    1
    6     6     7    1
    7     4     8    1
    8     8     9    1
    9     8    10    1
   10    10    11    1
   11     8    12    1
   12    12    13    1
   13    12    14    1
   14    14    15    1
   15     1    16    1
   16    14    16    1
   17    14    17    1
   18    17    18    1
   19    17    19    1
   20    17    20    1
   21    20    21    1
   22    22    23    1
   23    22    24    1
   24    22    25    1
   25    25    26    1
   26    25    27    1
   27    27    28    1
   28    25    29    1
   29    29    30    1
   30    29    31    1
   31    31    32    1
   32     3    33    1
   33    29    33    1
   34    33    34    1
   35    33    35    1
   36    35    36    1
   37    22    37    1
   38    35    37    1
   39    35    38    1
   40    38    39    1
   41    38    40    1
   42    38    41    1
   43    41    42    1
   44    43    44    1
   45    43    45    1
   46    43    46    1
   47    46    47    1
   48    46    48    1
   49    48    49    1
   50    46    50    1
   51    50    51    1
   52    50    52    1
   53    52    53    1
   54    24    54    1
   55    50    54    1
   56    54    55    1
   57    54    56    1
   58    56    57    1
   59    43    58    1
   60    56    58    1
   61    56    59    1
   62    59    60    1
   63    59    61    1
   64    59    62    1
   65    62    63    1
   66    64    65    1
   67    64    66    1
   68    64    67    1
   69    67    68    1
   70    67    69    1
   71    69    70    1
   72    67    71    1
   73    71    72    1
   74    71    73    1
   75    73    74    1
   76    45    75    1
   77    71    75    1
   78    75    76    1
   79    75    77    1
   80    77    78    1
   81    64    79    1
   82    77    79    1
   83    77    80    1
   84    80    81    1
   85    80    82    1
   86    80    83    1
   87    83    84    1
   88    85    86    1
   89    85    87    1
   90    85    88    1
   91    88    89    1
   92    88    90    1
   93    90    91    1
   94    88    92    1
   95    92    93    1
   96    92    94    1
   97    94    95    1
   98    66    96    1
   99    92    96    1
  100    96    97    1
  101    96    98    1
  102    98    99    1
  103    85   100    1
  104    98   100    1
  105    98   101    1
  106   101   102    1
  107   101   103    1
  108   101   104    1
  109   104   105    1
  110   106   107    1
  111    12   108    1
  112   106   108    1
  113   106   109    1
  114   109   110    1
  115   109   111    1
  116   111   112    1
  117   109   113    1
  118   113   114    1
  119   113   115    1
  120   115   116    1
  121    87   117    1
  122   113   117    1
  123   117   118    1
  124   117   119    1
  125   119   120    1
  126   106   121    1
  127   119   121    1
  128   119   122    1
  129   122   123    1
  130   122   124    1
  131   122   125    1
  132   125   126    1
  133   127   128    1
  134   127   129    1
  135   127   130    1
  136   130   131    1
  137   130   132    1
  138   130   133    1
  139   133   134    1
  140   127   135    1
  141   133   135    1
  142   135   136    1
  143   135   137    1
  144   133   138    1
  145   138   139    1
@<TRIPOS>SUBSTRUCTURE
       1 MOL1            1 RESIDUE      1      MOL     
       2 MOL1          139 RESIDUE      1      MOL     
@<SCITEGIC>MOL_PROPERTY
feprocess Rank
SciTegic.value.IntegerValue
194

@<SCITEGIC>MOL_PROPERTY
Conf_Id
SciTegic.value.IntegerValue
389

@<SCITEGIC>MOL_PROPERTY
Probability
SciTegic.value.DoubleValue
0.00

@<SCITEGIC>MOL_PROPERTY
G
SciTegic.value.DoubleValue
551.185

@<SCITEGIC>MOL_PROPERTY
E
SciTegic.value.DoubleValue
372.644

@<SCITEGIC>MOL_PROPERTY
-TS
SciTegic.value.DoubleValue
178.540

@<SCITEGIC>MOL_PROPERTY
U+W
SciTegic.value.DoubleValue
250.133

@<SCITEGIC>MOL_PROPERTY
U
SciTegic.value.DoubleValue
286.369

@<SCITEGIC>MOL_PROPERTY
W
SciTegic.value.DoubleValue
-36.236

@<SCITEGIC>MOL_PROPERTY
W(PB)
SciTegic.value.DoubleValue
-42.160

@<SCITEGIC>MOL_PROPERTY
W(SA)
SciTegic.value.DoubleValue
5.924

@<SCITEGIC>MOL_PROPERTY
Valence
SciTegic.value.DoubleValue
157.378

@<SCITEGIC>MOL_PROPERTY
Coulomb
SciTegic.value.DoubleValue
151.952

@<SCITEGIC>MOL_PROPERTY
VdW
SciTegic.value.DoubleValue
-22.961

@<SCITEGIC>MOL_PROPERTY
VdW6
SciTegic.value.DoubleValue
-171.650

@<SCITEGIC>MOL_PROPERTY
VdW12
SciTegic.value.DoubleValue
148.689

@<SCITEGIC>MOL_PROPERTY
Bond
SciTegic.value.DoubleValue
4.595

@<SCITEGIC>MOL_PROPERTY
Angle
SciTegic.value.DoubleValue
12.621

@<SCITEGIC>MOL_PROPERTY
Pdih
SciTegic.value.DoubleValue
140.162

@<SCITEGIC>MOL_PROPERTY
Idih
SciTegic.value.DoubleValue
0.000

@<SCITEGIC>MOL_PROPERTY
Tether
SciTegic.value.DoubleValue
0.000

@<TRIPOS>MOLECULE
CD_guest-s16_fast_vm2_rndm.mol2 : feprocess host+ligand conformer 195
         139         145           2
SMALL
USER_CHARGES
 
@<TRIPOS>ATOM
       1    C1      16.126879   15.072536   21.522013 C.3        1 MOL1         0.2972
       2    H1      15.052725   14.872983   21.622337 H          1 MOL1         0.0751
       3    O1      16.408046   16.486985   21.458154 O.3        1 MOL1        -0.3740
       4    C2      16.900454   14.459269   22.717125 C.3        1 MOL1         0.1003
       5    H2      16.750704   13.372359   22.676644 H          1 MOL1         0.0783
       6    O2      16.408017   14.945395   23.974685 O.3        1 MOL1        -0.5519
       7    H3      16.085543   15.870730   23.831138 H          1 MOL1         0.3769
       8    C3      18.417872   14.727562   22.585557 C.3        1 MOL1         0.1053
       9    H4      18.585387   15.807932   22.671903 H          1 MOL1         0.0783
      10    O3      19.099707   14.052058   23.645573 O.3        1 MOL1        -0.5519
      11    H5      18.560685   14.239259   24.447423 H          1 MOL1         0.3769
      12    C4      18.949534   14.248564   21.209651 C.3        1 MOL1         0.1018
      13    H6      19.004503   13.151898   21.227154 H          1 MOL1         0.0783
      14    C5      18.042949   14.711327   20.030634 C.3        1 MOL1         0.1043
      15    H7      18.182736   15.790235   19.897345 H          1 MOL1         0.0783
      16    O4      16.643428   14.457689   20.322588 O.3        1 MOL1        -0.3740
      17    C6      18.394620   14.035064   18.684163 C.3        1 MOL1         0.0138
      18    H8      19.359908   14.429357   18.338423 H          1 MOL1         0.0794
      19    H9      17.639267   14.321348   17.940143 H          1 MOL1         0.0794
      20    O5      18.466447   12.608259   18.798919 O.3        1 MOL1        -0.5486
      21    H10     18.620831   12.244463   17.899853 H          1 MOL1         0.3769
      22    C7      14.737370   20.287890   21.355653 C.3        1 MOL1         0.2972
      23    H11     14.071235   21.158692   21.302207 H          1 MOL1         0.0751
      24    O6      16.123807   20.678803   21.374676 O.3        1 MOL1        -0.3740
      25    C8      14.450254   19.484751   22.646123 C.3        1 MOL1         0.1003
      26    H12     13.410172   19.137236   22.593951 H          1 MOL1         0.0783
      27    O7      14.613807   20.311361   23.809917 O.3        1 MOL1        -0.5519
      28    H13     15.160011   21.090438   23.537424 H          1 MOL1         0.3769
      29    C9      15.366199   18.242043   22.731751 C.3        1 MOL1         0.1053
      30    H14     16.402849   18.586609   22.850075 H          1 MOL1         0.0783
      31    O8      14.981666   17.464119   23.867442 O.3        1 MOL1        -0.5519
      32    H15     14.848257   18.122452   24.586816 H          1 MOL1         0.3769
      33    C10     15.280088   17.387782   21.441195 C.3        1 MOL1         0.1018
      34    H16     14.321382   16.853732   21.435999 H          1 MOL1         0.0783
      35    C11     15.399421   18.252373   20.152506 C.3        1 MOL1         0.1043
      36    H17     16.433883   18.596844   20.073578 H          1 MOL1         0.0783
      37    O9      14.528841   19.412645   20.224633 O.3        1 MOL1        -0.3740
      38    C12     15.094449   17.476376   18.848288 C.3        1 MOL1         0.0138
      39    H18     15.922423   16.781619   18.651932 H          1 MOL1         0.0794
      40    H19     15.068503   18.192570   18.016225 H          1 MOL1         0.0794
      41    O10     13.859921   16.752760   18.911348 O.3        1 MOL1        -0.5486
      42    H20     14.038365   15.903937   19.369268 H          1 MOL1         0.3769
      43    C13     18.563858   24.022152   20.763419 C.3        1 MOL1         0.2972
      44    H21     18.961605   24.994215   20.444802 H          1 MOL1         0.0751
      45    O11     19.581606   23.197039   21.362113 O.3        1 MOL1        -0.3740
      46    C14     17.438522   24.200828   21.817425 C.3        1 MOL1         0.1003
      47    H22     16.643756   24.797462   21.351207 H          1 MOL1         0.0783
      48    O12     17.925713   24.891748   22.979011 O.3        1 MOL1        -0.5519
      49    H23     18.802530   24.492572   23.212331 H          1 MOL1         0.3769
      50    C15     16.834138   22.829460   22.217545 C.3        1 MOL1         0.1053
      51    H24     17.606421   22.253265   22.746249 H          1 MOL1         0.0783
      52    O13     15.706846   23.033191   23.075458 O.3        1 MOL1        -0.5519
      53    H25     15.997624   23.718148   23.718766 H          1 MOL1         0.3769
      54    C16     16.407838   22.029018   20.962393 C.3        1 MOL1         0.1018
      55    H26     15.532723   22.515769   20.512129 H          1 MOL1         0.0783
      56    C17     17.547630   21.966995   19.913590 C.3        1 MOL1         0.1043
      57    H27     18.374696   21.391465   20.345001 H          1 MOL1         0.0783
      58    O14     18.005816   23.311613   19.633675 O.3        1 MOL1        -0.3740
      59    C18     17.152126   21.277604   18.582060 C.3        1 MOL1         0.0138
      60    H28     17.317449   20.199558   18.690519 H          1 MOL1         0.0794
      61    H29     17.829243   21.626865   17.791325 H          1 MOL1         0.0794
      62    O15     15.789125   21.509126   18.205714 O.3        1 MOL1        -0.5486
      63    H30     15.229046   20.942574   18.784638 H          1 MOL1         0.3769
      64    C19     23.672691   22.874305   21.963243 C.3        1 MOL1         0.2972
      65    H31     24.749665   23.050471   22.078142 H          1 MOL1         0.0751
      66    O16     23.351432   21.474338   22.049898 O.3        1 MOL1        -0.3740
      67    C20     22.899277   23.600395   23.090218 C.3        1 MOL1         0.1003
      68    H32     23.113266   24.673483   23.002685 H          1 MOL1         0.0783
      69    O17     23.336273   23.130071   24.375808 O.3        1 MOL1        -0.5519
      70    H33     23.572546   22.175556   24.263454 H          1 MOL1         0.3769
      71    C21     21.373202   23.401084   22.930698 C.3        1 MOL1         0.1053
      72    H34     21.147793   22.341805   23.109506 H          1 MOL1         0.0783
      73    O18     20.685821   24.209521   23.892336 O.3        1 MOL1        -0.5519
      74    H35     21.154419   24.044907   24.740862 H          1 MOL1         0.3769
      75    C22     20.899339   23.763126   21.501563 C.3        1 MOL1         0.1018
      76    H36     20.890420   24.856648   21.404674 H          1 MOL1         0.0783
      77    C23     21.802272   23.135538   20.401231 C.3        1 MOL1         0.1043
      78    H37     21.617752   22.053990   20.391669 H          1 MOL1         0.0783
      79    O19     23.204996   23.374852   20.692922 O.3        1 MOL1        -0.3740
      80    C24     21.502220   23.666833   18.979498 C.3        1 MOL1         0.0138
      81    H38     20.529639   23.270890   18.658115 H          1 MOL1         0.0794
      82    H39     22.259296   23.270582   18.289802 H          1 MOL1         0.0794
      83    O20     21.484634   25.099244   18.930610 O.3        1 MOL1        -0.5486
      84    H40     21.340901   25.363641   17.995973 H          1 MOL1         0.3769
      85    C25     25.058707   17.679247   21.625443 C.3        1 MOL1         0.2972
      86    H41     25.784194   16.867636   21.486454 H          1 MOL1         0.0751
      87    O21     23.711051   17.173137   21.707545 O.3        1 MOL1        -0.3740
      88    C26     25.362208   18.422641   22.950840 C.3        1 MOL1         0.1003
      89    H42     26.392452   18.797109   22.891991 H          1 MOL1         0.0783
      90    O22     25.247575   17.521545   24.064245 O.3        1 MOL1        -0.5519
      91    H43     24.577524   16.839845   23.811483 H          1 MOL1         0.3769
      92    C27     24.422714   19.638159   23.137905 C.3        1 MOL1         0.1053
      93    H44     23.399142   19.264492   23.280184 H          1 MOL1         0.0783
      94    O23     24.831203   20.387642   24.287679 O.3        1 MOL1        -0.5519
      95    H45     24.975578   19.715797   24.990778 H          1 MOL1         0.3769
      96    C28     24.435522   20.543619   21.883875 C.3        1 MOL1         0.1018
      97    H46     25.409428   21.046483   21.821813 H          1 MOL1         0.0783
      98    C29     24.186543   19.720224   20.590642 C.3        1 MOL1         0.1043
      99    H47     23.171170   19.314363   20.643636 H          1 MOL1         0.0783
     100    O24     25.131793   18.620999   20.530790 O.3        1 MOL1        -0.3740
     101    C30     24.278029   20.530806   19.272734 C.3        1 MOL1         0.0138
     102    H48     23.299106   20.986745   19.078058 H          1 MOL1         0.0794
     103    H49     24.477180   19.835679   18.446404 H          1 MOL1         0.0794
     104    O25     25.279173   21.553214   19.306911 O.3        1 MOL1        -0.5486
     105    H50     24.860477   22.341432   19.722611 H          1 MOL1         0.3769
     106    C31     21.309150   13.965991   20.573603 C.3        1 MOL1         0.2972
     107    H51     20.910549   13.028441   20.164922 H          1 MOL1         0.0751
     108    O26     20.249819   14.847536   21.013911 O.3        1 MOL1        -0.3740
     109    C32     22.267870   13.692604   21.763640 C.3        1 MOL1         0.1003
     110    H52     23.107050   13.102105   21.373343 H          1 MOL1         0.0783
     111    O27     21.625350   12.944685   22.806229 O.3        1 MOL1        -0.5519
     112    H53     20.795753   13.428174   23.050478 H          1 MOL1         0.3769
     113    C33     22.841836   15.023006   22.311669 C.3        1 MOL1         0.1053
     114    H54     22.013114   15.608410   22.733641 H          1 MOL1         0.0783
     115    O28     23.810298   14.750434   23.330006 O.3        1 MOL1        -0.5519
     116    H55     23.401937   14.055047   23.892602 H          1 MOL1         0.3769
     117    C34     23.496321   15.849583   21.176839 C.3        1 MOL1         0.1018
     118    H56     24.436410   15.358154   20.894051 H          1 MOL1         0.0783
     119    C35     22.574980   15.961588   19.930144 C.3        1 MOL1         0.1043
     120    H57     21.721824   16.584659   20.203257 H          1 MOL1         0.0783
     121    O29     22.081316   14.651188   19.562005 O.3        1 MOL1        -0.3740
     122    C36     23.230378   16.615111   18.687235 C.3        1 MOL1         0.0138
     123    H58     23.130150   17.703514   18.773070 H          1 MOL1         0.0794
     124    H59     22.666121   16.312350   17.795099 H          1 MOL1         0.0794
     125    O30     24.613013   16.277344   18.534090 O.3        1 MOL1        -0.5486
     126    H60     25.122781   16.919862   19.077717 H          1 MOL1         0.3769
     127    C1      19.470451   18.202849   19.314596 C.3        1 MOL1        -0.1693
     128    H1      19.943356   17.230571   19.138889 H          1 MOL1         0.0829
     129    H2      18.675337   18.331930   18.572376 H          1 MOL1         0.0829
     130    C2      20.464796   19.398817   19.470010 C.3        1 MOL1        -0.1768
     131    H3      21.410472   19.306709   18.928985 H          1 MOL1         0.0829
     132    H4      20.038198   20.382736   19.250497 H          1 MOL1         0.0829
     133    C3      20.508132   19.039918   20.987553 C.3        1 MOL1         0.1211
     134    H5      21.247900   18.280229   21.259769 H          1 MOL1         0.0786
     135    C4      19.074181   18.480554   20.801807 C.3        1 MOL1        -0.1768
     136    H6      18.832795   17.605334   21.408528 H          1 MOL1         0.0829
     137    H7      18.294516   19.231218   20.949049 H          1 MOL1         0.0829
     138    O1      20.594023   20.134928   21.860102 O.3        1 MOL1        -0.5515
     139    H8      20.430021   19.805407   22.764286 H          1 MOL1         0.3773
@<TRIPOS>BOND
    1     1     2    1
    2     1     3    1
    3     1     4    1
    4     4     5    1
    5     4     6    1
    6     6     7    1
    7     4     8    1
    8     8     9    1
    9     8    10    1
   10    10    11    1
   11     8    12    1
   12    12    13    1
   13    12    14    1
   14    14    15    1
   15     1    16    1
   16    14    16    1
   17    14    17    1
   18    17    18    1
   19    17    19    1
   20    17    20    1
   21    20    21    1
   22    22    23    1
   23    22    24    1
   24    22    25    1
   25    25    26    1
   26    25    27    1
   27    27    28    1
   28    25    29    1
   29    29    30    1
   30    29    31    1
   31    31    32    1
   32     3    33    1
   33    29    33    1
   34    33    34    1
   35    33    35    1
   36    35    36    1
   37    22    37    1
   38    35    37    1
   39    35    38    1
   40    38    39    1
   41    38    40    1
   42    38    41    1
   43    41    42    1
   44    43    44    1
   45    43    45    1
   46    43    46    1
   47    46    47    1
   48    46    48    1
   49    48    49    1
   50    46    50    1
   51    50    51    1
   52    50    52    1
   53    52    53    1
   54    24    54    1
   55    50    54    1
   56    54    55    1
   57    54    56    1
   58    56    57    1
   59    43    58    1
   60    56    58    1
   61    56    59    1
   62    59    60    1
   63    59    61    1
   64    59    62    1
   65    62    63    1
   66    64    65    1
   67    64    66    1
   68    64    67    1
   69    67    68    1
   70    67    69    1
   71    69    70    1
   72    67    71    1
   73    71    72    1
   74    71    73    1
   75    73    74    1
   76    45    75    1
   77    71    75    1
   78    75    76    1
   79    75    77    1
   80    77    78    1
   81    64    79    1
   82    77    79    1
   83    77    80    1
   84    80    81    1
   85    80    82    1
   86    80    83    1
   87    83    84    1
   88    85    86    1
   89    85    87    1
   90    85    88    1
   91    88    89    1
   92    88    90    1
   93    90    91    1
   94    88    92    1
   95    92    93    1
   96    92    94    1
   97    94    95    1
   98    66    96    1
   99    92    96    1
  100    96    97    1
  101    96    98    1
  102    98    99    1
  103    85   100    1
  104    98   100    1
  105    98   101    1
  106   101   102    1
  107   101   103    1
  108   101   104    1
  109   104   105    1
  110   106   107    1
  111    12   108    1
  112   106   108    1
  113   106   109    1
  114   109   110    1
  115   109   111    1
  116   111   112    1
  117   109   113    1
  118   113   114    1
  119   113   115    1
  120   115   116    1
  121    87   117    1
  122   113   117    1
  123   117   118    1
  124   117   119    1
  125   119   120    1
  126   106   121    1
  127   119   121    1
  128   119   122    1
  129   122   123    1
  130   122   124    1
  131   122   125    1
  132   125   126    1
  133   127   128    1
  134   127   129    1
  135   127   130    1
  136   130   131    1
  137   130   132    1
  138   130   133    1
  139   133   134    1
  140   127   135    1
  141   133   135    1
  142   135   136    1
  143   135   137    1
  144   133   138    1
  145   138   139    1
@<TRIPOS>SUBSTRUCTURE
       1 MOL1            1 RESIDUE      1      MOL     
       2 MOL1          139 RESIDUE      1      MOL     
@<SCITEGIC>MOL_PROPERTY
feprocess Rank
SciTegic.value.IntegerValue
195

@<SCITEGIC>MOL_PROPERTY
Conf_Id
SciTegic.value.IntegerValue
501

@<SCITEGIC>MOL_PROPERTY
Probability
SciTegic.value.DoubleValue
0.00

@<SCITEGIC>MOL_PROPERTY
G
SciTegic.value.DoubleValue
551.362

@<SCITEGIC>MOL_PROPERTY
E
SciTegic.value.DoubleValue
373.140

@<SCITEGIC>MOL_PROPERTY
-TS
SciTegic.value.DoubleValue
178.223

@<SCITEGIC>MOL_PROPERTY
U+W
SciTegic.value.DoubleValue
250.628

@<SCITEGIC>MOL_PROPERTY
U
SciTegic.value.DoubleValue
289.064

@<SCITEGIC>MOL_PROPERTY
W
SciTegic.value.DoubleValue
-38.436

@<SCITEGIC>MOL_PROPERTY
W(PB)
SciTegic.value.DoubleValue
-44.409

@<SCITEGIC>MOL_PROPERTY
W(SA)
SciTegic.value.DoubleValue
5.973

@<SCITEGIC>MOL_PROPERTY
Valence
SciTegic.value.DoubleValue
156.804

@<SCITEGIC>MOL_PROPERTY
Coulomb
SciTegic.value.DoubleValue
155.222

@<SCITEGIC>MOL_PROPERTY
VdW
SciTegic.value.DoubleValue
-22.962

@<SCITEGIC>MOL_PROPERTY
VdW6
SciTegic.value.DoubleValue
-169.259

@<SCITEGIC>MOL_PROPERTY
VdW12
SciTegic.value.DoubleValue
146.297

@<SCITEGIC>MOL_PROPERTY
Bond
SciTegic.value.DoubleValue
4.752

@<SCITEGIC>MOL_PROPERTY
Angle
SciTegic.value.DoubleValue
11.180

@<SCITEGIC>MOL_PROPERTY
Pdih
SciTegic.value.DoubleValue
140.871

@<SCITEGIC>MOL_PROPERTY
Idih
SciTegic.value.DoubleValue
0.000

@<SCITEGIC>MOL_PROPERTY
Tether
SciTegic.value.DoubleValue
0.000

@<TRIPOS>MOLECULE
CD_guest-s16_fast_vm2_rndm.mol2 : feprocess host+ligand conformer 196
         139         145           2
SMALL
USER_CHARGES
 
@<TRIPOS>ATOM
       1    C1      16.289534   15.336512   20.554097 C.3        1 MOL1         0.2972
       2    H1      15.273402   15.206825   20.159760 H          1 MOL1         0.0751
       3    O1      16.482524   16.658234   21.109356 O.3        1 MOL1        -0.3740
       4    C2      16.586490   14.289711   21.661805 C.3        1 MOL1         0.1003
       5    H2      16.487574   13.296567   21.204562 H          1 MOL1         0.0783
       6    O2      15.654344   14.393587   22.748870 O.3        1 MOL1        -0.5519
       7    H3      15.564422   15.353674   22.977313 H          1 MOL1         0.3769
       8    C3      18.042173   14.430298   22.173211 C.3        1 MOL1         0.1053
       9    H4      18.139852   15.403488   22.674041 H          1 MOL1         0.0783
      10    O3      18.334228   13.378098   23.097987 O.3        1 MOL1        -0.5519
      11    H5      17.542573   13.323175   23.679267 H          1 MOL1         0.3769
      12    C4      19.041651   14.386105   20.991575 C.3        1 MOL1         0.1018
      13    H6      19.075292   13.363209   20.593914 H          1 MOL1         0.0783
      14    C5      18.635944   15.362854   19.858005 C.3        1 MOL1         0.1043
      15    H7      18.733091   16.379804   20.246379 H          1 MOL1         0.0783
      16    O4      17.253859   15.137667   19.495527 O.3        1 MOL1        -0.3740
      17    C6      19.516587   15.272522   18.584695 C.3        1 MOL1         0.0138
      18    H8      20.379392   15.936527   18.712410 H          1 MOL1         0.0794
      19    H9      18.941279   15.657522   17.732235 H          1 MOL1         0.0794
      20    O5      19.980318   13.945586   18.309186 O.3        1 MOL1        -0.5486
      21    H10     20.724090   13.765081   18.929010 H          1 MOL1         0.3769
      22    C7      14.593745   20.312617   21.618130 C.3        1 MOL1         0.2972
      23    H11     13.898867   21.158215   21.697124 H          1 MOL1         0.0751
      24    O6      15.964205   20.730042   21.749487 O.3        1 MOL1        -0.3740
      25    C8      14.309828   19.286341   22.740610 C.3        1 MOL1         0.1003
      26    H12     13.287407   18.912573   22.599052 H          1 MOL1         0.0783
      27    O7      14.414165   19.912630   24.029414 O.3        1 MOL1        -0.5519
      28    H13     15.126910   20.596361   23.958777 H          1 MOL1         0.3769
      29    C9      15.278975   18.084049   22.642911 C.3        1 MOL1         0.1053
      30    H14     16.284985   18.443237   22.888523 H          1 MOL1         0.0783
      31    O8      14.887171   17.086411   23.590264 O.3        1 MOL1        -0.5519
      32    H15     14.731153   17.580339   24.426289 H          1 MOL1         0.3769
      33    C10     15.297511   17.480883   21.213524 C.3        1 MOL1         0.1018
      34    H16     14.378593   16.893774   21.084710 H          1 MOL1         0.0783
      35    C11     15.384425   18.564044   20.098283 C.3        1 MOL1         0.1043
      36    H17     16.401671   18.973557   20.103412 H          1 MOL1         0.0783
      37    O9      14.444754   19.641862   20.349657 O.3        1 MOL1        -0.3740
      38    C12     15.123246   18.007670   18.678282 C.3        1 MOL1         0.0138
      39    H18     15.974924   17.377464   18.388558 H          1 MOL1         0.0794
      40    H19     15.084709   18.848812   17.973269 H          1 MOL1         0.0794
      41    O10     13.911332   17.245790   18.611672 O.3        1 MOL1        -0.5486
      42    H20     13.779172   16.977065   17.676479 H          1 MOL1         0.3769
      43    C13     18.428734   24.094940   21.527031 C.3        1 MOL1         0.2972
      44    H21     18.786239   25.127797   21.427382 H          1 MOL1         0.0751
      45    O11     19.525925   23.168003   21.649071 O.3        1 MOL1        -0.3740
      46    C14     17.563629   23.967856   22.806361 C.3        1 MOL1         0.1003
      47    H22     16.733248   24.680258   22.716624 H          1 MOL1         0.0783
      48    O12     18.344164   24.292694   23.968034 O.3        1 MOL1        -0.5519
      49    H23     19.280185   24.058150   23.754647 H          1 MOL1         0.3769
      50    C15     16.962228   22.547687   22.936189 C.3        1 MOL1         0.1053
      51    H24     17.783398   21.837854   23.110190 H          1 MOL1         0.0783
      52    O13     16.047899   22.514348   24.037677 O.3        1 MOL1        -0.5519
      53    H25     16.523416   22.957157   24.775551 H          1 MOL1         0.3769
      54    C16     16.236814   22.136392   21.633458 C.3        1 MOL1         0.1018
      55    H26     15.320112   22.732296   21.534647 H          1 MOL1         0.0783
      56    C17     17.140855   22.351538   20.389698 C.3        1 MOL1         0.1043
      57    H27     17.991527   21.666691   20.474224 H          1 MOL1         0.0783
      58    O14     17.632271   23.716603   20.380935 O.3        1 MOL1        -0.3740
      59    C18     16.457327   22.054490   19.030327 C.3        1 MOL1         0.0138
      60    H28     16.552974   20.981586   18.820806 H          1 MOL1         0.0794
      61    H29     17.003803   22.585119   18.239361 H          1 MOL1         0.0794
      62    O15     15.073807   22.420562   19.002339 O.3        1 MOL1        -0.5486
      63    H30     14.574275   21.664862   19.386834 H          1 MOL1         0.3769
      64    C19     23.545541   22.652151   20.697422 C.3        1 MOL1         0.2972
      65    H31     24.572984   22.761558   20.326899 H          1 MOL1         0.0751
      66    O16     23.289791   21.309246   21.169100 O.3        1 MOL1        -0.3740
      67    C20     23.256904   23.655288   21.846426 C.3        1 MOL1         0.1003
      68    H32     23.370247   24.664829   21.430250 H          1 MOL1         0.0783
      69    O17     24.179546   23.499621   22.934548 O.3        1 MOL1        -0.5519
      70    H33     24.155750   22.548044   23.209626 H          1 MOL1         0.3769
      71    C21     21.795210   23.508452   22.337871 C.3        1 MOL1         0.1053
      72    H34     21.681669   22.512783   22.788926 H          1 MOL1         0.0783
      73    O18     21.507930   24.517181   23.312071 O.3        1 MOL1        -0.5519
      74    H35     22.288730   24.526612   23.909580 H          1 MOL1         0.3769
      75    C22     20.800905   23.625011   21.155648 C.3        1 MOL1         0.1018
      76    H36     20.770097   24.674368   20.834389 H          1 MOL1         0.0783
      77    C23     21.213511   22.727922   19.955493 C.3        1 MOL1         0.1043
      78    H37     21.087047   21.686989   20.260762 H          1 MOL1         0.0783
      79    O19     22.608931   22.945733   19.637059 O.3        1 MOL1        -0.3740
      80    C24     20.374907   22.926960   18.667272 C.3        1 MOL1         0.0138
      81    H38     19.489797   22.283211   18.725181 H          1 MOL1         0.0794
      82    H39     20.965205   22.579055   17.809074 H          1 MOL1         0.0794
      83    O20     19.962448   24.282630   18.463841 O.3        1 MOL1        -0.5486
      84    H40     19.145590   24.413266   18.997789 H          1 MOL1         0.3769
      85    C25     25.134189   17.647117   21.861724 C.3        1 MOL1         0.2972
      86    H41     25.841128   16.823018   22.019214 H          1 MOL1         0.0751
      87    O21     23.775654   17.175856   21.741776 O.3        1 MOL1        -0.3740
      88    C26     25.211443   18.651262   23.039620 C.3        1 MOL1         0.1003
      89    H42     26.227592   19.066964   23.046109 H          1 MOL1         0.0783
      90    O22     24.967318   18.008223   24.299696 O.3        1 MOL1        -0.5519
      91    H43     24.337592   17.261502   24.136167 H          1 MOL1         0.3769
      92    C27     24.226303   19.824224   22.826534 C.3        1 MOL1         0.1053
      93    H44     23.204190   19.427976   22.867929 H          1 MOL1         0.0783
      94    O23     24.412185   20.780109   23.873940 O.3        1 MOL1        -0.5519
      95    H45     24.472876   20.241303   24.695177 H          1 MOL1         0.3769
      96    C28     24.446817   20.489959   21.443537 C.3        1 MOL1         0.1018
      97    H46     25.366960   21.087349   21.493704 H          1 MOL1         0.0783
      98    C29     24.558419   19.445440   20.293820 C.3        1 MOL1         0.1043
      99    H47     23.562115   19.021215   20.121388 H          1 MOL1         0.0783
     100    O24     25.465452   18.372159   20.658568 O.3        1 MOL1        -0.3740
     101    C30     25.033534   20.055296   18.953491 C.3        1 MOL1         0.0138
     102    H48     24.226031   20.681615   18.550464 H          1 MOL1         0.0794
     103    H49     25.202703   19.239790   18.237663 H          1 MOL1         0.0794
     104    O25     26.223854   20.838449   19.108129 O.3        1 MOL1        -0.5486
     105    H50     26.506309   21.130896   18.214156 H          1 MOL1         0.3769
     106    C31     21.351388   13.815441   21.548598 C.3        1 MOL1         0.2972
     107    H51     20.936303   12.801153   21.487194 H          1 MOL1         0.0751
     108    O26     20.318850   14.818211   21.493441 O.3        1 MOL1        -0.3740
     109    C32     22.109374   13.993012   22.884924 C.3        1 MOL1         0.1003
     110    H52     22.933955   13.268329   22.897109 H          1 MOL1         0.0783
     111    O27     21.238801   13.738784   23.999478 O.3        1 MOL1        -0.5519
     112    H53     20.311467   13.854690   23.674446 H          1 MOL1         0.3769
     113    C33     22.716188   15.411942   22.983446 C.3        1 MOL1         0.1053
     114    H54     21.891247   16.135443   23.042069 H          1 MOL1         0.0783
     115    O28     23.515100   15.492952   24.166032 O.3        1 MOL1        -0.5519
     116    H55     22.972128   15.062396   24.864787 H          1 MOL1         0.3769
     117    C34     23.571161   15.747601   21.734967 C.3        1 MOL1         0.1018
     118    H56     24.515047   15.190963   21.795285 H          1 MOL1         0.0783
     119    C35     22.843477   15.393747   20.406002 C.3        1 MOL1         0.1043
     120    H57     22.030849   16.112152   20.267766 H          1 MOL1         0.0783
     121    O29     22.277781   14.057750   20.466500 O.3        1 MOL1        -0.3740
     122    C36     23.743445   15.501135   19.151054 C.3        1 MOL1         0.0138
     123    H58     23.934090   16.563351   18.945967 H          1 MOL1         0.0794
     124    H59     23.190074   15.099751   18.291643 H          1 MOL1         0.0794
     125    O30     24.986982   14.806505   19.301305 O.3        1 MOL1        -0.5486
     126    H60     25.601999   15.402662   19.779261 H          1 MOL1         0.3769
     127    C1      20.812527   18.912117   19.374627 C.3        1 MOL1        -0.1693
     128    H1      21.415403   19.809213   19.195372 H          1 MOL1         0.0829
     129    H2      21.135142   18.140956   18.666714 H          1 MOL1         0.0829
     130    C2      19.271502   19.162586   19.460326 C.3        1 MOL1        -0.1768
     131    H3      18.897301   20.016454   18.888425 H          1 MOL1         0.0829
     132    H4      18.653054   18.293688   19.216278 H          1 MOL1         0.0829
     133    C3      19.492385   19.410354   20.984850 C.3        1 MOL1         0.1211
     134    H5      19.750592   20.441352   21.248817 H          1 MOL1         0.0786
     135    C4      20.724071   18.474200   20.873338 C.3        1 MOL1        -0.1768
     136    H6      20.495043   17.420906   21.045836 H          1 MOL1         0.0829
     137    H7      21.572155   18.748671   21.505225 H          1 MOL1         0.0829
     138    O1      18.475786   18.942366   21.831314 O.3        1 MOL1        -0.5515
     139    H8      18.169432   18.075582   21.497582 H          1 MOL1         0.3773
@<TRIPOS>BOND
    1     1     2    1
    2     1     3    1
    3     1     4    1
    4     4     5    1
    5     4     6    1
    6     6     7    1
    7     4     8    1
    8     8     9    1
    9     8    10    1
   10    10    11    1
   11     8    12    1
   12    12    13    1
   13    12    14    1
   14    14    15    1
   15     1    16    1
   16    14    16    1
   17    14    17    1
   18    17    18    1
   19    17    19    1
   20    17    20    1
   21    20    21    1
   22    22    23    1
   23    22    24    1
   24    22    25    1
   25    25    26    1
   26    25    27    1
   27    27    28    1
   28    25    29    1
   29    29    30    1
   30    29    31    1
   31    31    32    1
   32     3    33    1
   33    29    33    1
   34    33    34    1
   35    33    35    1
   36    35    36    1
   37    22    37    1
   38    35    37    1
   39    35    38    1
   40    38    39    1
   41    38    40    1
   42    38    41    1
   43    41    42    1
   44    43    44    1
   45    43    45    1
   46    43    46    1
   47    46    47    1
   48    46    48    1
   49    48    49    1
   50    46    50    1
   51    50    51    1
   52    50    52    1
   53    52    53    1
   54    24    54    1
   55    50    54    1
   56    54    55    1
   57    54    56    1
   58    56    57    1
   59    43    58    1
   60    56    58    1
   61    56    59    1
   62    59    60    1
   63    59    61    1
   64    59    62    1
   65    62    63    1
   66    64    65    1
   67    64    66    1
   68    64    67    1
   69    67    68    1
   70    67    69    1
   71    69    70    1
   72    67    71    1
   73    71    72    1
   74    71    73    1
   75    73    74    1
   76    45    75    1
   77    71    75    1
   78    75    76    1
   79    75    77    1
   80    77    78    1
   81    64    79    1
   82    77    79    1
   83    77    80    1
   84    80    81    1
   85    80    82    1
   86    80    83    1
   87    83    84    1
   88    85    86    1
   89    85    87    1
   90    85    88    1
   91    88    89    1
   92    88    90    1
   93    90    91    1
   94    88    92    1
   95    92    93    1
   96    92    94    1
   97    94    95    1
   98    66    96    1
   99    92    96    1
  100    96    97    1
  101    96    98    1
  102    98    99    1
  103    85   100    1
  104    98   100    1
  105    98   101    1
  106   101   102    1
  107   101   103    1
  108   101   104    1
  109   104   105    1
  110   106   107    1
  111    12   108    1
  112   106   108    1
  113   106   109    1
  114   109   110    1
  115   109   111    1
  116   111   112    1
  117   109   113    1
  118   113   114    1
  119   113   115    1
  120   115   116    1
  121    87   117    1
  122   113   117    1
  123   117   118    1
  124   117   119    1
  125   119   120    1
  126   106   121    1
  127   119   121    1
  128   119   122    1
  129   122   123    1
  130   122   124    1
  131   122   125    1
  132   125   126    1
  133   127   128    1
  134   127   129    1
  135   127   130    1
  136   130   131    1
  137   130   132    1
  138   130   133    1
  139   133   134    1
  140   127   135    1
  141   133   135    1
  142   135   136    1
  143   135   137    1
  144   133   138    1
  145   138   139    1
@<TRIPOS>SUBSTRUCTURE
       1 MOL1            1 RESIDUE      1      MOL     
       2 MOL1          139 RESIDUE      1      MOL     
@<SCITEGIC>MOL_PROPERTY
feprocess Rank
SciTegic.value.IntegerValue
196

@<SCITEGIC>MOL_PROPERTY
Conf_Id
SciTegic.value.IntegerValue
639

@<SCITEGIC>MOL_PROPERTY
Probability
SciTegic.value.DoubleValue
0.00

@<SCITEGIC>MOL_PROPERTY
G
SciTegic.value.DoubleValue
551.395

@<SCITEGIC>MOL_PROPERTY
E
SciTegic.value.DoubleValue
373.430

@<SCITEGIC>MOL_PROPERTY
-TS
SciTegic.value.DoubleValue
177.965

@<SCITEGIC>MOL_PROPERTY
U+W
SciTegic.value.DoubleValue
250.919

@<SCITEGIC>MOL_PROPERTY
U
SciTegic.value.DoubleValue
288.286

@<SCITEGIC>MOL_PROPERTY
W
SciTegic.value.DoubleValue
-37.367

@<SCITEGIC>MOL_PROPERTY
W(PB)
SciTegic.value.DoubleValue
-43.378

@<SCITEGIC>MOL_PROPERTY
W(SA)
SciTegic.value.DoubleValue
6.012

@<SCITEGIC>MOL_PROPERTY
Valence
SciTegic.value.DoubleValue
157.352

@<SCITEGIC>MOL_PROPERTY
Coulomb
SciTegic.value.DoubleValue
153.922

@<SCITEGIC>MOL_PROPERTY
VdW
SciTegic.value.DoubleValue
-22.989

@<SCITEGIC>MOL_PROPERTY
VdW6
SciTegic.value.DoubleValue
-169.803

@<SCITEGIC>MOL_PROPERTY
VdW12
SciTegic.value.DoubleValue
146.815

@<SCITEGIC>MOL_PROPERTY
Bond
SciTegic.value.DoubleValue
4.739

@<SCITEGIC>MOL_PROPERTY
Angle
SciTegic.value.DoubleValue
10.946

@<SCITEGIC>MOL_PROPERTY
Pdih
SciTegic.value.DoubleValue
141.668

@<SCITEGIC>MOL_PROPERTY
Idih
SciTegic.value.DoubleValue
0.000

@<SCITEGIC>MOL_PROPERTY
Tether
SciTegic.value.DoubleValue
0.000

@<TRIPOS>MOLECULE
CD_guest-s16_fast_vm2_rndm.mol2 : feprocess host+ligand conformer 197
         139         145           2
SMALL
USER_CHARGES
 
@<TRIPOS>ATOM
       1    C1      16.331808   15.313105   20.273267 C.3        1 MOL1         0.2972
       2    H1      15.326890   15.258522   19.835154 H          1 MOL1         0.0751
       3    O1      16.613194   16.638761   20.779077 O.3        1 MOL1        -0.3740
       4    C2      16.510969   14.259449   21.400921 C.3        1 MOL1         0.1003
       5    H2      16.407515   13.271283   20.933894 H          1 MOL1         0.0783
       6    O2      15.515328   14.384543   22.426181 O.3        1 MOL1        -0.5519
       7    H3      15.643498   15.271884   22.846290 H          1 MOL1         0.3769
       8    C3      17.936097   14.350175   21.999330 C.3        1 MOL1         0.1053
       9    H4      18.041848   15.327849   22.489453 H          1 MOL1         0.0783
      10    O3      18.127070   13.304816   22.958930 O.3        1 MOL1        -0.5519
      11    H5      17.305819   13.296794   23.499043 H          1 MOL1         0.3769
      12    C4      19.010379   14.240618   20.887970 C.3        1 MOL1         0.1018
      13    H6      19.044306   13.196554   20.550560 H          1 MOL1         0.0783
      14    C5      18.706375   15.169292   19.674111 C.3        1 MOL1         0.1043
      15    H7      18.856264   16.207654   19.987653 H          1 MOL1         0.0783
      16    O4      17.323874   15.005485   19.267760 O.3        1 MOL1        -0.3740
      17    C6      19.610806   14.942794   18.434359 C.3        1 MOL1         0.0138
      18    H8      20.498844   15.578519   18.527456 H          1 MOL1         0.0794
      19    H9      19.070395   15.284897   17.541626 H          1 MOL1         0.0794
      20    O5      20.019460   13.580648   18.268276 O.3        1 MOL1        -0.5486
      21    H10     20.795075   13.443354   18.859332 H          1 MOL1         0.3769
      22    C7      14.941381   20.220305   22.020776 C.3        1 MOL1         0.2972
      23    H11     14.286402   21.034770   22.356445 H          1 MOL1         0.0751
      24    O6      16.265459   20.698070   21.712708 O.3        1 MOL1        -0.3740
      25    C8      15.045767   19.141352   23.125372 C.3        1 MOL1         0.1003
      26    H12     14.033416   18.753764   23.299125 H          1 MOL1         0.0783
      27    O7      15.551165   19.701713   24.348040 O.3        1 MOL1        -0.5519
      28    H13     15.892049   20.606000   24.135165 H          1 MOL1         0.3769
      29    C9      15.934528   17.961729   22.669514 C.3        1 MOL1         0.1053
      30    H14     16.962558   18.325768   22.578396 H          1 MOL1         0.0783
      31    O8      15.881855   16.937360   23.665802 O.3        1 MOL1        -0.5519
      32    H15     15.996332   17.415651   24.518224 H          1 MOL1         0.3769
      33    C10     15.499937   17.407821   21.287688 C.3        1 MOL1         0.1018
      34    H16     14.600550   16.792226   21.421453 H          1 MOL1         0.0783
      35    C11     15.219642   18.539447   20.254150 C.3        1 MOL1         0.1043
      36    H17     16.183304   18.965939   19.953477 H          1 MOL1         0.0783
      37    O9      14.407327   19.593512   20.835481 O.3        1 MOL1        -0.3740
      38    C12     14.524322   18.038012   18.966247 C.3        1 MOL1         0.0138
      39    H18     15.243734   17.437049   18.393628 H          1 MOL1         0.0794
      40    H19     14.260470   18.907133   18.348665 H          1 MOL1         0.0794
      41    O10     13.357826   17.256435   19.252044 O.3        1 MOL1        -0.5486
      42    H20     12.925247   17.042436   18.396641 H          1 MOL1         0.3769
      43    C13     18.411420   24.274358   21.389834 C.3        1 MOL1         0.2972
      44    H21     18.705533   25.322244   21.249441 H          1 MOL1         0.0751
      45    O11     19.560004   23.427028   21.579357 O.3        1 MOL1        -0.3740
      46    C14     17.545113   24.131052   22.668361 C.3        1 MOL1         0.1003
      47    H22     16.654696   24.760409   22.541539 H          1 MOL1         0.0783
      48    O12     18.284896   24.574523   23.816113 O.3        1 MOL1        -0.5519
      49    H23     19.213995   24.273505   23.673195 H          1 MOL1         0.3769
      50    C15     17.078495   22.665736   22.865429 C.3        1 MOL1         0.1053
      51    H24     17.962793   22.047052   23.075110 H          1 MOL1         0.0783
      52    O13     16.165856   22.599360   23.965747 O.3        1 MOL1        -0.5519
      53    H25     16.580833   23.143610   24.672287 H          1 MOL1         0.3769
      54    C16     16.404645   22.127173   21.580557 C.3        1 MOL1         0.1018
      55    H26     15.435077   22.625345   21.448842 H          1 MOL1         0.0783
      56    C17     17.280217   22.388185   20.328752 C.3        1 MOL1         0.1043
      57    H27     18.194282   21.800706   20.444362 H          1 MOL1         0.0783
      58    O14     17.643482   23.791021   20.262409 O.3        1 MOL1        -0.3740
      59    C18     16.621235   21.957011   18.991798 C.3        1 MOL1         0.0138
      60    H28     16.869435   20.903499   18.809180 H          1 MOL1         0.0794
      61    H29     17.067900   22.537737   18.173961 H          1 MOL1         0.0794
      62    O15     15.197200   22.115479   18.986094 O.3        1 MOL1        -0.5486
      63    H30     14.824416   21.416471   19.571176 H          1 MOL1         0.3769
      64    C19     23.483823   22.625834   20.518813 C.3        1 MOL1         0.2972
      65    H31     24.508694   22.648949   20.127146 H          1 MOL1         0.0751
      66    O16     23.138890   21.299293   20.990707 O.3        1 MOL1        -0.3740
      67    C20     23.304088   23.678806   21.647380 C.3        1 MOL1         0.1003
      68    H32     23.509918   24.660133   21.200411 H          1 MOL1         0.0783
      69    O17     24.216959   23.470683   22.735378 O.3        1 MOL1        -0.5519
      70    H33     23.988660   22.594549   23.137416 H          1 MOL1         0.3769
      71    C21     21.845592   23.696333   22.162753 C.3        1 MOL1         0.1053
      72    H34     21.661001   22.745630   22.680045 H          1 MOL1         0.0783
      73    O18     21.680171   24.781521   23.082475 O.3        1 MOL1        -0.5519
      74    H35     22.454624   24.729263   23.684924 H          1 MOL1         0.3769
      75    C22     20.819424   23.830562   21.006373 C.3        1 MOL1         0.1018
      76    H36     20.806032   24.877637   20.677747 H          1 MOL1         0.0783
      77    C23     21.151139   22.892594   19.804353 C.3        1 MOL1         0.1043
      78    H37     20.937824   21.863188   20.105781 H          1 MOL1         0.0783
      79    O19     22.558045   22.988760   19.471750 O.3        1 MOL1        -0.3740
      80    C24     20.334771   23.151304   18.511514 C.3        1 MOL1         0.0138
      81    H38     19.441028   22.517603   18.530625 H          1 MOL1         0.0794
      82    H39     20.932319   22.823171   17.650472 H          1 MOL1         0.0794
      83    O20     19.947191   24.518994   18.344072 O.3        1 MOL1        -0.5486
      84    H40     19.128447   24.645074   18.875443 H          1 MOL1         0.3769
      85    C25     24.837346   17.709673   22.256765 C.3        1 MOL1         0.2972
      86    H41     25.496542   16.911974   22.622553 H          1 MOL1         0.0751
      87    O21     23.573226   17.186920   21.799429 O.3        1 MOL1        -0.3740
      88    C26     24.583141   18.748234   23.379186 C.3        1 MOL1         0.1003
      89    H42     25.555795   19.180823   23.647654 H          1 MOL1         0.0783
      90    O22     24.006492   18.137486   24.544335 O.3        1 MOL1        -0.5519
      91    H43     23.768861   17.208362   24.302878 H          1 MOL1         0.3769
      92    C27     23.677905   19.894887   22.875218 C.3        1 MOL1         0.1053
      93    H44     22.686846   19.472641   22.676112 H          1 MOL1         0.0783
      94    O23     23.583119   20.895247   23.893309 O.3        1 MOL1        -0.5519
      95    H45     23.363884   20.395662   24.711679 H          1 MOL1         0.3769
      96    C28     24.217545   20.519051   21.563347 C.3        1 MOL1         0.1018
      97    H46     25.084595   21.144555   21.813252 H          1 MOL1         0.0783
      98    C29     24.645082   19.440122   20.523299 C.3        1 MOL1         0.1043
      99    H47     23.739696   18.977658   20.115394 H          1 MOL1         0.0783
     100    O24     25.451669   18.409130   21.153079 O.3        1 MOL1        -0.3740
     101    C30     25.438028   20.014988   19.325340 C.3        1 MOL1         0.0138
     102    H48     24.749047   20.596990   18.698392 H          1 MOL1         0.0794
     103    H49     25.805861   19.178748   18.715699 H          1 MOL1         0.0794
     104    O25     26.529617   20.842880   19.745573 O.3        1 MOL1        -0.5486
     105    H50     27.036731   21.097486   18.943942 H          1 MOL1         0.3769
     106    C31     21.342007   13.710858   21.440022 C.3        1 MOL1         0.2972
     107    H51     20.979476   12.682619   21.314111 H          1 MOL1         0.0751
     108    O26     20.252265   14.654946   21.490880 O.3        1 MOL1        -0.3740
     109    C32     22.125346   13.830087   22.769582 C.3        1 MOL1         0.1003
     110    H52     22.976400   13.138586   22.716967 H          1 MOL1         0.0783
     111    O27     21.282734   13.466491   23.874559 O.3        1 MOL1        -0.5519
     112    H53     20.360766   13.712851   23.619073 H          1 MOL1         0.3769
     113    C33     22.680720   15.262258   22.963271 C.3        1 MOL1         0.1053
     114    H54     21.827588   15.934160   23.123520 H          1 MOL1         0.0783
     115    O28     23.532963   15.282382   24.111452 O.3        1 MOL1        -0.5519
     116    H55     23.050889   14.762520   24.793983 H          1 MOL1         0.3769
     117    C34     23.456633   15.750822   21.712113 C.3        1 MOL1         0.1018
     118    H56     24.437081   15.258615   21.680361 H          1 MOL1         0.0783
     119    C35     22.693175   15.452805   20.393515 C.3        1 MOL1         0.1043
     120    H57     21.821387   16.109841   20.370127 H          1 MOL1         0.0783
     121    O29     22.229480   14.079662   20.362560 O.3        1 MOL1        -0.3740
     122    C36     23.513241   15.743368   19.111994 C.3        1 MOL1         0.0138
     123    H58     23.551285   16.830377   18.961298 H          1 MOL1         0.0794
     124    H59     22.981263   15.316091   18.251707 H          1 MOL1         0.0794
     125    O30     24.845042   15.220647   19.174151 O.3        1 MOL1        -0.5486
     126    H60     25.369991   15.824118   19.743523 H          1 MOL1         0.3769
     127    C1      20.622575   18.501131   20.285811 C.3        1 MOL1        -0.1693
     128    H1      20.660354   17.692132   19.552162 H          1 MOL1         0.0829
     129    H2      21.550239   19.078000   20.215218 H          1 MOL1         0.0829
     130    C2      20.181060   18.133111   21.744348 C.3        1 MOL1        -0.1768
     131    H3      19.471788   17.302820   21.825211 H          1 MOL1         0.0829
     132    H4      20.982588   17.972071   22.470988 H          1 MOL1         0.0829
     133    C3      19.508424   19.536746   21.783224 C.3        1 MOL1         0.1211
     134    H5      18.578694   19.591643   22.357097 H          1 MOL1         0.0786
     135    C4      19.326000   19.359932   20.241588 C.3        1 MOL1        -0.1768
     136    H6      18.428023   18.800286   19.958565 H          1 MOL1         0.0829
     137    H7      19.388372   20.256479   19.621653 H          1 MOL1         0.0829
     138    O1      20.359595   20.579744   22.191048 O.3        1 MOL1        -0.5515
     139    H8      21.200429   20.490202   21.699808 H          1 MOL1         0.3773
@<TRIPOS>BOND
    1     1     2    1
    2     1     3    1
    3     1     4    1
    4     4     5    1
    5     4     6    1
    6     6     7    1
    7     4     8    1
    8     8     9    1
    9     8    10    1
   10    10    11    1
   11     8    12    1
   12    12    13    1
   13    12    14    1
   14    14    15    1
   15     1    16    1
   16    14    16    1
   17    14    17    1
   18    17    18    1
   19    17    19    1
   20    17    20    1
   21    20    21    1
   22    22    23    1
   23    22    24    1
   24    22    25    1
   25    25    26    1
   26    25    27    1
   27    27    28    1
   28    25    29    1
   29    29    30    1
   30    29    31    1
   31    31    32    1
   32     3    33    1
   33    29    33    1
   34    33    34    1
   35    33    35    1
   36    35    36    1
   37    22    37    1
   38    35    37    1
   39    35    38    1
   40    38    39    1
   41    38    40    1
   42    38    41    1
   43    41    42    1
   44    43    44    1
   45    43    45    1
   46    43    46    1
   47    46    47    1
   48    46    48    1
   49    48    49    1
   50    46    50    1
   51    50    51    1
   52    50    52    1
   53    52    53    1
   54    24    54    1
   55    50    54    1
   56    54    55    1
   57    54    56    1
   58    56    57    1
   59    43    58    1
   60    56    58    1
   61    56    59    1
   62    59    60    1
   63    59    61    1
   64    59    62    1
   65    62    63    1
   66    64    65    1
   67    64    66    1
   68    64    67    1
   69    67    68    1
   70    67    69    1
   71    69    70    1
   72    67    71    1
   73    71    72    1
   74    71    73    1
   75    73    74    1
   76    45    75    1
   77    71    75    1
   78    75    76    1
   79    75    77    1
   80    77    78    1
   81    64    79    1
   82    77    79    1
   83    77    80    1
   84    80    81    1
   85    80    82    1
   86    80    83    1
   87    83    84    1
   88    85    86    1
   89    85    87    1
   90    85    88    1
   91    88    89    1
   92    88    90    1
   93    90    91    1
   94    88    92    1
   95    92    93    1
   96    92    94    1
   97    94    95    1
   98    66    96    1
   99    92    96    1
  100    96    97    1
  101    96    98    1
  102    98    99    1
  103    85   100    1
  104    98   100    1
  105    98   101    1
  106   101   102    1
  107   101   103    1
  108   101   104    1
  109   104   105    1
  110   106   107    1
  111    12   108    1
  112   106   108    1
  113   106   109    1
  114   109   110    1
  115   109   111    1
  116   111   112    1
  117   109   113    1
  118   113   114    1
  119   113   115    1
  120   115   116    1
  121    87   117    1
  122   113   117    1
  123   117   118    1
  124   117   119    1
  125   119   120    1
  126   106   121    1
  127   119   121    1
  128   119   122    1
  129   122   123    1
  130   122   124    1
  131   122   125    1
  132   125   126    1
  133   127   128    1
  134   127   129    1
  135   127   130    1
  136   130   131    1
  137   130   132    1
  138   130   133    1
  139   133   134    1
  140   127   135    1
  141   133   135    1
  142   135   136    1
  143   135   137    1
  144   133   138    1
  145   138   139    1
@<TRIPOS>SUBSTRUCTURE
       1 MOL1            1 RESIDUE      1      MOL     
       2 MOL1          139 RESIDUE      1      MOL     
@<SCITEGIC>MOL_PROPERTY
feprocess Rank
SciTegic.value.IntegerValue
197

@<SCITEGIC>MOL_PROPERTY
Conf_Id
SciTegic.value.IntegerValue
715

@<SCITEGIC>MOL_PROPERTY
Probability
SciTegic.value.DoubleValue
0.00

@<SCITEGIC>MOL_PROPERTY
G
SciTegic.value.DoubleValue
551.487

@<SCITEGIC>MOL_PROPERTY
E
SciTegic.value.DoubleValue
371.988

@<SCITEGIC>MOL_PROPERTY
-TS
SciTegic.value.DoubleValue
179.499

@<SCITEGIC>MOL_PROPERTY
U+W
SciTegic.value.DoubleValue
249.477

@<SCITEGIC>MOL_PROPERTY
U
SciTegic.value.DoubleValue
286.909

@<SCITEGIC>MOL_PROPERTY
W
SciTegic.value.DoubleValue
-37.432

@<SCITEGIC>MOL_PROPERTY
W(PB)
SciTegic.value.DoubleValue
-43.408

@<SCITEGIC>MOL_PROPERTY
W(SA)
SciTegic.value.DoubleValue
5.976

@<SCITEGIC>MOL_PROPERTY
Valence
SciTegic.value.DoubleValue
155.818

@<SCITEGIC>MOL_PROPERTY
Coulomb
SciTegic.value.DoubleValue
153.342

@<SCITEGIC>MOL_PROPERTY
VdW
SciTegic.value.DoubleValue
-22.251

@<SCITEGIC>MOL_PROPERTY
VdW6
SciTegic.value.DoubleValue
-174.770

@<SCITEGIC>MOL_PROPERTY
VdW12
SciTegic.value.DoubleValue
152.519

@<SCITEGIC>MOL_PROPERTY
Bond
SciTegic.value.DoubleValue
5.037

@<SCITEGIC>MOL_PROPERTY
Angle
SciTegic.value.DoubleValue
13.078

@<SCITEGIC>MOL_PROPERTY
Pdih
SciTegic.value.DoubleValue
137.703

@<SCITEGIC>MOL_PROPERTY
Idih
SciTegic.value.DoubleValue
0.000

@<SCITEGIC>MOL_PROPERTY
Tether
SciTegic.value.DoubleValue
0.000

@<TRIPOS>MOLECULE
CD_guest-s16_fast_vm2_rndm.mol2 : feprocess host+ligand conformer 198
         139         145           2
SMALL
USER_CHARGES
 
@<TRIPOS>ATOM
       1    C1      16.194708   15.420027   21.968590 C.3        1 MOL1         0.2972
       2    H1      15.113283   15.396083   22.154875 H          1 MOL1         0.0751
       3    O1      16.616774   16.721197   21.511619 O.3        1 MOL1        -0.3740
       4    C2      16.956314   15.060928   23.268178 C.3        1 MOL1         0.1003
       5    H2      16.657722   14.043265   23.551233 H          1 MOL1         0.0783
       6    O2      16.625509   15.965838   24.333836 O.3        1 MOL1        -0.5519
       7    H3      16.894934   16.873922   24.044834 H          1 MOL1         0.3769
       8    C3      18.480181   15.067123   23.033888 C.3        1 MOL1         0.1053
       9    H4      18.774437   16.105262   22.856329 H          1 MOL1         0.0783
      10    O3      19.147450   14.568688   24.197892 O.3        1 MOL1        -0.5519
      11    H5      18.708575   15.018246   24.954285 H          1 MOL1         0.3769
      12    C4      18.906263   14.252371   21.791427 C.3        1 MOL1         0.1018
      13    H6      18.974616   13.191259   22.065934 H          1 MOL1         0.0783
      14    C5      17.962853   14.447431   20.569766 C.3        1 MOL1         0.1043
      15    H7      18.207577   15.421427   20.134816 H          1 MOL1         0.0783
      16    O4      16.564341   14.452711   20.961181 O.3        1 MOL1        -0.3740
      17    C6      18.162301   13.390853   19.456920 C.3        1 MOL1         0.0138
      18    H8      19.131464   13.572164   18.972835 H          1 MOL1         0.0794
      19    H9      17.386386   13.532478   18.692643 H          1 MOL1         0.0794
      20    O5      18.117435   12.054066   19.969885 O.3        1 MOL1        -0.5486
      21    H10     18.168806   11.439085   19.205637 H          1 MOL1         0.3769
      22    C7      15.167850   20.245974   19.926411 C.3        1 MOL1         0.2972
      23    H11     14.667069   21.052630   19.375857 H          1 MOL1         0.0751
      24    O6      16.347279   20.723013   20.606019 O.3        1 MOL1        -0.3740
      25    C8      14.205595   19.576876   20.943438 C.3        1 MOL1         0.1003
      26    H12     13.376337   19.150116   20.364293 H          1 MOL1         0.0783
      27    O7      13.675729   20.524124   21.883808 O.3        1 MOL1        -0.5519
      28    H13     14.440291   20.858595   22.416812 H          1 MOL1         0.3769
      29    C9      14.906388   18.417050   21.692361 C.3        1 MOL1         0.1053
      30    H14     15.651026   18.856738   22.365698 H          1 MOL1         0.0783
      31    O8      13.926979   17.702991   22.452887 O.3        1 MOL1        -0.5519
      32    H15     13.433524   18.389039   22.953380 H          1 MOL1         0.3769
      33    C10     15.644074   17.445889   20.729593 C.3        1 MOL1         0.1018
      34    H16     14.899288   16.774916   20.282713 H          1 MOL1         0.0783
      35    C11     16.422462   18.174269   19.594825 C.3        1 MOL1         0.1043
      36    H17     17.317286   18.633266   20.035435 H          1 MOL1         0.0783
      37    O9      15.589205   19.208979   19.015567 O.3        1 MOL1        -0.3740
      38    C12     16.919010   17.252743   18.449148 C.3        1 MOL1         0.0138
      39    H18     17.937022   16.920958   18.685823 H          1 MOL1         0.0794
      40    H19     16.995087   17.848876   17.529903 H          1 MOL1         0.0794
      41    O10     16.075740   16.115065   18.223793 O.3        1 MOL1        -0.5486
      42    H20     16.098796   15.562000   19.037619 H          1 MOL1         0.3769
      43    C13     18.393870   23.995281   21.985617 C.3        1 MOL1         0.2972
      44    H21     18.764942   24.963789   22.345423 H          1 MOL1         0.0751
      45    O11     19.465648   23.060917   21.757969 O.3        1 MOL1        -0.3740
      46    C14     17.427504   23.372864   23.021685 C.3        1 MOL1         0.1003
      47    H22     16.560412   24.039770   23.114130 H          1 MOL1         0.0783
      48    O12     18.066096   23.239331   24.301721 O.3        1 MOL1        -0.5519
      49    H23     19.031872   23.399126   24.162389 H          1 MOL1         0.3769
      50    C15     16.930926   21.997274   22.524238 C.3        1 MOL1         0.1053
      51    H24     17.795496   21.327899   22.482838 H          1 MOL1         0.0783
      52    O13     15.969709   21.466932   23.441747 O.3        1 MOL1        -0.5519
      53    H25     16.331044   21.681539   24.332348 H          1 MOL1         0.3769
      54    C16     16.339442   22.077681   21.095592 C.3        1 MOL1         0.1018
      55    H26     15.326800   22.498351   21.149646 H          1 MOL1         0.0783
      56    C17     17.221803   22.914055   20.121341 C.3        1 MOL1         0.1043
      57    H27     18.098034   22.305244   19.866272 H          1 MOL1         0.0783
      58    O14     17.673488   24.146291   20.744437 O.3        1 MOL1        -0.3740
      59    C18     16.514789   23.267601   18.791383 C.3        1 MOL1         0.0138
      60    H28     16.415042   22.350836   18.194796 H          1 MOL1         0.0794
      61    H29     17.156648   23.956042   18.225247 H          1 MOL1         0.0794
      62    O15     15.223959   23.851380   19.005035 O.3        1 MOL1        -0.5486
      63    H30     14.872505   24.127068   18.130228 H          1 MOL1         0.3769
      64    C19     23.615611   22.818178   21.711764 C.3        1 MOL1         0.2972
      65    H31     24.687291   23.039423   21.627269 H          1 MOL1         0.0751
      66    O16     23.380542   21.412387   21.930839 O.3        1 MOL1        -0.3740
      67    C20     23.018171   23.583499   22.919497 C.3        1 MOL1         0.1003
      68    H32     23.179891   24.655816   22.748911 H          1 MOL1         0.0783
      69    O17     23.678165   23.187374   24.132255 O.3        1 MOL1        -0.5519
      70    H33     23.958081   22.247891   24.007870 H          1 MOL1         0.3769
      71    C21     21.494626   23.337365   23.029627 C.3        1 MOL1         0.1053
      72    H34     21.345346   22.282686   23.290810 H          1 MOL1         0.0783
      73    O18     20.941680   24.168852   24.054412 O.3        1 MOL1        -0.5519
      74    H35     21.570976   24.096663   24.807017 H          1 MOL1         0.3769
      75    C22     20.790161   23.611089   21.677680 C.3        1 MOL1         0.1018
      76    H36     20.777842   24.693034   21.491027 H          1 MOL1         0.0783
      77    C23     21.497972   22.894333   20.497155 C.3        1 MOL1         0.1043
      78    H37     21.374097   21.812588   20.636922 H          1 MOL1         0.0783
      79    O19     22.910987   23.219155   20.514918 O.3        1 MOL1        -0.3740
      80    C24     20.914835   23.235405   19.100068 C.3        1 MOL1         0.0138
      81    H38     20.117417   22.516303   18.873610 H          1 MOL1         0.0794
      82    H39     21.698863   23.087688   18.345376 H          1 MOL1         0.0794
      83    O20     20.392584   24.566994   19.012616 O.3        1 MOL1        -0.5486
      84    H40     19.568523   24.592950   19.550981 H          1 MOL1         0.3769
      85    C25     25.048778   17.655684   21.227976 C.3        1 MOL1         0.2972
      86    H41     25.722683   16.836503   20.946926 H          1 MOL1         0.0751
      87    O21     23.765147   17.160691   21.661217 O.3        1 MOL1        -0.3740
      88    C26     25.665947   18.455297   22.401700 C.3        1 MOL1         0.1003
      89    H42     26.645233   18.827491   22.073738 H          1 MOL1         0.0783
      90    O22     25.835485   17.601325   23.544638 O.3        1 MOL1        -0.5519
      91    H43     25.068152   16.977786   23.549488 H          1 MOL1         0.3769
      92    C27     24.785813   19.673589   22.767114 C.3        1 MOL1         0.1053
      93    H44     23.853903   19.291607   23.198501 H          1 MOL1         0.0783
      94    O23     25.461969   20.488598   23.730360 O.3        1 MOL1        -0.5519
      95    H45     25.801035   19.860154   24.405852 H          1 MOL1         0.3769
      96    C28     24.430249   20.516356   21.517785 C.3        1 MOL1         0.1018
      97    H46     25.331763   21.053708   21.195363 H          1 MOL1         0.0783
      98    C29     23.905700   19.631577   20.350667 C.3        1 MOL1         0.1043
      99    H47     22.937228   19.209700   20.649390 H          1 MOL1         0.0783
     100    O24     24.845852   18.553212   20.115873 O.3        1 MOL1        -0.3740
     101    C30     23.679512   20.374298   19.008207 C.3        1 MOL1         0.0138
     102    H48     22.657359   20.771144   18.996207 H          1 MOL1         0.0794
     103    H49     23.744160   19.645076   18.189842 H          1 MOL1         0.0794
     104    O25     24.609721   21.439141   18.785101 O.3        1 MOL1        -0.5486
     105    H50     24.264058   22.222426   19.272090 H          1 MOL1         0.3769
     106    C31     21.217391   13.888688   21.027099 C.3        1 MOL1         0.2972
     107    H51     20.805769   12.911424   20.743402 H          1 MOL1         0.0751
     108    O26     20.181396   14.807651   21.415749 O.3        1 MOL1        -0.3740
     109    C32     22.226566   13.756273   22.199925 C.3        1 MOL1         0.1003
     110    H52     23.030829   13.090399   21.861031 H          1 MOL1         0.0783
     111    O27     21.608488   13.185481   23.364279 O.3        1 MOL1        -0.5519
     112    H53     20.814481   13.737065   23.580908 H          1 MOL1         0.3769
     113    C33     22.859873   15.128941   22.542239 C.3        1 MOL1         0.1053
     114    H54     22.073846   15.778642   22.951017 H          1 MOL1         0.0783
     115    O28     23.896658   14.949928   23.513952 O.3        1 MOL1        -0.5519
     116    H55     23.511296   14.355405   24.195180 H          1 MOL1         0.3769
     117    C34     23.441141   15.808609   21.277652 C.3        1 MOL1         0.1018
     118    H56     24.332074   15.245795   20.969477 H          1 MOL1         0.0783
     119    C35     22.408596   15.827904   20.113862 C.3        1 MOL1         0.1043
     120    H57     21.577253   16.484182   20.402879 H          1 MOL1         0.0783
     121    O29     21.913710   14.480222   19.908684 O.3        1 MOL1        -0.3740
     122    C36     22.940782   16.351259   18.756060 C.3        1 MOL1         0.0138
     123    H58     22.850660   17.444287   18.744121 H          1 MOL1         0.0794
     124    H59     22.288677   15.972067   17.957964 H          1 MOL1         0.0794
     125    O30     24.298217   15.976832   18.498236 O.3        1 MOL1        -0.5486
     126    H60     24.858396   16.714446   18.828752 H          1 MOL1         0.3769
     127    C1      21.126962   19.088503   23.696282 C.3        1 MOL1        -0.1693
     128    H1      21.603381   18.695357   22.789276 H          1 MOL1         0.0829
     129    H2      21.897575   19.512869   24.349840 H          1 MOL1         0.0829
     130    C2      20.120201   18.108972   24.377112 C.3        1 MOL1        -0.1768
     131    H3      19.898486   18.335974   25.427001 H          1 MOL1         0.0829
     132    H4      20.361458   17.045424   24.292596 H          1 MOL1         0.0829
     133    C3      19.072644   18.666374   23.364907 C.3        1 MOL1         0.1211
     134    H5      19.104243   18.196960   22.372730 H          1 MOL1         0.0786
     135    C4      19.881066   19.993587   23.439448 C.3        1 MOL1        -0.1768
     136    H6      19.608612   20.650723   24.274736 H          1 MOL1         0.0829
     137    H7      19.912600   20.578416   22.515963 H          1 MOL1         0.0829
     138    O1      17.750456   18.720602   23.850723 O.3        1 MOL1        -0.5515
     139    H8      17.313152   19.496081   23.440108 H          1 MOL1         0.3773
@<TRIPOS>BOND
    1     1     2    1
    2     1     3    1
    3     1     4    1
    4     4     5    1
    5     4     6    1
    6     6     7    1
    7     4     8    1
    8     8     9    1
    9     8    10    1
   10    10    11    1
   11     8    12    1
   12    12    13    1
   13    12    14    1
   14    14    15    1
   15     1    16    1
   16    14    16    1
   17    14    17    1
   18    17    18    1
   19    17    19    1
   20    17    20    1
   21    20    21    1
   22    22    23    1
   23    22    24    1
   24    22    25    1
   25    25    26    1
   26    25    27    1
   27    27    28    1
   28    25    29    1
   29    29    30    1
   30    29    31    1
   31    31    32    1
   32     3    33    1
   33    29    33    1
   34    33    34    1
   35    33    35    1
   36    35    36    1
   37    22    37    1
   38    35    37    1
   39    35    38    1
   40    38    39    1
   41    38    40    1
   42    38    41    1
   43    41    42    1
   44    43    44    1
   45    43    45    1
   46    43    46    1
   47    46    47    1
   48    46    48    1
   49    48    49    1
   50    46    50    1
   51    50    51    1
   52    50    52    1
   53    52    53    1
   54    24    54    1
   55    50    54    1
   56    54    55    1
   57    54    56    1
   58    56    57    1
   59    43    58    1
   60    56    58    1
   61    56    59    1
   62    59    60    1
   63    59    61    1
   64    59    62    1
   65    62    63    1
   66    64    65    1
   67    64    66    1
   68    64    67    1
   69    67    68    1
   70    67    69    1
   71    69    70    1
   72    67    71    1
   73    71    72    1
   74    71    73    1
   75    73    74    1
   76    45    75    1
   77    71    75    1
   78    75    76    1
   79    75    77    1
   80    77    78    1
   81    64    79    1
   82    77    79    1
   83    77    80    1
   84    80    81    1
   85    80    82    1
   86    80    83    1
   87    83    84    1
   88    85    86    1
   89    85    87    1
   90    85    88    1
   91    88    89    1
   92    88    90    1
   93    90    91    1
   94    88    92    1
   95    92    93    1
   96    92    94    1
   97    94    95    1
   98    66    96    1
   99    92    96    1
  100    96    97    1
  101    96    98    1
  102    98    99    1
  103    85   100    1
  104    98   100    1
  105    98   101    1
  106   101   102    1
  107   101   103    1
  108   101   104    1
  109   104   105    1
  110   106   107    1
  111    12   108    1
  112   106   108    1
  113   106   109    1
  114   109   110    1
  115   109   111    1
  116   111   112    1
  117   109   113    1
  118   113   114    1
  119   113   115    1
  120   115   116    1
  121    87   117    1
  122   113   117    1
  123   117   118    1
  124   117   119    1
  125   119   120    1
  126   106   121    1
  127   119   121    1
  128   119   122    1
  129   122   123    1
  130   122   124    1
  131   122   125    1
  132   125   126    1
  133   127   128    1
  134   127   129    1
  135   127   130    1
  136   130   131    1
  137   130   132    1
  138   130   133    1
  139   133   134    1
  140   127   135    1
  141   133   135    1
  142   135   136    1
  143   135   137    1
  144   133   138    1
  145   138   139    1
@<TRIPOS>SUBSTRUCTURE
       1 MOL1            1 RESIDUE      1      MOL     
       2 MOL1          139 RESIDUE      1      MOL     
@<SCITEGIC>MOL_PROPERTY
feprocess Rank
SciTegic.value.IntegerValue
198

@<SCITEGIC>MOL_PROPERTY
Conf_Id
SciTegic.value.IntegerValue
737

@<SCITEGIC>MOL_PROPERTY
Probability
SciTegic.value.DoubleValue
0.00

@<SCITEGIC>MOL_PROPERTY
G
SciTegic.value.DoubleValue
551.554

@<SCITEGIC>MOL_PROPERTY
E
SciTegic.value.DoubleValue
372.944

@<SCITEGIC>MOL_PROPERTY
-TS
SciTegic.value.DoubleValue
178.610

@<SCITEGIC>MOL_PROPERTY
U+W
SciTegic.value.DoubleValue
250.432

@<SCITEGIC>MOL_PROPERTY
U
SciTegic.value.DoubleValue
287.687

@<SCITEGIC>MOL_PROPERTY
W
SciTegic.value.DoubleValue
-37.254

@<SCITEGIC>MOL_PROPERTY
W(PB)
SciTegic.value.DoubleValue
-43.262

@<SCITEGIC>MOL_PROPERTY
W(SA)
SciTegic.value.DoubleValue
6.008

@<SCITEGIC>MOL_PROPERTY
Valence
SciTegic.value.DoubleValue
153.765

@<SCITEGIC>MOL_PROPERTY
Coulomb
SciTegic.value.DoubleValue
154.126

@<SCITEGIC>MOL_PROPERTY
VdW
SciTegic.value.DoubleValue
-20.203

@<SCITEGIC>MOL_PROPERTY
VdW6
SciTegic.value.DoubleValue
-166.833

@<SCITEGIC>MOL_PROPERTY
VdW12
SciTegic.value.DoubleValue
146.630

@<SCITEGIC>MOL_PROPERTY
Bond
SciTegic.value.DoubleValue
4.651

@<SCITEGIC>MOL_PROPERTY
Angle
SciTegic.value.DoubleValue
12.752

@<SCITEGIC>MOL_PROPERTY
Pdih
SciTegic.value.DoubleValue
136.362

@<SCITEGIC>MOL_PROPERTY
Idih
SciTegic.value.DoubleValue
0.000

@<SCITEGIC>MOL_PROPERTY
Tether
SciTegic.value.DoubleValue
0.000

@<TRIPOS>MOLECULE
CD_guest-s16_fast_vm2_rndm.mol2 : feprocess host+ligand conformer 199
         139         145           2
SMALL
USER_CHARGES
 
@<TRIPOS>ATOM
       1    C1      15.974963   15.102075   20.994150 C.3        1 MOL1         0.2972
       2    H1      14.932070   14.946227   20.689149 H          1 MOL1         0.0751
       3    O1      16.129754   16.325084   21.741302 O.3        1 MOL1        -0.3740
       4    C2      16.449042   13.944192   21.910819 C.3        1 MOL1         0.1003
       5    H2      16.324372   13.006449   21.353893 H          1 MOL1         0.0783
       6    O2      15.653460   13.903813   23.105508 O.3        1 MOL1        -0.5519
       7    H3      15.586052   14.835810   23.421003 H          1 MOL1         0.3769
       8    C3      17.947608   14.092819   22.279981 C.3        1 MOL1         0.1053
       9    H4      18.046463   14.957791   22.946782 H          1 MOL1         0.0783
      10    O3      18.397141   12.914889   22.957929 O.3        1 MOL1        -0.5519
      11    H5      17.708719   12.725816   23.633428 H          1 MOL1         0.3769
      12    C4      18.826613   14.346788   21.030896 C.3        1 MOL1         0.1018
      13    H6      18.889011   13.411923   20.458513 H          1 MOL1         0.0783
      14    C5      18.232325   15.460321   20.126123 C.3        1 MOL1         0.1043
      15    H7      18.275445   16.404992   20.674798 H          1 MOL1         0.0783
      16    O4      16.849317   15.145072   19.845006 O.3        1 MOL1        -0.3740
      17    C6      18.966337   15.687109   18.780650 C.3        1 MOL1         0.0138
      18    H8      19.788847   16.392881   18.948195 H          1 MOL1         0.0794
      19    H9      18.271038   16.170406   18.081481 H          1 MOL1         0.0794
      20    O5      19.479390   14.480605   18.206234 O.3        1 MOL1        -0.5486
      21    H10     20.345127   14.306077   18.642919 H          1 MOL1         0.3769
      22    C7      14.785083   20.236440   21.624636 C.3        1 MOL1         0.2972
      23    H11     14.205337   21.168572   21.603991 H          1 MOL1         0.0751
      24    O6      16.199027   20.494059   21.530498 O.3        1 MOL1        -0.3740
      25    C8      14.498357   19.479457   22.940253 C.3        1 MOL1         0.1003
      26    H12     13.423938   19.255504   22.965518 H          1 MOL1         0.0783
      27    O7      14.843028   20.293575   24.073432 O.3        1 MOL1        -0.5519
      28    H13     15.336063   21.076482   23.724530 H          1 MOL1         0.3769
      29    C9      15.269199   18.142578   22.982376 C.3        1 MOL1         0.1053
      30    H14     16.337018   18.381783   23.058593 H          1 MOL1         0.0783
      31    O8      14.860197   17.399928   24.136058 O.3        1 MOL1        -0.5519
      32    H15     14.890303   18.046381   24.875757 H          1 MOL1         0.3769
      33    C10     15.056581   17.291801   21.702541 C.3        1 MOL1         0.1018
      34    H16     14.076696   16.802208   21.773880 H          1 MOL1         0.0783
      35    C11     15.145671   18.137082   20.390127 C.3        1 MOL1         0.1043
      36    H17     16.203450   18.359037   20.207936 H          1 MOL1         0.0783
      37    O9      14.414452   19.384533   20.524481 O.3        1 MOL1        -0.3740
      38    C12     14.587364   17.438891   19.124118 C.3        1 MOL1         0.0138
      39    H18     15.313375   16.701430   18.764503 H          1 MOL1         0.0794
      40    H19     14.486113   18.190387   18.329369 H          1 MOL1         0.0794
      41    O10     13.324733   16.806420   19.366261 O.3        1 MOL1        -0.5486
      42    H20     12.995459   16.460348   18.508142 H          1 MOL1         0.3769
      43    C13     18.695801   23.721187   20.530685 C.3        1 MOL1         0.2972
      44    H21     19.077712   24.649783   20.087071 H          1 MOL1         0.0751
      45    O11     19.735593   22.986161   21.203261 O.3        1 MOL1        -0.3740
      46    C14     17.579776   24.019016   21.569337 C.3        1 MOL1         0.1003
      47    H22     16.779970   24.556125   21.043133 H          1 MOL1         0.0783
      48    O12     18.069882   24.842064   22.639822 O.3        1 MOL1        -0.5519
      49    H23     18.915591   24.438492   22.962559 H          1 MOL1         0.3769
      50    C15     16.980685   22.703600   22.129711 C.3        1 MOL1         0.1053
      51    H24     17.757075   22.189097   22.712423 H          1 MOL1         0.0783
      52    O13     15.861381   23.002650   22.970730 O.3        1 MOL1        -0.5519
      53    H25     16.154246   23.759994   23.525787 H          1 MOL1         0.3769
      54    C16     16.544136   21.774630   20.970947 C.3        1 MOL1         0.1018
      55    H26     15.691225   22.235369   20.454687 H          1 MOL1         0.0783
      56    C17     17.687601   21.567402   19.943582 C.3        1 MOL1         0.1043
      57    H27     18.514516   21.042202   20.435812 H          1 MOL1         0.0783
      58    O14     18.143591   22.868428   19.500481 O.3        1 MOL1        -0.3740
      59    C18     17.290331   20.723701   18.704384 C.3        1 MOL1         0.0138
      60    H28     17.466154   19.665748   18.935654 H          1 MOL1         0.0794
      61    H29     17.961905   20.982080   17.874832 H          1 MOL1         0.0794
      62    O15     15.924962   20.907097   18.308271 O.3        1 MOL1        -0.5486
      63    H30     15.358617   20.503884   19.006621 H          1 MOL1         0.3769
      64    C19     23.802987   22.942416   21.907647 C.3        1 MOL1         0.2972
      65    H31     24.870875   23.148467   22.054985 H          1 MOL1         0.0751
      66    O16     23.516266   21.536786   21.973887 O.3        1 MOL1        -0.3740
      67    C20     22.967525   23.624944   23.016718 C.3        1 MOL1         0.1003
      68    H32     23.116086   24.709287   22.932229 H          1 MOL1         0.0783
      69    O17     23.405754   23.178670   24.309652 O.3        1 MOL1        -0.5519
      70    H33     23.691938   22.239887   24.196216 H          1 MOL1         0.3769
      71    C21     21.461826   23.323810   22.823676 C.3        1 MOL1         0.1053
      72    H34     21.306558   22.249797   22.992728 H          1 MOL1         0.0783
      73    O18     20.698464   24.075449   23.773148 O.3        1 MOL1        -0.5519
      74    H35     21.156727   23.936336   24.631870 H          1 MOL1         0.3769
      75    C22     20.995129   23.662445   21.386012 C.3        1 MOL1         0.1018
      76    H36     20.894115   24.752678   21.301986 H          1 MOL1         0.0783
      77    C23     21.966902   23.126412   20.295574 C.3        1 MOL1         0.1043
      78    H37     21.842438   22.036690   20.255240 H          1 MOL1         0.0783
      79    O19     23.346331   23.435572   20.630827 O.3        1 MOL1        -0.3740
      80    C24     21.676527   23.675883   18.878340 C.3        1 MOL1         0.0138
      81    H38     20.744586   23.224387   18.512396 H          1 MOL1         0.0794
      82    H39     22.481318   23.351902   18.204839 H          1 MOL1         0.0794
      83    O20     21.562233   25.104307   18.866701 O.3        1 MOL1        -0.5486
      84    H40     21.454740   25.387051   17.932375 H          1 MOL1         0.3769
      85    C25     25.083115   17.724379   21.585109 C.3        1 MOL1         0.2972
      86    H41     25.738863   16.860713   21.416527 H          1 MOL1         0.0751
      87    O21     23.722763   17.312989   21.844218 O.3        1 MOL1        -0.3740
      88    C26     25.593472   18.522864   22.809474 C.3        1 MOL1         0.1003
      89    H42     26.624806   18.832072   22.595592 H          1 MOL1         0.0783
      90    O22     25.579014   17.694707   23.983498 O.3        1 MOL1        -0.5519
      91    H43     24.843242   17.044361   23.864728 H          1 MOL1         0.3769
      92    C27     24.750976   19.799619   23.035390 C.3        1 MOL1         0.1053
      93    H44     23.753086   19.486730   23.365935 H          1 MOL1         0.0783
      94    O23     25.359118   20.603688   24.051924 O.3        1 MOL1        -0.5519
      95    H45     25.566351   19.978211   24.781223 H          1 MOL1         0.3769
      96    C28     24.595899   20.621763   21.730821 C.3        1 MOL1         0.1018
      97    H46     25.542007   21.136949   21.520084 H          1 MOL1         0.0783
      98    C29     24.193794   19.733921   20.518693 C.3        1 MOL1         0.1043
      99    H47     23.171066   19.375301   20.690214 H          1 MOL1         0.0783
     100    O24     25.089203   18.596946   20.434976 O.3        1 MOL1        -0.3740
     101    C30     24.188372   20.455383   19.144951 C.3        1 MOL1         0.0138
     102    H48     23.178694   20.839984   18.957387 H          1 MOL1         0.0794
     103    H49     24.392542   19.714972   18.359965 H          1 MOL1         0.0794
     104    O25     25.131750   21.529353   19.060439 O.3        1 MOL1        -0.5486
     105    H50     24.739660   22.291101   19.547560 H          1 MOL1         0.3769
     106    C31     21.240737   13.994780   21.070367 C.3        1 MOL1         0.2972
     107    H51     20.927296   12.993648   20.747854 H          1 MOL1         0.0751
     108    O26     20.115510   14.774708   21.519794 O.3        1 MOL1        -0.3740
     109    C32     22.240145   13.863502   22.249055 C.3        1 MOL1         0.1003
     110    H52     23.067739   13.227834   21.908274 H          1 MOL1         0.0783
     111    O27     21.600255   13.243342   23.375794 O.3        1 MOL1        -0.5519
     112    H53     20.635257   13.441249   23.296912 H          1 MOL1         0.3769
     113    C33     22.831129   15.236209   22.651173 C.3        1 MOL1         0.1053
     114    H54     22.027005   15.841707   23.088407 H          1 MOL1         0.0783
     115    O28     23.874495   15.046883   23.613150 O.3        1 MOL1        -0.5519
     116    H55     23.502200   14.420558   24.273211 H          1 MOL1         0.3769
     117    C34     23.382972   15.979477   21.412570 C.3        1 MOL1         0.1018
     118    H56     24.259229   15.431081   21.042231 H          1 MOL1         0.0783
     119    C35     22.315035   16.051378   20.287225 C.3        1 MOL1         0.1043
     120    H57     21.466426   16.638927   20.658670 H          1 MOL1         0.0783
     121    O29     21.873833   14.703783   19.982405 O.3        1 MOL1        -0.3740
     122    C36     22.789042   16.713400   18.968562 C.3        1 MOL1         0.0138
     123    H58     22.664166   17.799398   19.058621 H          1 MOL1         0.0794
     124    H59     22.129006   16.384331   18.155034 H          1 MOL1         0.0794
     125    O30     24.150045   16.410763   18.644640 O.3        1 MOL1        -0.5486
     126    H60     24.708013   17.048078   19.147572 H          1 MOL1         0.3769
     127    C1      19.193789   17.735433   23.160981 C.3        1 MOL1        -0.1693
     128    H1      18.306989   17.126735   23.363919 H          1 MOL1         0.0829
     129    H2      20.083271   17.110230   23.299954 H          1 MOL1         0.0829
     130    C2      19.238160   19.118685   23.889729 C.3        1 MOL1        -0.1768
     131    H3      18.254578   19.566754   24.076361 H          1 MOL1         0.0829
     132    H4      19.822019   19.159270   24.815746 H          1 MOL1         0.0829
     133    C3      19.949008   19.661819   22.614858 C.3        1 MOL1         0.1211
     134    H5      19.692506   20.693346   22.351895 H          1 MOL1         0.0786
     135    C4      19.169399   18.565890   21.834866 C.3        1 MOL1        -0.1768
     136    H6      18.168565   18.864196   21.512217 H          1 MOL1         0.0829
     137    H7      19.699473   18.138262   20.978805 H          1 MOL1         0.0829
     138    O1      21.344268   19.490045   22.590627 O.3        1 MOL1        -0.5515
     139    H8      21.520698   18.562902   22.837828 H          1 MOL1         0.3773
@<TRIPOS>BOND
    1     1     2    1
    2     1     3    1
    3     1     4    1
    4     4     5    1
    5     4     6    1
    6     6     7    1
    7     4     8    1
    8     8     9    1
    9     8    10    1
   10    10    11    1
   11     8    12    1
   12    12    13    1
   13    12    14    1
   14    14    15    1
   15     1    16    1
   16    14    16    1
   17    14    17    1
   18    17    18    1
   19    17    19    1
   20    17    20    1
   21    20    21    1
   22    22    23    1
   23    22    24    1
   24    22    25    1
   25    25    26    1
   26    25    27    1
   27    27    28    1
   28    25    29    1
   29    29    30    1
   30    29    31    1
   31    31    32    1
   32     3    33    1
   33    29    33    1
   34    33    34    1
   35    33    35    1
   36    35    36    1
   37    22    37    1
   38    35    37    1
   39    35    38    1
   40    38    39    1
   41    38    40    1
   42    38    41    1
   43    41    42    1
   44    43    44    1
   45    43    45    1
   46    43    46    1
   47    46    47    1
   48    46    48    1
   49    48    49    1
   50    46    50    1
   51    50    51    1
   52    50    52    1
   53    52    53    1
   54    24    54    1
   55    50    54    1
   56    54    55    1
   57    54    56    1
   58    56    57    1
   59    43    58    1
   60    56    58    1
   61    56    59    1
   62    59    60    1
   63    59    61    1
   64    59    62    1
   65    62    63    1
   66    64    65    1
   67    64    66    1
   68    64    67    1
   69    67    68    1
   70    67    69    1
   71    69    70    1
   72    67    71    1
   73    71    72    1
   74    71    73    1
   75    73    74    1
   76    45    75    1
   77    71    75    1
   78    75    76    1
   79    75    77    1
   80    77    78    1
   81    64    79    1
   82    77    79    1
   83    77    80    1
   84    80    81    1
   85    80    82    1
   86    80    83    1
   87    83    84    1
   88    85    86    1
   89    85    87    1
   90    85    88    1
   91    88    89    1
   92    88    90    1
   93    90    91    1
   94    88    92    1
   95    92    93    1
   96    92    94    1
   97    94    95    1
   98    66    96    1
   99    92    96    1
  100    96    97    1
  101    96    98    1
  102    98    99    1
  103    85   100    1
  104    98   100    1
  105    98   101    1
  106   101   102    1
  107   101   103    1
  108   101   104    1
  109   104   105    1
  110   106   107    1
  111    12   108    1
  112   106   108    1
  113   106   109    1
  114   109   110    1
  115   109   111    1
  116   111   112    1
  117   109   113    1
  118   113   114    1
  119   113   115    1
  120   115   116    1
  121    87   117    1
  122   113   117    1
  123   117   118    1
  124   117   119    1
  125   119   120    1
  126   106   121    1
  127   119   121    1
  128   119   122    1
  129   122   123    1
  130   122   124    1
  131   122   125    1
  132   125   126    1
  133   127   128    1
  134   127   129    1
  135   127   130    1
  136   130   131    1
  137   130   132    1
  138   130   133    1
  139   133   134    1
  140   127   135    1
  141   133   135    1
  142   135   136    1
  143   135   137    1
  144   133   138    1
  145   138   139    1
@<TRIPOS>SUBSTRUCTURE
       1 MOL1            1 RESIDUE      1      MOL     
       2 MOL1          139 RESIDUE      1      MOL     
@<SCITEGIC>MOL_PROPERTY
feprocess Rank
SciTegic.value.IntegerValue
199

@<SCITEGIC>MOL_PROPERTY
Conf_Id
SciTegic.value.IntegerValue
615

@<SCITEGIC>MOL_PROPERTY
Probability
SciTegic.value.DoubleValue
0.00

@<SCITEGIC>MOL_PROPERTY
G
SciTegic.value.DoubleValue
551.593

@<SCITEGIC>MOL_PROPERTY
E
SciTegic.value.DoubleValue
374.753

@<SCITEGIC>MOL_PROPERTY
-TS
SciTegic.value.DoubleValue
176.840

@<SCITEGIC>MOL_PROPERTY
U+W
SciTegic.value.DoubleValue
252.242

@<SCITEGIC>MOL_PROPERTY
U
SciTegic.value.DoubleValue
288.441

@<SCITEGIC>MOL_PROPERTY
W
SciTegic.value.DoubleValue
-36.200

@<SCITEGIC>MOL_PROPERTY
W(PB)
SciTegic.value.DoubleValue
-42.138

@<SCITEGIC>MOL_PROPERTY
W(SA)
SciTegic.value.DoubleValue
5.938

@<SCITEGIC>MOL_PROPERTY
Valence
SciTegic.value.DoubleValue
155.708

@<SCITEGIC>MOL_PROPERTY
Coulomb
SciTegic.value.DoubleValue
155.735

@<SCITEGIC>MOL_PROPERTY
VdW
SciTegic.value.DoubleValue
-23.001

@<SCITEGIC>MOL_PROPERTY
VdW6
SciTegic.value.DoubleValue
-169.233

@<SCITEGIC>MOL_PROPERTY
VdW12
SciTegic.value.DoubleValue
146.232

@<SCITEGIC>MOL_PROPERTY
Bond
SciTegic.value.DoubleValue
4.583

@<SCITEGIC>MOL_PROPERTY
Angle
SciTegic.value.DoubleValue
11.684

@<SCITEGIC>MOL_PROPERTY
Pdih
SciTegic.value.DoubleValue
139.441

@<SCITEGIC>MOL_PROPERTY
Idih
SciTegic.value.DoubleValue
0.000

@<SCITEGIC>MOL_PROPERTY
Tether
SciTegic.value.DoubleValue
0.000

@<TRIPOS>MOLECULE
CD_guest-s16_fast_vm2_rndm.mol2 : feprocess host+ligand conformer 200
         139         145           2
SMALL
USER_CHARGES
 
@<TRIPOS>ATOM
       1    C1      16.135550   15.222216   20.694008 C.3        1 MOL1         0.2972
       2    H1      15.107966   15.070527   20.339110 H          1 MOL1         0.0751
       3    O1      16.312797   16.526176   21.277918 O.3        1 MOL1        -0.3740
       4    C2      16.508209   14.178958   21.780298 C.3        1 MOL1         0.1003
       5    H2      16.401159   13.183068   21.331122 H          1 MOL1         0.0783
       6    O2      15.629587   14.283937   22.912788 O.3        1 MOL1        -0.5519
       7    H3      15.534975   15.246876   23.125430 H          1 MOL1         0.3769
       8    C3      17.984383   14.347281   22.225555 C.3        1 MOL1         0.1053
       9    H4      18.078355   15.309811   22.747697 H          1 MOL1         0.0783
      10    O3      18.345783   13.280837   23.109477 O.3        1 MOL1        -0.5519
      11    H5      17.598879   13.210585   23.744919 H          1 MOL1         0.3769
      12    C4      18.939198   14.364414   21.006179 C.3        1 MOL1         0.1018
      13    H6      18.979043   13.352865   20.581192 H          1 MOL1         0.0783
      14    C5      18.457285   15.364682   19.920033 C.3        1 MOL1         0.1043
      15    H7      18.531270   16.376539   20.333242 H          1 MOL1         0.0783
      16    O4      17.072170   15.085099   19.601202 O.3        1 MOL1        -0.3740
      17    C6      19.278590   15.350459   18.605191 C.3        1 MOL1         0.0138
      18    H8      20.132552   16.029140   18.719348 H          1 MOL1         0.0794
      19    H9      18.653862   15.758315   17.799396 H          1 MOL1         0.0794
      20    O5      19.752272   14.047497   18.248114 O.3        1 MOL1        -0.5486
      21    H10     20.584308   13.900368   18.753805 H          1 MOL1         0.3769
      22    C7      14.624946   20.260116   21.704743 C.3        1 MOL1         0.2972
      23    H11     13.971534   21.138350   21.783281 H          1 MOL1         0.0751
      24    O6      16.019027   20.625947   21.757276 O.3        1 MOL1        -0.3740
      25    C8      14.332217   19.287461   22.872339 C.3        1 MOL1         0.1003
      26    H12     13.284834   18.970269   22.785448 H          1 MOL1         0.0783
      27    O7      14.527010   19.945203   24.134713 O.3        1 MOL1        -0.5519
      28    H13     15.205239   20.651799   23.991699 H          1 MOL1         0.3769
      29    C9      15.223081   18.027926   22.774997 C.3        1 MOL1         0.1053
      30    H14     16.257330   18.337274   22.969767 H          1 MOL1         0.0783
      31    O8      14.819685   17.075254   23.764211 O.3        1 MOL1        -0.5519
      32    H15     14.723783   17.595677   24.593015 H          1 MOL1         0.3769
      33    C10     15.155225   17.379712   21.368194 C.3        1 MOL1         0.1018
      34    H16     14.218305   16.811954   21.294368 H          1 MOL1         0.0783
      35    C11     15.247774   18.418436   20.210980 C.3        1 MOL1         0.1043
      36    H17     16.286822   18.765102   20.151276 H          1 MOL1         0.0783
      37    O9      14.387116   19.559126   20.466777 O.3        1 MOL1        -0.3740
      38    C12     14.882192   17.834884   18.825317 C.3        1 MOL1         0.0138
      39    H18     15.683072   17.152536   18.510726 H          1 MOL1         0.0794
      40    H19     14.849448   18.655929   18.096585 H          1 MOL1         0.0794
      41    O10     13.630317   17.137905   18.846639 O.3        1 MOL1        -0.5486
      42    H20     13.432777   16.852019   17.928125 H          1 MOL1         0.3769
      43    C13     18.500251   23.978619   21.312887 C.3        1 MOL1         0.2972
      44    H21     18.844268   25.005368   21.134843 H          1 MOL1         0.0751
      45    O11     19.609578   23.077471   21.513443 O.3        1 MOL1        -0.3740
      46    C14     17.618947   23.944941   22.588428 C.3        1 MOL1         0.1003
      47    H22     16.789268   24.646973   22.433800 H          1 MOL1         0.0783
      48    O12     18.381702   24.358682   23.733616 O.3        1 MOL1        -0.5519
      49    H23     19.324686   24.120181   23.552945 H          1 MOL1         0.3769
      50    C15     17.014654   22.538839   22.820044 C.3        1 MOL1         0.1053
      51    H24     17.834726   21.854409   23.072718 H          1 MOL1         0.0783
      52    O13     16.077181   22.589358   23.900433 O.3        1 MOL1        -0.5519
      53    H25     16.530882   23.100782   24.607248 H          1 MOL1         0.3769
      54    C16     16.318014   22.019246   21.539332 C.3        1 MOL1         0.1018
      55    H26     15.412228   22.615183   21.366097 H          1 MOL1         0.0783
      56    C17     17.249987   22.136945   20.303386 C.3        1 MOL1         0.1043
      57    H27     18.108265   21.478878   20.467691 H          1 MOL1         0.0783
      58    O14     17.721798   23.503338   20.191279 O.3        1 MOL1        -0.3740
      59    C18     16.606019   21.714032   18.958077 C.3        1 MOL1         0.0138
      60    H28     16.738853   20.631688   18.834766 H          1 MOL1         0.0794
      61    H29     17.154820   22.198052   18.139340 H          1 MOL1         0.0794
      62    O15     15.213329   22.035375   18.873116 O.3        1 MOL1        -0.5486
      63    H30     14.727389   21.324809   19.352331 H          1 MOL1         0.3769
      64    C19     23.683117   22.667078   20.690586 C.3        1 MOL1         0.2972
      65    H31     24.719879   22.803839   20.357024 H          1 MOL1         0.0751
      66    O16     23.445044   21.313487   21.134179 O.3        1 MOL1        -0.3740
      67    C20     23.324246   23.653165   21.835478 C.3        1 MOL1         0.1003
      68    H32     23.414378   24.667620   21.425609 H          1 MOL1         0.0783
      69    O17     24.216952   23.529957   22.952168 O.3        1 MOL1        -0.5519
      70    H33     24.161325   22.594407   23.272633 H          1 MOL1         0.3769
      71    C21     21.853368   23.452610   22.278989 C.3        1 MOL1         0.1053
      72    H34     21.757080   22.449600   22.716709 H          1 MOL1         0.0783
      73    O18     21.502044   24.441859   23.252473 O.3        1 MOL1        -0.5519
      74    H35     22.264213   24.474385   23.872720 H          1 MOL1         0.3769
      75    C22     20.896107   23.553712   21.065376 C.3        1 MOL1         0.1018
      76    H36     20.860034   24.605946   20.754492 H          1 MOL1         0.0783
      77    C23     21.369959   22.683199   19.865208 C.3        1 MOL1         0.1043
      78    H37     21.254799   21.630238   20.134430 H          1 MOL1         0.0783
      79    O19     22.772404   22.943563   19.600449 O.3        1 MOL1        -0.3740
      80    C24     20.566891   22.886478   18.555103 C.3        1 MOL1         0.0138
      81    H38     19.687100   22.231228   18.582472 H          1 MOL1         0.0794
      82    H39     21.185983   22.553572   17.711399 H          1 MOL1         0.0794
      83    O20     20.145008   24.239518   18.352438 O.3        1 MOL1        -0.5486
      84    H40     19.285530   24.339834   18.820843 H          1 MOL1         0.3769
      85    C25     25.081689   17.683251   22.126085 C.3        1 MOL1         0.2972
      86    H41     25.685885   16.807329   22.395686 H          1 MOL1         0.0751
      87    O21     23.731161   17.316375   21.779778 O.3        1 MOL1        -0.3740
      88    C26     25.034637   18.683104   23.305649 C.3        1 MOL1         0.1003
      89    H42     26.057509   19.044607   23.473939 H          1 MOL1         0.0783
      90    O22     24.556153   18.049567   24.502288 O.3        1 MOL1        -0.5519
      91    H43     24.071224   17.233695   24.223551 H          1 MOL1         0.3769
      92    C27     24.151232   19.898743   22.947096 C.3        1 MOL1         0.1053
      93    H44     23.119444   19.541267   22.853819 H          1 MOL1         0.0783
      94    O23     24.222948   20.854535   24.008094 O.3        1 MOL1        -0.5519
      95    H45     24.119309   20.320752   24.828320 H          1 MOL1         0.3769
      96    C28     24.577562   20.547662   21.601040 C.3        1 MOL1         0.1018
      97    H46     25.454607   21.182580   21.783664 H          1 MOL1         0.0783
      98    C29     24.895717   19.503309   20.486118 C.3        1 MOL1         0.1043
      99    H47     23.942032   19.128383   20.098052 H          1 MOL1         0.0783
     100    O24     25.657706   18.377701   20.999921 O.3        1 MOL1        -0.3740
     101    C30     25.659620   20.104608   19.282664 C.3        1 MOL1         0.0138
     102    H48     24.979902   20.773732   18.737789 H          1 MOL1         0.0794
     103    H49     25.933368   19.290110   18.598546 H          1 MOL1         0.0794
     104    O25     26.828057   20.826477   19.691085 O.3        1 MOL1        -0.5486
     105    H50     27.301490   21.111555   18.879077 H          1 MOL1         0.3769
     106    C31     21.338693   13.921149   21.250392 C.3        1 MOL1         0.2972
     107    H51     21.004453   12.897715   21.037377 H          1 MOL1         0.0751
     108    O26     20.223199   14.800109   21.494555 O.3        1 MOL1        -0.3740
     109    C32     22.223268   13.926127   22.523327 C.3        1 MOL1         0.1003
     110    H52     23.069730   13.251990   22.338382 H          1 MOL1         0.0783
     111    O27     21.475141   13.446756   23.652203 O.3        1 MOL1        -0.5519
     112    H53     20.528540   13.680791   23.487485 H          1 MOL1         0.3769
     113    C33     22.792768   15.337544   22.810487 C.3        1 MOL1         0.1053
     114    H54     21.959845   15.997331   23.089668 H          1 MOL1         0.0783
     115    O28     23.728993   15.256764   23.888872 O.3        1 MOL1        -0.5519
     116    H55     23.288021   14.695018   24.565423 H          1 MOL1         0.3769
     117    C34     23.477350   15.918864   21.548690 C.3        1 MOL1         0.1018
     118    H56     24.403457   15.362090   21.353878 H          1 MOL1         0.0783
     119    C35     22.554907   15.820801   20.303677 C.3        1 MOL1         0.1043
     120    H57     21.683632   16.463991   20.471835 H          1 MOL1         0.0783
     121    O29     22.106741   14.450590   20.144617 O.3        1 MOL1        -0.3740
     122    C36     23.214368   16.300595   18.984319 C.3        1 MOL1         0.0138
     123    H58     23.044474   17.380610   18.886641 H          1 MOL1         0.0794
     124    H59     22.703432   15.819748   18.139478 H          1 MOL1         0.0794
     125    O30     24.621073   16.034370   18.926610 O.3        1 MOL1        -0.5486
     126    H60     25.059608   16.646682   19.560474 H          1 MOL1         0.3769
     127    C1      19.723370   19.102752   20.389459 C.3        1 MOL1        -0.1693
     128    H1      19.734878   18.215774   19.746302 H          1 MOL1         0.0829
     129    H2      19.506861   19.974670   19.765699 H          1 MOL1         0.0829
     130    C2      20.951423   19.229347   21.341370 C.3        1 MOL1        -0.1768
     131    H3      21.895372   18.858164   20.941536 H          1 MOL1         0.0829
     132    H4      21.110965   20.225733   21.767098 H          1 MOL1         0.0829
     133    C3      20.175114   18.269432   22.285121 C.3        1 MOL1         0.1211
     134    H5      20.260392   17.210514   22.023414 H          1 MOL1         0.0786
     135    C4      18.903140   18.956547   21.712263 C.3        1 MOL1        -0.1768
     136    H6      18.636571   19.899118   22.201422 H          1 MOL1         0.0829
     137    H7      18.017972   18.325873   21.658028 H          1 MOL1         0.0829
     138    O1      20.407327   18.456565   23.659115 O.3        1 MOL1        -0.5515
     139    H8      20.325023   19.413747   23.835871 H          1 MOL1         0.3773
@<TRIPOS>BOND
    1     1     2    1
    2     1     3    1
    3     1     4    1
    4     4     5    1
    5     4     6    1
    6     6     7    1
    7     4     8    1
    8     8     9    1
    9     8    10    1
   10    10    11    1
   11     8    12    1
   12    12    13    1
   13    12    14    1
   14    14    15    1
   15     1    16    1
   16    14    16    1
   17    14    17    1
   18    17    18    1
   19    17    19    1
   20    17    20    1
   21    20    21    1
   22    22    23    1
   23    22    24    1
   24    22    25    1
   25    25    26    1
   26    25    27    1
   27    27    28    1
   28    25    29    1
   29    29    30    1
   30    29    31    1
   31    31    32    1
   32     3    33    1
   33    29    33    1
   34    33    34    1
   35    33    35    1
   36    35    36    1
   37    22    37    1
   38    35    37    1
   39    35    38    1
   40    38    39    1
   41    38    40    1
   42    38    41    1
   43    41    42    1
   44    43    44    1
   45    43    45    1
   46    43    46    1
   47    46    47    1
   48    46    48    1
   49    48    49    1
   50    46    50    1
   51    50    51    1
   52    50    52    1
   53    52    53    1
   54    24    54    1
   55    50    54    1
   56    54    55    1
   57    54    56    1
   58    56    57    1
   59    43    58    1
   60    56    58    1
   61    56    59    1
   62    59    60    1
   63    59    61    1
   64    59    62    1
   65    62    63    1
   66    64    65    1
   67    64    66    1
   68    64    67    1
   69    67    68    1
   70    67    69    1
   71    69    70    1
   72    67    71    1
   73    71    72    1
   74    71    73    1
   75    73    74    1
   76    45    75    1
   77    71    75    1
   78    75    76    1
   79    75    77    1
   80    77    78    1
   81    64    79    1
   82    77    79    1
   83    77    80    1
   84    80    81    1
   85    80    82    1
   86    80    83    1
   87    83    84    1
   88    85    86    1
   89    85    87    1
   90    85    88    1
   91    88    89    1
   92    88    90    1
   93    90    91    1
   94    88    92    1
   95    92    93    1
   96    92    94    1
   97    94    95    1
   98    66    96    1
   99    92    96    1
  100    96    97    1
  101    96    98    1
  102    98    99    1
  103    85   100    1
  104    98   100    1
  105    98   101    1
  106   101   102    1
  107   101   103    1
  108   101   104    1
  109   104   105    1
  110   106   107    1
  111    12   108    1
  112   106   108    1
  113   106   109    1
  114   109   110    1
  115   109   111    1
  116   111   112    1
  117   109   113    1
  118   113   114    1
  119   113   115    1
  120   115   116    1
  121    87   117    1
  122   113   117    1
  123   117   118    1
  124   117   119    1
  125   119   120    1
  126   106   121    1
  127   119   121    1
  128   119   122    1
  129   122   123    1
  130   122   124    1
  131   122   125    1
  132   125   126    1
  133   127   128    1
  134   127   129    1
  135   127   130    1
  136   130   131    1
  137   130   132    1
  138   130   133    1
  139   133   134    1
  140   127   135    1
  141   133   135    1
  142   135   136    1
  143   135   137    1
  144   133   138    1
  145   138   139    1
@<TRIPOS>SUBSTRUCTURE
       1 MOL1            1 RESIDUE      1      MOL     
       2 MOL1          139 RESIDUE      1      MOL     
@<SCITEGIC>MOL_PROPERTY
feprocess Rank
SciTegic.value.IntegerValue
200

@<SCITEGIC>MOL_PROPERTY
Conf_Id
SciTegic.value.IntegerValue
974

@<SCITEGIC>MOL_PROPERTY
Probability
SciTegic.value.DoubleValue
0.00

@<SCITEGIC>MOL_PROPERTY
G
SciTegic.value.DoubleValue
551.596

@<SCITEGIC>MOL_PROPERTY
E
SciTegic.value.DoubleValue
372.855

@<SCITEGIC>MOL_PROPERTY
-TS
SciTegic.value.DoubleValue
178.741

@<SCITEGIC>MOL_PROPERTY
U+W
SciTegic.value.DoubleValue
250.343

@<SCITEGIC>MOL_PROPERTY
U
SciTegic.value.DoubleValue
288.805

@<SCITEGIC>MOL_PROPERTY
W
SciTegic.value.DoubleValue
-38.462

@<SCITEGIC>MOL_PROPERTY
W(PB)
SciTegic.value.DoubleValue
-44.391

@<SCITEGIC>MOL_PROPERTY
W(SA)
SciTegic.value.DoubleValue
5.930

@<SCITEGIC>MOL_PROPERTY
Valence
SciTegic.value.DoubleValue
156.868

@<SCITEGIC>MOL_PROPERTY
Coulomb
SciTegic.value.DoubleValue
154.085

@<SCITEGIC>MOL_PROPERTY
VdW
SciTegic.value.DoubleValue
-22.148

@<SCITEGIC>MOL_PROPERTY
VdW6
SciTegic.value.DoubleValue
-170.159

@<SCITEGIC>MOL_PROPERTY
VdW12
SciTegic.value.DoubleValue
148.011

@<SCITEGIC>MOL_PROPERTY
Bond
SciTegic.value.DoubleValue
4.873

@<SCITEGIC>MOL_PROPERTY
Angle
SciTegic.value.DoubleValue
12.197

@<SCITEGIC>MOL_PROPERTY
Pdih
SciTegic.value.DoubleValue
139.799

@<SCITEGIC>MOL_PROPERTY
Idih
SciTegic.value.DoubleValue
0.000

@<SCITEGIC>MOL_PROPERTY
Tether
SciTegic.value.DoubleValue
0.000

@<TRIPOS>MOLECULE
CD_guest-s16_fast_vm2_rndm.mol2 : feprocess host+ligand conformer 201
         139         145           2
SMALL
USER_CHARGES
 
@<TRIPOS>ATOM
       1    C1      16.224914   15.196710   21.062655 C.3        1 MOL1         0.2972
       2    H1      15.198124   14.936256   20.775111 H          1 MOL1         0.0751
       3    O1      16.331463   16.591371   21.406896 O.3        1 MOL1        -0.3740
       4    C2      16.643626   14.371847   22.308135 C.3        1 MOL1         0.1003
       5    H2      16.552892   13.308902   22.049303 H          1 MOL1         0.0783
       6    O2      15.776269   14.668332   23.412589 O.3        1 MOL1        -0.5519
       7    H3      15.541155   15.622159   23.326223 H          1 MOL1         0.3769
       8    C3      18.117008   14.648645   22.692745 C.3        1 MOL1         0.1053
       9    H4      18.190736   15.692137   23.026875 H          1 MOL1         0.0783
      10    O3      18.514014   13.769394   23.750269 O.3        1 MOL1        -0.5519
      11    H5      17.770033   13.793391   24.393118 H          1 MOL1         0.3769
      12    C4      19.039296   14.459824   21.465241 C.3        1 MOL1         0.1018
      13    H6      19.061854   13.395394   21.195831 H          1 MOL1         0.0783
      14    C5      18.531873   15.274187   20.248573 C.3        1 MOL1         0.1043
      15    H7      18.593186   16.337296   20.510026 H          1 MOL1         0.0783
      16    O4      17.149362   14.921614   19.984437 O.3        1 MOL1        -0.3740
      17    C6      19.359194   15.070452   18.952050 C.3        1 MOL1         0.0138
      18    H8      20.178736   15.799835   18.945937 H          1 MOL1         0.0794
      19    H9      18.722643   15.302714   18.087807 H          1 MOL1         0.0794
      20    O5      19.894814   13.747186   18.825404 O.3        1 MOL1        -0.5486
      21    H10     20.607088   13.652102   19.499777 H          1 MOL1         0.3769
      22    C7      14.765735   20.367041   20.642060 C.3        1 MOL1         0.2972
      23    H11     14.188130   21.219900   20.262784 H          1 MOL1         0.0751
      24    O6      15.855486   20.798588   21.485917 O.3        1 MOL1        -0.3740
      25    C8      13.853668   19.436000   21.479543 C.3        1 MOL1         0.1003
      26    H12     13.018550   19.129190   20.836470 H          1 MOL1         0.0783
      27    O7      13.343667   20.141011   22.622808 O.3        1 MOL1        -0.5519
      28    H13     14.105881   20.629434   23.016074 H          1 MOL1         0.3769
      29    C9      14.602790   18.157628   21.934208 C.3        1 MOL1         0.1053
      30    H14     15.321202   18.449888   22.708212 H          1 MOL1         0.0783
      31    O8      13.664751   17.230440   22.489609 O.3        1 MOL1        -0.5519
      32    H15     13.126751   17.753476   23.123953 H          1 MOL1         0.3769
      33    C10     15.387977   17.482822   20.778417 C.3        1 MOL1         0.1018
      34    H16     14.673471   16.947850   20.139264 H          1 MOL1         0.0783
      35    C11     16.181134   18.511131   19.922771 C.3        1 MOL1         0.1043
      36    H17     16.995772   18.909062   20.536503 H          1 MOL1         0.0783
      37    O9      15.301217   19.594176   19.549218 O.3        1 MOL1        -0.3740
      38    C12     16.821949   17.952494   18.625991 C.3        1 MOL1         0.0138
      39    H18     17.836146   17.607299   18.856096 H          1 MOL1         0.0794
      40    H19     16.929043   18.776806   17.908317 H          1 MOL1         0.0794
      41    O10     16.071469   16.886707   18.033837 O.3        1 MOL1        -0.5486
      42    H20     16.261520   16.076151   18.561351 H          1 MOL1         0.3769
      43    C13     18.399701   24.055901   21.854548 C.3        1 MOL1         0.2972
      44    H21     18.846773   25.055562   21.927766 H          1 MOL1         0.0751
      45    O11     19.403763   23.019607   21.888945 O.3        1 MOL1        -0.3740
      46    C14     17.416266   23.847922   23.029735 C.3        1 MOL1         0.1003
      47    H22     16.639743   24.620236   22.954170 H          1 MOL1         0.0783
      48    O12     18.098914   23.980030   24.287041 O.3        1 MOL1        -0.5519
      49    H23     19.057256   23.797440   24.118793 H          1 MOL1         0.3769
      50    C15     16.730486   22.469005   22.930096 C.3        1 MOL1         0.1053
      51    H24     17.502580   21.713384   23.100922 H          1 MOL1         0.0783
      52    O13     15.717582   22.358418   23.935158 O.3        1 MOL1        -0.5519
      53    H25     16.146015   22.668009   24.763876 H          1 MOL1         0.3769
      54    C16     16.110058   22.220710   21.533001 C.3        1 MOL1         0.1018
      55    H26     15.177906   22.797486   21.468772 H          1 MOL1         0.0783
      56    C17     17.070100   22.622424   20.368664 C.3        1 MOL1         0.1043
      57    H27     17.864415   21.868375   20.311586 H          1 MOL1         0.0783
      58    O14     17.664122   23.922093   20.623677 O.3        1 MOL1        -0.3740
      59    C18     16.401351   22.701873   18.973988 C.3        1 MOL1         0.0138
      60    H28     16.237810   21.686102   18.595310 H          1 MOL1         0.0794
      61    H29     17.100309   23.188980   18.280657 H          1 MOL1         0.0794
      62    O15     15.161198   23.418822   19.008517 O.3        1 MOL1        -0.5486
      63    H30     14.837346   23.498279   18.084838 H          1 MOL1         0.3769
      64    C19     23.572506   22.701006   21.384083 C.3        1 MOL1         0.2972
      65    H31     24.616581   22.965976   21.174241 H          1 MOL1         0.0751
      66    O16     23.433212   21.294761   21.660383 O.3        1 MOL1        -0.3740
      67    C20     23.083589   23.467285   22.640852 C.3        1 MOL1         0.1003
      68    H32     23.216848   24.539547   22.446884 H          1 MOL1         0.0783
      69    O17     23.865527   23.090678   23.785625 O.3        1 MOL1        -0.5519
      70    H33     24.126045   22.146913   23.651123 H          1 MOL1         0.3769
      71    C21     21.579462   23.213401   22.908819 C.3        1 MOL1         0.1053
      72    H34     21.451181   22.163218   23.201865 H          1 MOL1         0.0783
      73    O18     21.128920   24.069853   23.963517 O.3        1 MOL1        -0.5519
      74    H35     21.816361   23.996630   24.662813 H          1 MOL1         0.3769
      75    C22     20.750074   23.467843   21.629191 C.3        1 MOL1         0.1018
      76    H36     20.789067   24.541277   21.401007 H          1 MOL1         0.0783
      77    C23     21.324500   22.684077   20.418793 C.3        1 MOL1         0.1043
      78    H37     21.245426   21.610879   20.629506 H          1 MOL1         0.0783
      79    O19     22.723029   23.035262   20.262609 O.3        1 MOL1        -0.3740
      80    C24     20.591947   22.942438   19.076471 C.3        1 MOL1         0.0138
      81    H38     19.736948   22.257963   19.009380 H          1 MOL1         0.0794
      82    H39     21.270196   22.687408   18.251628 H          1 MOL1         0.0794
      83    O20     20.134762   24.291936   18.933073 O.3        1 MOL1        -0.5486
      84    H40     19.304191   24.371437   19.457566 H          1 MOL1         0.3769
      85    C25     25.064097   17.572897   20.764122 C.3        1 MOL1         0.2972
      86    H41     25.681506   16.736283   20.414780 H          1 MOL1         0.0751
      87    O21     23.772443   17.127512   21.225383 O.3        1 MOL1        -0.3740
      88    C26     25.767855   18.352025   21.905631 C.3        1 MOL1         0.1003
      89    H42     26.699067   18.761373   21.492711 H          1 MOL1         0.0783
      90    O22     26.088783   17.494929   23.011414 O.3        1 MOL1        -0.5519
      91    H43     25.243179   17.082489   23.321957 H          1 MOL1         0.3769
      92    C27     24.890163   19.541592   22.367157 C.3        1 MOL1         0.1053
      93    H44     23.977950   19.136654   22.826725 H          1 MOL1         0.0783
      94    O23     25.606935   20.325711   23.327010 O.3        1 MOL1        -0.5519
      95    H45     26.005336   19.674594   23.946268 H          1 MOL1         0.3769
      96    C28     24.477985   20.432837   21.167449 C.3        1 MOL1         0.1018
      97    H46     25.362285   20.999027   20.847089 H          1 MOL1         0.0783
      98    C29     23.929250   19.597989   19.971915 C.3        1 MOL1         0.1043
      99    H47     22.956778   19.183645   20.259918 H          1 MOL1         0.0783
     100    O24     24.842683   18.508144   19.686004 O.3        1 MOL1        -0.3740
     101    C30     23.694983   20.389445   18.660211 C.3        1 MOL1         0.0138
     102    H48     22.680836   20.806212   18.682956 H          1 MOL1         0.0794
     103    H49     23.728029   19.685486   17.817975 H          1 MOL1         0.0794
     104    O25     24.641770   21.443293   18.455280 O.3        1 MOL1        -0.5486
     105    H50     24.277000   22.237730   18.906977 H          1 MOL1         0.3769
     106    C31     21.333693   13.941428   22.086265 C.3        1 MOL1         0.2972
     107    H51     20.867931   12.974852   22.318849 H          1 MOL1         0.0751
     108    O26     20.345710   14.954443   21.811712 O.3        1 MOL1        -0.3740
     109    C32     22.197303   14.406330   23.281273 C.3        1 MOL1         0.1003
     110    H52     22.987324   13.658816   23.430429 H          1 MOL1         0.0783
     111    O27     21.401245   14.501925   24.473644 O.3        1 MOL1        -0.5519
     112    H53     20.454303   14.464696   24.190945 H          1 MOL1         0.3769
     113    C33     22.869377   15.762254   22.971723 C.3        1 MOL1         0.1053
     114    H54     22.076026   16.515721   22.917552 H          1 MOL1         0.0783
     115    O28     23.769112   16.093483   24.032602 O.3        1 MOL1        -0.5519
     116    H55     23.259690   15.915868   24.855279 H          1 MOL1         0.3769
     117    C34     23.620713   15.747521   21.613787 C.3        1 MOL1         0.1018
     118    H56     24.586808   15.244896   21.749718 H          1 MOL1         0.0783
     119    C35     22.803943   15.065099   20.477456 C.3        1 MOL1         0.1043
     120    H57     22.012503   15.764943   20.182237 H          1 MOL1         0.0783
     121    O29     22.191207   13.830881   20.932190 O.3        1 MOL1        -0.3740
     122    C36     23.634466   14.758071   19.207681 C.3        1 MOL1         0.0138
     123    H58     23.962631   15.706003   18.760078 H          1 MOL1         0.0794
     124    H59     22.978787   14.267437   18.475926 H          1 MOL1         0.0794
     125    O30     24.767541   13.923252   19.480937 O.3        1 MOL1        -0.5486
     126    H60     25.411297   14.437105   20.010152 H          1 MOL1         0.3769
     127    C1      20.901944   19.023212   22.327411 C.3        1 MOL1        -0.1693
     128    H1      21.488976   19.892869   22.641995 H          1 MOL1         0.0829
     129    H2      21.544148   18.346897   21.758756 H          1 MOL1         0.0829
     130    C2      19.526053   19.352319   21.669677 C.3        1 MOL1        -0.1768
     131    H3      19.471267   20.268379   21.075743 H          1 MOL1         0.0829
     132    H4      19.103536   18.525683   21.089730 H          1 MOL1         0.0829
     133    C3      18.999964   19.459602   23.130389 C.3        1 MOL1         0.1211
     134    H5      19.203711   20.426820   23.609137 H          1 MOL1         0.0786
     135    C4      20.057406   18.368332   23.467458 C.3        1 MOL1        -0.1768
     136    H6      19.733441   17.341249   23.267726 H          1 MOL1         0.0829
     137    H7      20.486140   18.413115   24.474154 H          1 MOL1         0.0829
     138    O1      17.657073   19.082038   23.309736 O.3        1 MOL1        -0.5515
     139    H8      17.097562   19.743478   22.849414 H          1 MOL1         0.3773
@<TRIPOS>BOND
    1     1     2    1
    2     1     3    1
    3     1     4    1
    4     4     5    1
    5     4     6    1
    6     6     7    1
    7     4     8    1
    8     8     9    1
    9     8    10    1
   10    10    11    1
   11     8    12    1
   12    12    13    1
   13    12    14    1
   14    14    15    1
   15     1    16    1
   16    14    16    1
   17    14    17    1
   18    17    18    1
   19    17    19    1
   20    17    20    1
   21    20    21    1
   22    22    23    1
   23    22    24    1
   24    22    25    1
   25    25    26    1
   26    25    27    1
   27    27    28    1
   28    25    29    1
   29    29    30    1
   30    29    31    1
   31    31    32    1
   32     3    33    1
   33    29    33    1
   34    33    34    1
   35    33    35    1
   36    35    36    1
   37    22    37    1
   38    35    37    1
   39    35    38    1
   40    38    39    1
   41    38    40    1
   42    38    41    1
   43    41    42    1
   44    43    44    1
   45    43    45    1
   46    43    46    1
   47    46    47    1
   48    46    48    1
   49    48    49    1
   50    46    50    1
   51    50    51    1
   52    50    52    1
   53    52    53    1
   54    24    54    1
   55    50    54    1
   56    54    55    1
   57    54    56    1
   58    56    57    1
   59    43    58    1
   60    56    58    1
   61    56    59    1
   62    59    60    1
   63    59    61    1
   64    59    62    1
   65    62    63    1
   66    64    65    1
   67    64    66    1
   68    64    67    1
   69    67    68    1
   70    67    69    1
   71    69    70    1
   72    67    71    1
   73    71    72    1
   74    71    73    1
   75    73    74    1
   76    45    75    1
   77    71    75    1
   78    75    76    1
   79    75    77    1
   80    77    78    1
   81    64    79    1
   82    77    79    1
   83    77    80    1
   84    80    81    1
   85    80    82    1
   86    80    83    1
   87    83    84    1
   88    85    86    1
   89    85    87    1
   90    85    88    1
   91    88    89    1
   92    88    90    1
   93    90    91    1
   94    88    92    1
   95    92    93    1
   96    92    94    1
   97    94    95    1
   98    66    96    1
   99    92    96    1
  100    96    97    1
  101    96    98    1
  102    98    99    1
  103    85   100    1
  104    98   100    1
  105    98   101    1
  106   101   102    1
  107   101   103    1
  108   101   104    1
  109   104   105    1
  110   106   107    1
  111    12   108    1
  112   106   108    1
  113   106   109    1
  114   109   110    1
  115   109   111    1
  116   111   112    1
  117   109   113    1
  118   113   114    1
  119   113   115    1
  120   115   116    1
  121    87   117    1
  122   113   117    1
  123   117   118    1
  124   117   119    1
  125   119   120    1
  126   106   121    1
  127   119   121    1
  128   119   122    1
  129   122   123    1
  130   122   124    1
  131   122   125    1
  132   125   126    1
  133   127   128    1
  134   127   129    1
  135   127   130    1
  136   130   131    1
  137   130   132    1
  138   130   133    1
  139   133   134    1
  140   127   135    1
  141   133   135    1
  142   135   136    1
  143   135   137    1
  144   133   138    1
  145   138   139    1
@<TRIPOS>SUBSTRUCTURE
       1 MOL1            1 RESIDUE      1      MOL     
       2 MOL1          139 RESIDUE      1      MOL     
@<SCITEGIC>MOL_PROPERTY
feprocess Rank
SciTegic.value.IntegerValue
201

@<SCITEGIC>MOL_PROPERTY
Conf_Id
SciTegic.value.IntegerValue
719

@<SCITEGIC>MOL_PROPERTY
Probability
SciTegic.value.DoubleValue
0.00

@<SCITEGIC>MOL_PROPERTY
G
SciTegic.value.DoubleValue
551.843

@<SCITEGIC>MOL_PROPERTY
E
SciTegic.value.DoubleValue
374.417

@<SCITEGIC>MOL_PROPERTY
-TS
SciTegic.value.DoubleValue
177.426

@<SCITEGIC>MOL_PROPERTY
U+W
SciTegic.value.DoubleValue
251.906

@<SCITEGIC>MOL_PROPERTY
U
SciTegic.value.DoubleValue
290.278

@<SCITEGIC>MOL_PROPERTY
W
SciTegic.value.DoubleValue
-38.372

@<SCITEGIC>MOL_PROPERTY
W(PB)
SciTegic.value.DoubleValue
-44.285

@<SCITEGIC>MOL_PROPERTY
W(SA)
SciTegic.value.DoubleValue
5.913

@<SCITEGIC>MOL_PROPERTY
Valence
SciTegic.value.DoubleValue
155.121

@<SCITEGIC>MOL_PROPERTY
Coulomb
SciTegic.value.DoubleValue
158.138

@<SCITEGIC>MOL_PROPERTY
VdW
SciTegic.value.DoubleValue
-22.981

@<SCITEGIC>MOL_PROPERTY
VdW6
SciTegic.value.DoubleValue
-168.743

@<SCITEGIC>MOL_PROPERTY
VdW12
SciTegic.value.DoubleValue
145.762

@<SCITEGIC>MOL_PROPERTY
Bond
SciTegic.value.DoubleValue
4.608

@<SCITEGIC>MOL_PROPERTY
Angle
SciTegic.value.DoubleValue
12.105

@<SCITEGIC>MOL_PROPERTY
Pdih
SciTegic.value.DoubleValue
138.408

@<SCITEGIC>MOL_PROPERTY
Idih
SciTegic.value.DoubleValue
0.000

@<SCITEGIC>MOL_PROPERTY
Tether
SciTegic.value.DoubleValue
0.000

@<TRIPOS>MOLECULE
CD_guest-s16_fast_vm2_rndm.mol2 : feprocess host+ligand conformer 202
         139         145           2
SMALL
USER_CHARGES
 
@<TRIPOS>ATOM
       1    C1      16.217568   15.221972   21.773788 C.3        1 MOL1         0.2972
       2    H1      15.121596   15.232448   21.709446 H          1 MOL1         0.0751
       3    O1      16.760307   16.542573   21.572506 O.3        1 MOL1        -0.3740
       4    C2      16.643614   14.688403   23.158489 C.3        1 MOL1         0.1003
       5    H2      16.242946   13.671077   23.257545 H          1 MOL1         0.0783
       6    O2      16.102121   15.515921   24.198715 O.3        1 MOL1        -0.5519
       7    H3      16.044543   16.423465   23.823633 H          1 MOL1         0.3769
       8    C3      18.179784   14.608650   23.280208 C.3        1 MOL1         0.1053
       9    H4      18.566528   15.635794   23.303330 H          1 MOL1         0.0783
      10    O3      18.507633   13.946080   24.506451 O.3        1 MOL1        -0.5519
      11    H5      17.962116   14.392201   25.191307 H          1 MOL1         0.3769
      12    C4      18.847304   13.875986   22.085375 C.3        1 MOL1         0.1018
      13    H6      18.760504   12.794657   22.250979 H          1 MOL1         0.0783
      14    C5      18.218893   14.255316   20.700239 C.3        1 MOL1         0.1043
      15    H7      18.626229   15.230039   20.414012 H          1 MOL1         0.0783
      16    O4      16.771696   14.348686   20.774694 O.3        1 MOL1        -0.3740
      17    C6      18.502757   13.253720   19.547853 C.3        1 MOL1         0.0138
      18    H8      19.515558   13.403989   19.160078 H          1 MOL1         0.0794
      19    H9      17.820650   13.479237   18.716938 H          1 MOL1         0.0794
      20    O5      18.335355   11.891866   19.959525 O.3        1 MOL1        -0.5486
      21    H10     18.434068   11.325077   19.163407 H          1 MOL1         0.3769
      22    C7      15.530057   20.183697   19.897030 C.3        1 MOL1         0.2972
      23    H11     15.061373   20.951378   19.268059 H          1 MOL1         0.0751
      24    O6      16.551307   20.743764   20.743260 O.3        1 MOL1        -0.3740
      25    C8      14.476662   19.475337   20.790921 C.3        1 MOL1         0.1003
      26    H12     13.732125   19.029097   20.118879 H          1 MOL1         0.0783
      27    O7      13.818633   20.406097   21.665398 O.3        1 MOL1        -0.5519
      28    H13     14.522002   20.865316   22.190900 H          1 MOL1         0.3769
      29    C9      15.118780   18.330488   21.614754 C.3        1 MOL1         0.1053
      30    H14     15.782122   18.781132   22.362901 H          1 MOL1         0.0783
      31    O8      14.085436   17.591430   22.272336 O.3        1 MOL1        -0.5519
      32    H15     13.495125   18.269025   22.670422 H          1 MOL1         0.3769
      33    C10     15.962366   17.387956   20.715384 C.3        1 MOL1         0.1018
      34    H16     15.275019   16.798269   20.094247 H          1 MOL1         0.0783
      35    C11     16.920239   18.174806   19.779636 C.3        1 MOL1         0.1043
      36    H17     17.686997   18.662676   20.393539 H          1 MOL1         0.0783
      37    O9      16.156682   19.179672   19.069615 O.3        1 MOL1        -0.3740
      38    C12     17.666649   17.303832   18.737594 C.3        1 MOL1         0.0138
      39    H18     18.596801   16.944733   19.192484 H          1 MOL1         0.0794
      40    H19     17.957404   17.941401   17.892018 H          1 MOL1         0.0794
      41    O10     16.891621   16.192295   18.269939 O.3        1 MOL1        -0.5486
      42    H20     16.731135   15.597227   19.038018 H          1 MOL1         0.3769
      43    C13     18.402253   24.225813   21.841696 C.3        1 MOL1         0.2972
      44    H21     18.729297   25.244046   22.088289 H          1 MOL1         0.0751
      45    O11     19.478125   23.275318   21.946100 O.3        1 MOL1        -0.3740
      46    C14     17.294893   23.773394   22.820796 C.3        1 MOL1         0.1003
      47    H22     16.433878   24.441821   22.690409 H          1 MOL1         0.0783
      48    O12     17.768555   23.854631   24.175001 O.3        1 MOL1        -0.5519
      49    H23     18.742562   23.688471   24.147310 H          1 MOL1         0.3769
      50    C15     16.845677   22.331111   22.492736 C.3        1 MOL1         0.1053
      51    H24     17.685959   21.663531   22.720871 H          1 MOL1         0.0783
      52    O13     15.720387   21.980179   23.304921 O.3        1 MOL1        -0.5519
      53    H25     15.966895   22.260733   24.214404 H          1 MOL1         0.3769
      54    C16     16.487805   22.160207   20.994759 C.3        1 MOL1         0.1018
      55    H26     15.481072   22.565616   20.827015 H          1 MOL1         0.0783
      56    C17     17.510457   22.836967   20.034692 C.3        1 MOL1         0.1043
      57    H27     18.410499   22.209232   20.018201 H          1 MOL1         0.0783
      58    O14     17.870116   24.162759   20.503469 O.3        1 MOL1        -0.3740
      59    C18     17.013846   22.956210   18.573831 C.3        1 MOL1         0.0138
      60    H28     17.006418   21.954332   18.123777 H          1 MOL1         0.0794
      61    H29     17.733982   23.561678   18.007194 H          1 MOL1         0.0794
      62    O15     15.705972   23.535568   18.493757 O.3        1 MOL1        -0.5486
      63    H30     15.493559   23.663298   17.543395 H          1 MOL1         0.3769
      64    C19     23.594395   22.863090   21.869312 C.3        1 MOL1         0.2972
      65    H31     24.680335   23.017345   21.825296 H          1 MOL1         0.0751
      66    O16     23.256947   21.463451   21.908821 O.3        1 MOL1        -0.3740
      67    C20     23.021270   23.519033   23.149284 C.3        1 MOL1         0.1003
      68    H32     23.241248   24.593492   23.101721 H          1 MOL1         0.0783
      69    O17     23.639005   22.955606   24.317658 O.3        1 MOL1        -0.5519
      70    H33     23.992973   22.070965   24.055373 H          1 MOL1         0.3769
      71    C21     21.486164   23.342935   23.211634 C.3        1 MOL1         0.1053
      72    H34     21.272486   22.275081   23.348300 H          1 MOL1         0.0783
      73    O18     20.955213   24.080602   24.317322 O.3        1 MOL1        -0.5519
      74    H35     21.552297   23.874368   25.070736 H          1 MOL1         0.3769
      75    C22     20.813039   23.803033   21.896161 C.3        1 MOL1         0.1018
      76    H36     20.830912   24.900060   21.856326 H          1 MOL1         0.0783
      77    C23     21.511710   23.215474   20.637096 C.3        1 MOL1         0.1043
      78    H37     21.322114   22.135657   20.628809 H          1 MOL1         0.0783
      79    O19     22.941494   23.446383   20.720480 O.3        1 MOL1        -0.3740
      80    C24     21.001688   23.767343   19.280048 C.3        1 MOL1         0.0138
      81    H38     20.179224   23.131396   18.930670 H          1 MOL1         0.0794
      82    H39     21.807340   23.674869   18.539343 H          1 MOL1         0.0794
      83    O20     20.555831   25.125780   19.351026 O.3        1 MOL1        -0.5486
      84    H40     19.636305   25.104623   19.703332 H          1 MOL1         0.3769
      85    C25     24.778565   17.695355   21.026597 C.3        1 MOL1         0.2972
      86    H41     25.408633   16.868164   20.675001 H          1 MOL1         0.0751
      87    O21     23.523241   17.218465   21.556558 O.3        1 MOL1        -0.3740
      88    C26     25.524627   18.471715   22.140830 C.3        1 MOL1         0.1003
      89    H42     26.468195   18.835606   21.713719 H          1 MOL1         0.0783
      90    O22     25.809789   17.607407   23.252207 O.3        1 MOL1        -0.5519
      91    H43     25.176335   16.848774   23.201155 H          1 MOL1         0.3769
      92    C27     24.707982   19.698589   22.606289 C.3        1 MOL1         0.1053
      93    H44     23.817650   19.327835   23.127508 H          1 MOL1         0.0783
      94    O23     25.489441   20.491908   23.504886 O.3        1 MOL1        -0.5519
      95    H45     25.890270   19.847273   24.130099 H          1 MOL1         0.3769
      96    C28     24.252054   20.558440   21.402032 C.3        1 MOL1         0.1018
      97    H46     25.125131   21.084497   20.993675 H          1 MOL1         0.0783
      98    C29     23.596821   19.701323   20.283850 C.3        1 MOL1         0.1043
      99    H47     22.654668   19.300460   20.676290 H          1 MOL1         0.0783
     100    O24     24.481946   18.604617   19.945236 O.3        1 MOL1        -0.3740
     101    C30     23.250213   20.470574   18.982221 C.3        1 MOL1         0.0138
     102    H48     22.229712   20.862432   19.068113 H          1 MOL1         0.0794
     103    H49     23.243096   19.758385   18.146124 H          1 MOL1         0.0794
     104    O25     24.154081   21.545003   18.700963 O.3        1 MOL1        -0.5486
     105    H50     23.925569   22.283266   19.312331 H          1 MOL1         0.3769
     106    C31     21.198598   13.695449   21.286566 C.3        1 MOL1         0.2972
     107    H51     20.873552   12.695774   20.970848 H          1 MOL1         0.0751
     108    O26     20.232087   14.297982   22.166552 O.3        1 MOL1        -0.3740
     109    C32     22.543611   13.595762   22.057232 C.3        1 MOL1         0.1003
     110    H52     23.261283   13.084643   21.402381 H          1 MOL1         0.0783
     111    O27     22.370686   12.833835   23.260945 O.3        1 MOL1        -0.5519
     112    H53     21.558840   13.190527   23.689498 H          1 MOL1         0.3769
     113    C33     23.115801   14.995274   22.396051 C.3        1 MOL1         0.1053
     114    H54     22.455966   15.465665   23.137995 H          1 MOL1         0.0783
     115    O28     24.436093   14.859263   22.933250 O.3        1 MOL1        -0.5519
     116    H55     24.368330   14.147330   23.607679 H          1 MOL1         0.3769
     117    C34     23.150758   15.890160   21.136164 C.3        1 MOL1         0.1018
     118    H56     23.876707   15.465849   20.429663 H          1 MOL1         0.0783
     119    C35     21.760546   15.932297   20.450435 C.3        1 MOL1         0.1043
     120    H57     21.033290   16.373015   21.145549 H          1 MOL1         0.0783
     121    O29     21.380322   14.569282   20.147547 O.3        1 MOL1        -0.3740
     122    C36     21.706081   16.753033   19.136305 C.3        1 MOL1         0.0138
     123    H58     21.525759   17.805290   19.386302 H          1 MOL1         0.0794
     124    H59     20.843534   16.412319   18.548690 H          1 MOL1         0.0794
     125    O30     22.900354   16.644832   18.353978 O.3        1 MOL1        -0.5486
     126    H60     23.576954   17.224342   18.775124 H          1 MOL1         0.3769
     127    C1      18.844300   18.966510   22.941372 C.3        1 MOL1        -0.1693
     128    H1      17.859817   19.406782   22.765405 H          1 MOL1         0.0829
     129    H2      18.740132   17.876048   22.975153 H          1 MOL1         0.0829
     130    C2      19.660619   19.576438   24.125833 C.3        1 MOL1        -0.1768
     131    H3      19.481752   20.644138   24.301245 H          1 MOL1         0.0829
     132    H4      19.590222   19.045802   25.081470 H          1 MOL1         0.0829
     133    C3      20.929450   19.269521   23.273623 C.3        1 MOL1         0.1211
     134    H5      21.732039   20.005825   23.388523 H          1 MOL1         0.0786
     135    C4      20.007411   19.480595   22.031829 C.3        1 MOL1        -0.1768
     136    H6      20.232539   18.867927   21.154175 H          1 MOL1         0.0829
     137    H7      19.904385   20.525119   21.717057 H          1 MOL1         0.0829
     138    O1      21.442752   17.961187   23.426132 O.3        1 MOL1        -0.5515
     139    H8      22.169817   17.838460   22.779000 H          1 MOL1         0.3773
@<TRIPOS>BOND
    1     1     2    1
    2     1     3    1
    3     1     4    1
    4     4     5    1
    5     4     6    1
    6     6     7    1
    7     4     8    1
    8     8     9    1
    9     8    10    1
   10    10    11    1
   11     8    12    1
   12    12    13    1
   13    12    14    1
   14    14    15    1
   15     1    16    1
   16    14    16    1
   17    14    17    1
   18    17    18    1
   19    17    19    1
   20    17    20    1
   21    20    21    1
   22    22    23    1
   23    22    24    1
   24    22    25    1
   25    25    26    1
   26    25    27    1
   27    27    28    1
   28    25    29    1
   29    29    30    1
   30    29    31    1
   31    31    32    1
   32     3    33    1
   33    29    33    1
   34    33    34    1
   35    33    35    1
   36    35    36    1
   37    22    37    1
   38    35    37    1
   39    35    38    1
   40    38    39    1
   41    38    40    1
   42    38    41    1
   43    41    42    1
   44    43    44    1
   45    43    45    1
   46    43    46    1
   47    46    47    1
   48    46    48    1
   49    48    49    1
   50    46    50    1
   51    50    51    1
   52    50    52    1
   53    52    53    1
   54    24    54    1
   55    50    54    1
   56    54    55    1
   57    54    56    1
   58    56    57    1
   59    43    58    1
   60    56    58    1
   61    56    59    1
   62    59    60    1
   63    59    61    1
   64    59    62    1
   65    62    63    1
   66    64    65    1
   67    64    66    1
   68    64    67    1
   69    67    68    1
   70    67    69    1
   71    69    70    1
   72    67    71    1
   73    71    72    1
   74    71    73    1
   75    73    74    1
   76    45    75    1
   77    71    75    1
   78    75    76    1
   79    75    77    1
   80    77    78    1
   81    64    79    1
   82    77    79    1
   83    77    80    1
   84    80    81    1
   85    80    82    1
   86    80    83    1
   87    83    84    1
   88    85    86    1
   89    85    87    1
   90    85    88    1
   91    88    89    1
   92    88    90    1
   93    90    91    1
   94    88    92    1
   95    92    93    1
   96    92    94    1
   97    94    95    1
   98    66    96    1
   99    92    96    1
  100    96    97    1
  101    96    98    1
  102    98    99    1
  103    85   100    1
  104    98   100    1
  105    98   101    1
  106   101   102    1
  107   101   103    1
  108   101   104    1
  109   104   105    1
  110   106   107    1
  111    12   108    1
  112   106   108    1
  113   106   109    1
  114   109   110    1
  115   109   111    1
  116   111   112    1
  117   109   113    1
  118   113   114    1
  119   113   115    1
  120   115   116    1
  121    87   117    1
  122   113   117    1
  123   117   118    1
  124   117   119    1
  125   119   120    1
  126   106   121    1
  127   119   121    1
  128   119   122    1
  129   122   123    1
  130   122   124    1
  131   122   125    1
  132   125   126    1
  133   127   128    1
  134   127   129    1
  135   127   130    1
  136   130   131    1
  137   130   132    1
  138   130   133    1
  139   133   134    1
  140   127   135    1
  141   133   135    1
  142   135   136    1
  143   135   137    1
  144   133   138    1
  145   138   139    1
@<TRIPOS>SUBSTRUCTURE
       1 MOL1            1 RESIDUE      1      MOL     
       2 MOL1          139 RESIDUE      1      MOL     
@<SCITEGIC>MOL_PROPERTY
feprocess Rank
SciTegic.value.IntegerValue
202

@<SCITEGIC>MOL_PROPERTY
Conf_Id
SciTegic.value.IntegerValue
123

@<SCITEGIC>MOL_PROPERTY
Probability
SciTegic.value.DoubleValue
0.00

@<SCITEGIC>MOL_PROPERTY
G
SciTegic.value.DoubleValue
551.943

@<SCITEGIC>MOL_PROPERTY
E
SciTegic.value.DoubleValue
373.819

@<SCITEGIC>MOL_PROPERTY
-TS
SciTegic.value.DoubleValue
178.124

@<SCITEGIC>MOL_PROPERTY
U+W
SciTegic.value.DoubleValue
251.308

@<SCITEGIC>MOL_PROPERTY
U
SciTegic.value.DoubleValue
288.177

@<SCITEGIC>MOL_PROPERTY
W
SciTegic.value.DoubleValue
-36.869

@<SCITEGIC>MOL_PROPERTY
W(PB)
SciTegic.value.DoubleValue
-42.748

@<SCITEGIC>MOL_PROPERTY
W(SA)
SciTegic.value.DoubleValue
5.879

@<SCITEGIC>MOL_PROPERTY
Valence
SciTegic.value.DoubleValue
153.339

@<SCITEGIC>MOL_PROPERTY
Coulomb
SciTegic.value.DoubleValue
157.688

@<SCITEGIC>MOL_PROPERTY
VdW
SciTegic.value.DoubleValue
-22.851

@<SCITEGIC>MOL_PROPERTY
VdW6
SciTegic.value.DoubleValue
-170.611

@<SCITEGIC>MOL_PROPERTY
VdW12
SciTegic.value.DoubleValue
147.760

@<SCITEGIC>MOL_PROPERTY
Bond
SciTegic.value.DoubleValue
4.606

@<SCITEGIC>MOL_PROPERTY
Angle
SciTegic.value.DoubleValue
12.623

@<SCITEGIC>MOL_PROPERTY
Pdih
SciTegic.value.DoubleValue
136.110

@<SCITEGIC>MOL_PROPERTY
Idih
SciTegic.value.DoubleValue
0.000

@<SCITEGIC>MOL_PROPERTY
Tether
SciTegic.value.DoubleValue
0.000

@<TRIPOS>MOLECULE
CD_guest-s16_fast_vm2_rndm.mol2 : feprocess host+ligand conformer 203
         139         145           2
SMALL
USER_CHARGES
 
@<TRIPOS>ATOM
       1    C1      16.220286   15.177758   20.800027 C.3        1 MOL1         0.2972
       2    H1      15.191129   15.059795   20.437535 H          1 MOL1         0.0751
       3    O1      16.435294   16.480719   21.378428 O.3        1 MOL1        -0.3740
       4    C2      16.512308   14.115873   21.887417 C.3        1 MOL1         0.1003
       5    H2      16.369042   13.126824   21.433136 H          1 MOL1         0.0783
       6    O2      15.603651   14.271487   22.989173 O.3        1 MOL1        -0.5519
       7    H3      15.384921   15.234636   23.045006 H          1 MOL1         0.3769
       8    C3      17.976211   14.211369   22.376482 C.3        1 MOL1         0.1053
       9    H4      18.080595   15.148845   22.935930 H          1 MOL1         0.0783
      10    O3      18.267715   13.108183   23.240533 O.3        1 MOL1        -0.5519
      11    H5      17.508304   13.062645   23.863027 H          1 MOL1         0.3769
      12    C4      18.976398   14.231677   21.192236 C.3        1 MOL1         0.1018
      13    H6      19.038240   13.217252   20.776927 H          1 MOL1         0.0783
      14    C5      18.553111   15.228966   20.073798 C.3        1 MOL1         0.1043
      15    H7      18.664591   16.246291   20.469510 H          1 MOL1         0.0783
      16    O4      17.164696   15.000849   19.724282 O.3        1 MOL1        -0.3740
      17    C6      19.388053   15.161980   18.768789 C.3        1 MOL1         0.0138
      18    H8      20.235409   15.851352   18.859417 H          1 MOL1         0.0794
      19    H9      18.770291   15.532370   17.939689 H          1 MOL1         0.0794
      20    O5      19.867835   13.847436   18.468337 O.3        1 MOL1        -0.5486
      21    H10     20.682195   13.714251   19.006387 H          1 MOL1         0.3769
      22    C7      14.826310   20.366466   21.186272 C.3        1 MOL1         0.2972
      23    H11     14.159094   21.200258   20.933042 H          1 MOL1         0.0751
      24    O6      15.983570   20.828176   21.910396 O.3        1 MOL1        -0.3740
      25    C8      14.074576   19.343268   22.079645 C.3        1 MOL1         0.1003
      26    H12     13.161569   19.050960   21.544883 H          1 MOL1         0.0783
      27    O7      13.719416   19.946457   23.333085 O.3        1 MOL1        -0.5519
      28    H13     14.532741   20.397008   23.659432 H          1 MOL1         0.3769
      29    C9      14.912490   18.063530   22.327094 C.3        1 MOL1         0.1053
      30    H14     15.756070   18.325358   22.976755 H          1 MOL1         0.0783
      31    O8      14.099275   17.072978   22.966560 O.3        1 MOL1        -0.5519
      32    H15     13.665873   17.539571   23.715015 H          1 MOL1         0.3769
      33    C10     15.485722   17.498482   21.007351 C.3        1 MOL1         0.1018
      34    H16     14.655729   17.093451   20.413457 H          1 MOL1         0.0783
      35    C11     16.208389   18.603840   20.191730 C.3        1 MOL1         0.1043
      36    H17     17.069713   18.958285   20.770503 H          1 MOL1         0.0783
      37    O9      15.278961   19.693809   19.990074 O.3        1 MOL1        -0.3740
      38    C12     16.742746   18.163502   18.805195 C.3        1 MOL1         0.0138
      39    H18     17.744909   17.737773   18.936110 H          1 MOL1         0.0794
      40    H19     16.857924   19.056942   18.177174 H          1 MOL1         0.0794
      41    O10     15.898273   17.210724   18.150592 O.3        1 MOL1        -0.5486
      42    H20     16.136143   16.326206   18.512760 H          1 MOL1         0.3769
      43    C13     18.534739   24.083409   21.757652 C.3        1 MOL1         0.2972
      44    H21     19.025974   25.065238   21.746167 H          1 MOL1         0.0751
      45    O11     19.472329   23.013890   21.529581 O.3        1 MOL1        -0.3740
      46    C14     17.850465   23.852677   23.122757 C.3        1 MOL1         0.1003
      47    H22     17.068455   24.613657   23.243557 H          1 MOL1         0.0783
      48    O12     18.804123   23.966909   24.191728 O.3        1 MOL1        -0.5519
      49    H23     19.701841   23.973793   23.777590 H          1 MOL1         0.3769
      50    C15     17.186404   22.461160   23.139510 C.3        1 MOL1         0.1053
      51    H24     17.993656   21.728692   23.048755 H          1 MOL1         0.0783
      52    O13     16.503192   22.263704   24.381361 O.3        1 MOL1        -0.5519
      53    H25     17.087491   22.677897   25.056674 H          1 MOL1         0.3769
      54    C16     16.222270   22.255078   21.942136 C.3        1 MOL1         0.1018
      55    H26     15.296125   22.807504   22.147495 H          1 MOL1         0.0783
      56    C17     16.845791   22.727462   20.585340 C.3        1 MOL1         0.1043
      57    H27     17.575553   21.970044   20.274933 H          1 MOL1         0.0783
      58    O14     17.522704   24.004569   20.736686 O.3        1 MOL1        -0.3740
      59    C18     15.835761   22.911153   19.424013 C.3        1 MOL1         0.0138
      60    H28     15.564253   21.930708   19.016906 H          1 MOL1         0.0794
      61    H29     16.335896   23.457632   18.612918 H          1 MOL1         0.0794
      62    O15     14.658247   23.614984   19.837451 O.3        1 MOL1        -0.5486
      63    H30     14.111242   23.776137   19.037781 H          1 MOL1         0.3769
      64    C19     23.425588   22.468422   20.322309 C.3        1 MOL1         0.2972
      65    H31     24.410809   22.557806   19.846646 H          1 MOL1         0.0751
      66    O16     23.257688   21.186866   20.959056 O.3        1 MOL1        -0.3740
      67    C20     23.200642   23.588280   21.376530 C.3        1 MOL1         0.1003
      68    H32     23.240776   24.546651   20.842588 H          1 MOL1         0.0783
      69    O17     24.216076   23.582522   22.391022 O.3        1 MOL1        -0.5519
      70    H33     24.188030   22.695298   22.830814 H          1 MOL1         0.3769
      71    C21     21.793858   23.457192   22.012232 C.3        1 MOL1         0.1053
      72    H34     21.757456   22.516956   22.579664 H          1 MOL1         0.0783
      73    O18     21.551380   24.561976   22.889834 O.3        1 MOL1        -0.5519
      74    H35     22.388813   24.679229   23.392215 H          1 MOL1         0.3769
      75    C22     20.707660   23.404953   20.909421 C.3        1 MOL1         0.1018
      76    H36     20.635383   24.395143   20.440111 H          1 MOL1         0.0783
      77    C23     21.033409   22.354397   19.814909 C.3        1 MOL1         0.1043
      78    H37     20.975797   21.355169   20.266481 H          1 MOL1         0.0783
      79    O19     22.379713   22.590152   19.330240 O.3        1 MOL1        -0.3740
      80    C24     20.053712   22.357794   18.611543 C.3        1 MOL1         0.0138
      81    H38     19.236437   21.658973   18.829651 H          1 MOL1         0.0794
      82    H39     20.578842   21.964474   17.730905 H          1 MOL1         0.0794
      83    O20     19.510257   23.652707   18.323387 O.3        1 MOL1        -0.5486
      84    H40     18.901726   23.886614   19.061941 H          1 MOL1         0.3769
      85    C25     25.008633   17.692766   22.124468 C.3        1 MOL1         0.2972
      86    H41     25.643973   16.850099   22.426753 H          1 MOL1         0.0751
      87    O21     23.641334   17.285269   21.921169 O.3        1 MOL1        -0.3740
      88    C26     25.031195   18.785976   23.216798 C.3        1 MOL1         0.1003
      89    H42     26.063557   19.149527   23.302039 H          1 MOL1         0.0783
      90    O22     24.609580   18.246971   24.480356 O.3        1 MOL1        -0.5519
      91    H43     24.148369   17.392777   24.290885 H          1 MOL1         0.3769
      92    C27     24.133736   19.976533   22.811864 C.3        1 MOL1         0.1053
      93    H44     23.094035   19.631890   22.823107 H          1 MOL1         0.0783
      94    O23     24.292252   21.031731   23.764507 O.3        1 MOL1        -0.5519
      95    H45     24.233383   20.587906   24.640414 H          1 MOL1         0.3769
      96    C28     24.443944   20.488545   21.381825 C.3        1 MOL1         0.1018
      97    H46     25.323471   21.144852   21.421207 H          1 MOL1         0.0783
      98    C29     24.663239   19.343720   20.348932 C.3        1 MOL1         0.1043
      99    H47     23.676173   18.933278   20.103433 H          1 MOL1         0.0783
     100    O24     25.486051   18.281510   20.897796 O.3        1 MOL1        -0.3740
     101    C30     25.296941   19.820139   19.020327 C.3        1 MOL1         0.0138
     102    H48     24.555298   20.419524   18.475184 H          1 MOL1         0.0794
     103    H49     25.521469   18.939792   18.403018 H          1 MOL1         0.0794
     104    O25     26.483459   20.593692   19.235846 O.3        1 MOL1        -0.5486
     105    H50     26.875167   20.790485   18.356836 H          1 MOL1         0.3769
     106    C31     21.363308   13.806381   21.533520 C.3        1 MOL1         0.2972
     107    H51     21.050090   12.767643   21.367416 H          1 MOL1         0.0751
     108    O26     20.230214   14.669751   21.750476 O.3        1 MOL1        -0.3740
     109    C32     22.255700   13.886510   22.798252 C.3        1 MOL1         0.1003
     110    H52     23.123736   13.234105   22.636987 H          1 MOL1         0.0783
     111    O27     21.524941   13.433823   23.948744 O.3        1 MOL1        -0.5519
     112    H53     20.578182   13.661103   23.785496 H          1 MOL1         0.3769
     113    C33     22.770968   15.328478   23.019678 C.3        1 MOL1         0.1053
     114    H54     21.907967   15.962317   23.261186 H          1 MOL1         0.0783
     115    O28     23.705586   15.348895   24.103366 O.3        1 MOL1        -0.5519
     116    H55     23.289882   14.802983   24.807956 H          1 MOL1         0.3769
     117    C34     23.433262   15.875129   21.732552 C.3        1 MOL1         0.1018
     118    H56     24.375298   15.337344   21.561499 H          1 MOL1         0.0783
     119    C35     22.515891   15.696901   20.494287 C.3        1 MOL1         0.1043
     120    H57     21.628414   16.326960   20.637938 H          1 MOL1         0.0783
     121    O29     22.109926   14.307391   20.401467 O.3        1 MOL1        -0.3740
     122    C36     23.162302   16.119611   19.148160 C.3        1 MOL1         0.0138
     123    H58     22.939895   17.179614   18.973748 H          1 MOL1         0.0794
     124    H59     22.681470   15.558376   18.335837 H          1 MOL1         0.0794
     125    O30     24.580247   15.916494   19.110416 O.3        1 MOL1        -0.5486
     126    H60     24.989107   16.599894   19.690976 H          1 MOL1         0.3769
     127    C1      20.597523   18.632734   23.145656 C.3        1 MOL1        -0.1693
     128    H1      20.744187   18.857421   22.081357 H          1 MOL1         0.0829
     129    H2      21.522126   18.206189   23.548637 H          1 MOL1         0.0829
     130    C2      19.290326   17.844506   23.477682 C.3        1 MOL1        -0.1768
     131    H3      18.937278   17.161926   22.701082 H          1 MOL1         0.0829
     132    H4      19.299653   17.318879   24.440125 H          1 MOL1         0.0829
     133    C3      18.594439   19.235513   23.508137 C.3        1 MOL1         0.1211
     134    H5      18.290980   19.588718   22.515300 H          1 MOL1         0.0786
     135    C4      19.969312   19.794330   23.981852 C.3        1 MOL1        -0.1768
     136    H6      20.212596   20.810697   23.653701 H          1 MOL1         0.0829
     137    H7      20.139215   19.722405   25.062999 H          1 MOL1         0.0829
     138    O1      17.538040   19.369089   24.432523 O.3        1 MOL1        -0.5515
     139    H8      17.201618   20.292709   24.377628 H          1 MOL1         0.3773
@<TRIPOS>BOND
    1     1     2    1
    2     1     3    1
    3     1     4    1
    4     4     5    1
    5     4     6    1
    6     6     7    1
    7     4     8    1
    8     8     9    1
    9     8    10    1
   10    10    11    1
   11     8    12    1
   12    12    13    1
   13    12    14    1
   14    14    15    1
   15     1    16    1
   16    14    16    1
   17    14    17    1
   18    17    18    1
   19    17    19    1
   20    17    20    1
   21    20    21    1
   22    22    23    1
   23    22    24    1
   24    22    25    1
   25    25    26    1
   26    25    27    1
   27    27    28    1
   28    25    29    1
   29    29    30    1
   30    29    31    1
   31    31    32    1
   32     3    33    1
   33    29    33    1
   34    33    34    1
   35    33    35    1
   36    35    36    1
   37    22    37    1
   38    35    37    1
   39    35    38    1
   40    38    39    1
   41    38    40    1
   42    38    41    1
   43    41    42    1
   44    43    44    1
   45    43    45    1
   46    43    46    1
   47    46    47    1
   48    46    48    1
   49    48    49    1
   50    46    50    1
   51    50    51    1
   52    50    52    1
   53    52    53    1
   54    24    54    1
   55    50    54    1
   56    54    55    1
   57    54    56    1
   58    56    57    1
   59    43    58    1
   60    56    58    1
   61    56    59    1
   62    59    60    1
   63    59    61    1
   64    59    62    1
   65    62    63    1
   66    64    65    1
   67    64    66    1
   68    64    67    1
   69    67    68    1
   70    67    69    1
   71    69    70    1
   72    67    71    1
   73    71    72    1
   74    71    73    1
   75    73    74    1
   76    45    75    1
   77    71    75    1
   78    75    76    1
   79    75    77    1
   80    77    78    1
   81    64    79    1
   82    77    79    1
   83    77    80    1
   84    80    81    1
   85    80    82    1
   86    80    83    1
   87    83    84    1
   88    85    86    1
   89    85    87    1
   90    85    88    1
   91    88    89    1
   92    88    90    1
   93    90    91    1
   94    88    92    1
   95    92    93    1
   96    92    94    1
   97    94    95    1
   98    66    96    1
   99    92    96    1
  100    96    97    1
  101    96    98    1
  102    98    99    1
  103    85   100    1
  104    98   100    1
  105    98   101    1
  106   101   102    1
  107   101   103    1
  108   101   104    1
  109   104   105    1
  110   106   107    1
  111    12   108    1
  112   106   108    1
  113   106   109    1
  114   109   110    1
  115   109   111    1
  116   111   112    1
  117   109   113    1
  118   113   114    1
  119   113   115    1
  120   115   116    1
  121    87   117    1
  122   113   117    1
  123   117   118    1
  124   117   119    1
  125   119   120    1
  126   106   121    1
  127   119   121    1
  128   119   122    1
  129   122   123    1
  130   122   124    1
  131   122   125    1
  132   125   126    1
  133   127   128    1
  134   127   129    1
  135   127   130    1
  136   130   131    1
  137   130   132    1
  138   130   133    1
  139   133   134    1
  140   127   135    1
  141   133   135    1
  142   135   136    1
  143   135   137    1
  144   133   138    1
  145   138   139    1
@<TRIPOS>SUBSTRUCTURE
       1 MOL1            1 RESIDUE      1      MOL     
       2 MOL1          139 RESIDUE      1      MOL     
@<SCITEGIC>MOL_PROPERTY
feprocess Rank
SciTegic.value.IntegerValue
203

@<SCITEGIC>MOL_PROPERTY
Conf_Id
SciTegic.value.IntegerValue
391

@<SCITEGIC>MOL_PROPERTY
Probability
SciTegic.value.DoubleValue
0.00

@<SCITEGIC>MOL_PROPERTY
G
SciTegic.value.DoubleValue
552.049

@<SCITEGIC>MOL_PROPERTY
E
SciTegic.value.DoubleValue
373.724

@<SCITEGIC>MOL_PROPERTY
-TS
SciTegic.value.DoubleValue
178.325

@<SCITEGIC>MOL_PROPERTY
U+W
SciTegic.value.DoubleValue
251.213

@<SCITEGIC>MOL_PROPERTY
U
SciTegic.value.DoubleValue
287.637

@<SCITEGIC>MOL_PROPERTY
W
SciTegic.value.DoubleValue
-36.424

@<SCITEGIC>MOL_PROPERTY
W(PB)
SciTegic.value.DoubleValue
-42.373

@<SCITEGIC>MOL_PROPERTY
W(SA)
SciTegic.value.DoubleValue
5.949

@<SCITEGIC>MOL_PROPERTY
Valence
SciTegic.value.DoubleValue
154.637

@<SCITEGIC>MOL_PROPERTY
Coulomb
SciTegic.value.DoubleValue
153.177

@<SCITEGIC>MOL_PROPERTY
VdW
SciTegic.value.DoubleValue
-20.177

@<SCITEGIC>MOL_PROPERTY
VdW6
SciTegic.value.DoubleValue
-165.729

@<SCITEGIC>MOL_PROPERTY
VdW12
SciTegic.value.DoubleValue
145.552

@<SCITEGIC>MOL_PROPERTY
Bond
SciTegic.value.DoubleValue
4.650

@<SCITEGIC>MOL_PROPERTY
Angle
SciTegic.value.DoubleValue
12.048

@<SCITEGIC>MOL_PROPERTY
Pdih
SciTegic.value.DoubleValue
137.938

@<SCITEGIC>MOL_PROPERTY
Idih
SciTegic.value.DoubleValue
0.000

@<SCITEGIC>MOL_PROPERTY
Tether
SciTegic.value.DoubleValue
0.000

@<TRIPOS>MOLECULE
CD_guest-s16_fast_vm2_rndm.mol2 : feprocess host+ligand conformer 204
         139         145           2
SMALL
USER_CHARGES
 
@<TRIPOS>ATOM
       1    C1      16.081824   15.119390   21.771411 C.3        1 MOL1         0.2972
       2    H1      15.004571   14.925089   21.853422 H          1 MOL1         0.0751
       3    O1      16.365922   16.532057   21.783148 O.3        1 MOL1        -0.3740
       4    C2      16.821241   14.470511   22.966648 C.3        1 MOL1         0.1003
       5    H2      16.639553   13.388539   22.928343 H          1 MOL1         0.0783
       6    O2      16.318049   14.998694   24.203852 O.3        1 MOL1        -0.5519
       7    H3      15.971329   15.900899   24.004155 H          1 MOL1         0.3769
       8    C3      18.343860   14.710033   22.856290 C.3        1 MOL1         0.1053
       9    H4      18.512581   15.785849   22.978899 H          1 MOL1         0.0783
      10    O3      19.032271   13.992107   23.885240 O.3        1 MOL1        -0.5519
      11    H5      18.539528   14.194576   24.711450 H          1 MOL1         0.3769
      12    C4      18.889158   14.278845   21.473911 C.3        1 MOL1         0.1018
      13    H6      18.923145   13.181338   21.447136 H          1 MOL1         0.0783
      14    C5      18.020475   14.815234   20.299023 C.3        1 MOL1         0.1043
      15    H7      18.188896   15.896976   20.231885 H          1 MOL1         0.0783
      16    O4      16.612401   14.565405   20.550092 O.3        1 MOL1        -0.3740
      17    C6      18.371289   14.203830   18.920947 C.3        1 MOL1         0.0138
      18    H8      19.334933   14.611753   18.588758 H          1 MOL1         0.0794
      19    H9      17.615683   14.526258   18.191941 H          1 MOL1         0.0794
      20    O5      18.436623   12.773247   18.967784 O.3        1 MOL1        -0.5486
      21    H10     18.580668   12.451281   18.051289 H          1 MOL1         0.3769
      22    C7      14.683122   20.246656   21.000064 C.3        1 MOL1         0.2972
      23    H11     14.026904   21.075882   20.706370 H          1 MOL1         0.0751
      24    O6      15.976468   20.720804   21.426634 O.3        1 MOL1        -0.3740
      25    C8      14.050258   19.475750   22.184550 C.3        1 MOL1         0.1003
      26    H12     13.072932   19.100415   21.854273 H          1 MOL1         0.0783
      27    O7      13.871637   20.355676   23.305788 O.3        1 MOL1        -0.5519
      28    H13     14.614587   21.006821   23.274879 H          1 MOL1         0.3769
      29    C9      14.921453   18.261776   22.586151 C.3        1 MOL1         0.1053
      30    H14     15.846774   18.647595   23.029031 H          1 MOL1         0.0783
      31    O8      14.229414   17.467876   23.554988 O.3        1 MOL1        -0.5519
      32    H15     13.881347   18.110528   24.212418 H          1 MOL1         0.3769
      33    C10     15.290860   17.391725   21.358173 C.3        1 MOL1         0.1018
      34    H16     14.400230   16.825516   21.055436 H          1 MOL1         0.0783
      35    C11     15.795174   18.238660   20.154819 C.3        1 MOL1         0.1043
      36    H17     16.774234   18.655203   20.420893 H          1 MOL1         0.0783
      37    O9      14.867815   19.324841   19.904531 O.3        1 MOL1        -0.3740
      38    C12     15.988050   17.451507   18.831415 C.3        1 MOL1         0.0138
      39    H18     17.018861   17.080214   18.791227 H          1 MOL1         0.0794
      40    H19     15.873484   18.148506   17.990443 H          1 MOL1         0.0794
      41    O10     15.078106   16.356094   18.681835 O.3        1 MOL1        -0.5486
      42    H20     15.408966   15.625998   19.255701 H          1 MOL1         0.3769
      43    C13     18.633953   23.910355   20.790715 C.3        1 MOL1         0.2972
      44    H21     19.062151   24.862794   20.452501 H          1 MOL1         0.0751
      45    O11     19.626904   23.075845   21.418016 O.3        1 MOL1        -0.3740
      46    C14     17.494536   24.154829   21.815257 C.3        1 MOL1         0.1003
      47    H22     16.746547   24.791876   21.325685 H          1 MOL1         0.0783
      48    O12     17.989821   24.825279   22.985912 O.3        1 MOL1        -0.5519
      49    H23     18.819983   24.361611   23.264806 H          1 MOL1         0.3769
      50    C15     16.802142   22.825422   22.208092 C.3        1 MOL1         0.1053
      51    H24     17.522025   22.218275   22.773346 H          1 MOL1         0.0783
      52    O13     15.657021   23.103184   23.021851 O.3        1 MOL1        -0.5519
      53    H25     15.966826   23.759495   23.684837 H          1 MOL1         0.3769
      54    C16     16.374147   22.023472   20.954357 C.3        1 MOL1         0.1018
      55    H26     15.545544   22.555855   20.469057 H          1 MOL1         0.0783
      56    C17     17.554448   21.873641   19.953054 C.3        1 MOL1         0.1043
      57    H27     18.331433   21.261046   20.425776 H          1 MOL1         0.0783
      58    O14     18.087400   23.188651   19.665972 O.3        1 MOL1        -0.3740
      59    C18     17.204358   21.201308   18.601198 C.3        1 MOL1         0.0138
      60    H28     17.315068   20.116227   18.710231 H          1 MOL1         0.0794
      61    H29     17.943574   21.518899   17.853718 H          1 MOL1         0.0794
      62    O15     15.883529   21.507478   18.141970 O.3        1 MOL1        -0.5486
      63    H30     15.277014   20.871252   18.586117 H          1 MOL1         0.3769
      64    C19     23.699857   22.823616   22.085059 C.3        1 MOL1         0.2972
      65    H31     24.772830   22.992719   22.242638 H          1 MOL1         0.0751
      66    O16     23.384596   21.421359   22.015972 O.3        1 MOL1        -0.3740
      67    C20     22.890622   23.433462   23.254868 C.3        1 MOL1         0.1003
      68    H32     23.077502   24.515190   23.262482 H          1 MOL1         0.0783
      69    O17     23.314542   22.866948   24.505259 O.3        1 MOL1        -0.5519
      70    H33     23.677835   21.969038   24.304989 H          1 MOL1         0.3769
      71    C21     21.375186   23.208087   23.044670 C.3        1 MOL1         0.1053
      72    H34     21.183221   22.132062   23.124436 H          1 MOL1         0.0783
      73    O18     20.639852   23.903849   24.056684 O.3        1 MOL1        -0.5519
      74    H35     21.096643   23.681501   24.898439 H          1 MOL1         0.3769
      75    C22     20.916578   23.681416   21.643733 C.3        1 MOL1         0.1018
      76    H36     20.859521   24.778051   21.655096 H          1 MOL1         0.0783
      77    C23     21.865564   23.207214   20.504418 C.3        1 MOL1         0.1043
      78    H37     21.704745   22.130652   20.367225 H          1 MOL1         0.0783
      79    O19     23.254948   23.438964   20.858687 O.3        1 MOL1        -0.3740
      80    C24     21.595128   23.889171   19.141786 C.3        1 MOL1         0.0138
      81    H38     20.648782   23.504428   18.738784 H          1 MOL1         0.0794
      82    H39     22.388795   23.598213   18.440524 H          1 MOL1         0.0794
      83    O20     21.530843   25.316097   19.256472 O.3        1 MOL1        -0.5486
      84    H40     21.432759   25.683646   18.351079 H          1 MOL1         0.3769
      85    C25     25.127960   17.675510   21.430891 C.3        1 MOL1         0.2972
      86    H41     25.836287   16.865116   21.215875 H          1 MOL1         0.0751
      87    O21     23.803190   17.162033   21.672704 O.3        1 MOL1        -0.3740
      88    C26     25.575427   18.435642   22.705714 C.3        1 MOL1         0.1003
      89    H42     26.583603   18.829523   22.522663 H          1 MOL1         0.0783
      90    O22     25.609292   17.540675   23.827726 O.3        1 MOL1        -0.5519
      91    H43     24.877869   16.893912   23.685057 H          1 MOL1         0.3769
      92    C27     24.637616   19.631463   22.998449 C.3        1 MOL1         0.1053
      93    H44     23.650342   19.231673   23.268097 H          1 MOL1         0.0783
      94    O23     25.160055   20.401943   24.085868 O.3        1 MOL1        -0.5519
      95    H45     25.410808   19.740912   24.769178 H          1 MOL1         0.3769
      96    C28     24.477180   20.526029   21.745903 C.3        1 MOL1         0.1018
      97    H46     25.419529   21.060545   21.567479 H          1 MOL1         0.0783
      98    C29     24.108686   19.691372   20.489467 C.3        1 MOL1         0.1043
      99    H47     23.110484   19.265876   20.651482 H          1 MOL1         0.0783
     100    O24     25.065800   18.612549   20.331448 O.3        1 MOL1        -0.3740
     101    C30     24.047172   20.500270   19.166826 C.3        1 MOL1         0.0138
     102    H48     23.026821   20.882411   19.039449 H          1 MOL1         0.0794
     103    H49     24.235735   19.816673   18.328228 H          1 MOL1         0.0794
     104    O25     24.973117   21.591927   19.125545 O.3        1 MOL1        -0.5486
     105    H50     24.587391   22.316788   19.670554 H          1 MOL1         0.3769
     106    C31     21.195165   14.057608   20.685438 C.3        1 MOL1         0.2972
     107    H51     20.752468   13.146643   20.262643 H          1 MOL1         0.0751
     108    O26     20.206936   14.858553   21.367363 O.3        1 MOL1        -0.3740
     109    C32     22.311469   13.693406   21.697739 C.3        1 MOL1         0.1003
     110    H52     23.038906   13.065985   21.166527 H          1 MOL1         0.0783
     111    O27     21.768582   12.954904   22.805442 O.3        1 MOL1        -0.5519
     112    H53     20.957322   13.433217   23.109897 H          1 MOL1         0.3769
     113    C33     23.055984   14.953272   22.208291 C.3        1 MOL1         0.1053
     114    H54     22.375850   15.500311   22.870955 H          1 MOL1         0.0783
     115    O28     24.213364   14.551877   22.948765 O.3        1 MOL1        -0.5519
     116    H55     23.895996   13.858338   23.568372 H          1 MOL1         0.3769
     117    C34     23.474428   15.901356   21.053528 C.3        1 MOL1         0.1018
     118    H56     24.335489   15.457326   20.537210 H          1 MOL1         0.0783
     119    C35     22.321171   16.132854   20.035009 C.3        1 MOL1         0.1043
     120    H57     21.537996   16.718075   20.529179 H          1 MOL1         0.0783
     121    O29     21.780779   14.852733   19.634561 O.3        1 MOL1        -0.3740
     122    C36     22.710354   16.901940   18.746092 C.3        1 MOL1         0.0138
     123    H58     22.558729   17.973446   18.918070 H          1 MOL1         0.0794
     124    H59     22.015189   16.613562   17.946318 H          1 MOL1         0.0794
     125    O30     24.058825   16.665719   18.326936 O.3        1 MOL1        -0.5486
     126    H60     24.635107   17.228734   18.894375 H          1 MOL1         0.3769
     127    C1      19.646926   19.853754   23.612122 C.3        1 MOL1        -0.1693
     128    H1      19.245613   20.857469   23.791818 H          1 MOL1         0.0829
     129    H2      20.174486   19.518620   24.514371 H          1 MOL1         0.0829
     130    C2      20.447981   19.656152   22.283420 C.3        1 MOL1        -0.1768
     131    H3      20.128787   20.294780   21.453622 H          1 MOL1         0.0829
     132    H4      21.533817   19.713155   22.376332 H          1 MOL1         0.0829
     133    C3      19.865972   18.213383   22.253540 C.3        1 MOL1         0.1211
     134    H5      19.638319   17.831325   21.250971 H          1 MOL1         0.0786
     135    C4      18.647759   18.810080   23.019132 C.3        1 MOL1        -0.1768
     136    H6      18.160636   18.144888   23.740154 H          1 MOL1         0.0829
     137    H7      17.887758   19.246936   22.367119 H          1 MOL1         0.0829
     138    O1      20.625870   17.269699   22.976241 O.3        1 MOL1        -0.5515
     139    H8      20.335838   16.374985   22.697429 H          1 MOL1         0.3773
@<TRIPOS>BOND
    1     1     2    1
    2     1     3    1
    3     1     4    1
    4     4     5    1
    5     4     6    1
    6     6     7    1
    7     4     8    1
    8     8     9    1
    9     8    10    1
   10    10    11    1
   11     8    12    1
   12    12    13    1
   13    12    14    1
   14    14    15    1
   15     1    16    1
   16    14    16    1
   17    14    17    1
   18    17    18    1
   19    17    19    1
   20    17    20    1
   21    20    21    1
   22    22    23    1
   23    22    24    1
   24    22    25    1
   25    25    26    1
   26    25    27    1
   27    27    28    1
   28    25    29    1
   29    29    30    1
   30    29    31    1
   31    31    32    1
   32     3    33    1
   33    29    33    1
   34    33    34    1
   35    33    35    1
   36    35    36    1
   37    22    37    1
   38    35    37    1
   39    35    38    1
   40    38    39    1
   41    38    40    1
   42    38    41    1
   43    41    42    1
   44    43    44    1
   45    43    45    1
   46    43    46    1
   47    46    47    1
   48    46    48    1
   49    48    49    1
   50    46    50    1
   51    50    51    1
   52    50    52    1
   53    52    53    1
   54    24    54    1
   55    50    54    1
   56    54    55    1
   57    54    56    1
   58    56    57    1
   59    43    58    1
   60    56    58    1
   61    56    59    1
   62    59    60    1
   63    59    61    1
   64    59    62    1
   65    62    63    1
   66    64    65    1
   67    64    66    1
   68    64    67    1
   69    67    68    1
   70    67    69    1
   71    69    70    1
   72    67    71    1
   73    71    72    1
   74    71    73    1
   75    73    74    1
   76    45    75    1
   77    71    75    1
   78    75    76    1
   79    75    77    1
   80    77    78    1
   81    64    79    1
   82    77    79    1
   83    77    80    1
   84    80    81    1
   85    80    82    1
   86    80    83    1
   87    83    84    1
   88    85    86    1
   89    85    87    1
   90    85    88    1
   91    88    89    1
   92    88    90    1
   93    90    91    1
   94    88    92    1
   95    92    93    1
   96    92    94    1
   97    94    95    1
   98    66    96    1
   99    92    96    1
  100    96    97    1
  101    96    98    1
  102    98    99    1
  103    85   100    1
  104    98   100    1
  105    98   101    1
  106   101   102    1
  107   101   103    1
  108   101   104    1
  109   104   105    1
  110   106   107    1
  111    12   108    1
  112   106   108    1
  113   106   109    1
  114   109   110    1
  115   109   111    1
  116   111   112    1
  117   109   113    1
  118   113   114    1
  119   113   115    1
  120   115   116    1
  121    87   117    1
  122   113   117    1
  123   117   118    1
  124   117   119    1
  125   119   120    1
  126   106   121    1
  127   119   121    1
  128   119   122    1
  129   122   123    1
  130   122   124    1
  131   122   125    1
  132   125   126    1
  133   127   128    1
  134   127   129    1
  135   127   130    1
  136   130   131    1
  137   130   132    1
  138   130   133    1
  139   133   134    1
  140   127   135    1
  141   133   135    1
  142   135   136    1
  143   135   137    1
  144   133   138    1
  145   138   139    1
@<TRIPOS>SUBSTRUCTURE
       1 MOL1            1 RESIDUE      1      MOL     
       2 MOL1          139 RESIDUE      1      MOL     
@<SCITEGIC>MOL_PROPERTY
feprocess Rank
SciTegic.value.IntegerValue
204

@<SCITEGIC>MOL_PROPERTY
Conf_Id
SciTegic.value.IntegerValue
898

@<SCITEGIC>MOL_PROPERTY
Probability
SciTegic.value.DoubleValue
0.00

@<SCITEGIC>MOL_PROPERTY
G
SciTegic.value.DoubleValue
552.104

@<SCITEGIC>MOL_PROPERTY
E
SciTegic.value.DoubleValue
373.801

@<SCITEGIC>MOL_PROPERTY
-TS
SciTegic.value.DoubleValue
178.303

@<SCITEGIC>MOL_PROPERTY
U+W
SciTegic.value.DoubleValue
251.290

@<SCITEGIC>MOL_PROPERTY
U
SciTegic.value.DoubleValue
288.792

@<SCITEGIC>MOL_PROPERTY
W
SciTegic.value.DoubleValue
-37.503

@<SCITEGIC>MOL_PROPERTY
W(PB)
SciTegic.value.DoubleValue
-43.414

@<SCITEGIC>MOL_PROPERTY
W(SA)
SciTegic.value.DoubleValue
5.911

@<SCITEGIC>MOL_PROPERTY
Valence
SciTegic.value.DoubleValue
155.267

@<SCITEGIC>MOL_PROPERTY
Coulomb
SciTegic.value.DoubleValue
156.295

@<SCITEGIC>MOL_PROPERTY
VdW
SciTegic.value.DoubleValue
-22.769

@<SCITEGIC>MOL_PROPERTY
VdW6
SciTegic.value.DoubleValue
-169.880

@<SCITEGIC>MOL_PROPERTY
VdW12
SciTegic.value.DoubleValue
147.111

@<SCITEGIC>MOL_PROPERTY
Bond
SciTegic.value.DoubleValue
4.542

@<SCITEGIC>MOL_PROPERTY
Angle
SciTegic.value.DoubleValue
10.985

@<SCITEGIC>MOL_PROPERTY
Pdih
SciTegic.value.DoubleValue
139.740

@<SCITEGIC>MOL_PROPERTY
Idih
SciTegic.value.DoubleValue
0.000

@<SCITEGIC>MOL_PROPERTY
Tether
SciTegic.value.DoubleValue
0.000

@<TRIPOS>MOLECULE
CD_guest-s16_fast_vm2_rndm.mol2 : feprocess host+ligand conformer 205
         139         145           2
SMALL
USER_CHARGES
 
@<TRIPOS>ATOM
       1    C1      16.210769   15.154446   20.985743 C.3        1 MOL1         0.2972
       2    H1      15.158350   14.947796   20.755105 H          1 MOL1         0.0751
       3    O1      16.443196   16.559470   21.223025 O.3        1 MOL1        -0.3740
       4    C2      16.649017   14.363280   22.245772 C.3        1 MOL1         0.1003
       5    H2      16.534154   13.296035   22.015291 H          1 MOL1         0.0783
       6    O2      15.829458   14.680257   23.380654 O.3        1 MOL1        -0.5519
       7    H3      15.624270   15.648777   23.340674 H          1 MOL1         0.3769
       8    C3      18.142555   14.617450   22.560272 C.3        1 MOL1         0.1053
       9    H4      18.268842   15.675869   22.827226 H          1 MOL1         0.0783
      10    O3      18.543102   13.786620   23.653722 O.3        1 MOL1        -0.5519
      11    H5      17.808155   13.855408   24.304394 H          1 MOL1         0.3769
      12    C4      19.014065   14.314801   21.317715 C.3        1 MOL1         0.1018
      13    H6      19.016912   13.229124   21.155624 H          1 MOL1         0.0783
      14    C5      18.471099   15.013492   20.040847 C.3        1 MOL1         0.1043
      15    H7      18.605796   16.092839   20.159627 H          1 MOL1         0.0783
      16    O4      17.055319   14.734824   19.889937 O.3        1 MOL1        -0.3740
      17    C6      19.205490   14.602464   18.738772 C.3        1 MOL1         0.0138
      18    H8      20.150187   15.157397   18.678213 H          1 MOL1         0.0794
      19    H9      18.594033   14.911529   17.880617 H          1 MOL1         0.0794
      20    O5      19.480066   13.198711   18.669155 O.3        1 MOL1        -0.5486
      21    H10     20.306933   13.041519   19.176628 H          1 MOL1         0.3769
      22    C7      14.648966   20.323420   21.098483 C.3        1 MOL1         0.2972
      23    H11     13.943756   21.156519   20.986841 H          1 MOL1         0.0751
      24    O6      15.993693   20.786540   21.344630 O.3        1 MOL1        -0.3740
      25    C8      14.219800   19.420824   22.282261 C.3        1 MOL1         0.1003
      26    H12     13.220538   19.030560   22.048783 H          1 MOL1         0.0783
      27    O7      14.153061   20.165139   23.508718 O.3        1 MOL1        -0.5519
      28    H13     14.830575   20.885869   23.459251 H          1 MOL1         0.3769
      29    C9      15.174357   18.212332   22.430421 C.3        1 MOL1         0.1053
      30    H14     16.165439   18.585605   22.722088 H          1 MOL1         0.0783
      31    O8      14.667033   17.343855   23.446107 O.3        1 MOL1        -0.5519
      32    H15     14.402413   17.943995   24.179729 H          1 MOL1         0.3769
      33    C10     15.311544   17.445590   21.090785 C.3        1 MOL1         0.1018
      34    H16     14.377021   16.900622   20.904830 H          1 MOL1         0.0783
      35    C11     15.601223   18.405529   19.902106 C.3        1 MOL1         0.1043
      36    H17     16.610725   18.806896   20.030592 H          1 MOL1         0.0783
      37    O9      14.661607   19.510630   19.904802 O.3        1 MOL1        -0.3740
      38    C12     15.563597   17.720232   18.514467 C.3        1 MOL1         0.0138
      39    H18     16.459472   17.093631   18.407075 H          1 MOL1         0.0794
      40    H19     15.618974   18.498808   17.742136 H          1 MOL1         0.0794
      41    O10     14.388734   16.923522   18.323131 O.3        1 MOL1        -0.5486
      42    H20     14.582053   16.025225   18.665593 H          1 MOL1         0.3769
      43    C13     18.414581   24.161528   21.404278 C.3        1 MOL1         0.2972
      44    H21     18.832540   25.174009   21.340472 H          1 MOL1         0.0751
      45    O11     19.431398   23.175493   21.677057 O.3        1 MOL1        -0.3740
      46    C14     17.366968   24.092864   22.542627 C.3        1 MOL1         0.1003
      47    H22     16.565599   24.802088   22.297801 H          1 MOL1         0.0783
      48    O12     17.956629   24.461504   23.799429 O.3        1 MOL1        -0.5519
      49    H23     18.883986   24.112247   23.800450 H          1 MOL1         0.3769
      50    C15     16.743869   22.679575   22.629734 C.3        1 MOL1         0.1053
      51    H24     17.528035   21.986113   22.960423 H          1 MOL1         0.0783
      52    O13     15.678128   22.689170   23.583076 O.3        1 MOL1        -0.5519
      53    H25     16.036313   23.178174   24.357828 H          1 MOL1         0.3769
      54    C16     16.214476   22.210544   21.249863 C.3        1 MOL1         0.1018
      55    H26     15.291675   22.761595   21.027086 H          1 MOL1         0.0783
      56    C17     17.245085   22.449576   20.111153 C.3        1 MOL1         0.1043
      57    H27     18.078062   21.758523   20.266085 H          1 MOL1         0.0783
      58    O14     17.755536   23.805663   20.169540 O.3        1 MOL1        -0.3740
      59    C18     16.694755   22.176856   18.689812 C.3        1 MOL1         0.0138
      60    H28     16.630357   21.090686   18.541253 H          1 MOL1         0.0794
      61    H29     17.417578   22.560864   17.957854 H          1 MOL1         0.0794
      62    O15     15.410088   22.769529   18.468599 O.3        1 MOL1        -0.5486
      63    H30     14.735232   22.130029   18.782422 H          1 MOL1         0.3769
      64    C19     23.610794   22.758423   21.642435 C.3        1 MOL1         0.2972
      65    H31     24.678808   23.001817   21.575629 H          1 MOL1         0.0751
      66    O16     23.403461   21.341717   21.799521 O.3        1 MOL1        -0.3740
      67    C20     22.997244   23.461655   22.879976 C.3        1 MOL1         0.1003
      68    H32     23.179961   24.538629   22.771032 H          1 MOL1         0.0783
      69    O17     23.629277   22.993848   24.082639 O.3        1 MOL1        -0.5519
      70    H33     23.916042   22.063648   23.909605 H          1 MOL1         0.3769
      71    C21     21.466195   23.243944   22.951745 C.3        1 MOL1         0.1053
      72    H34     21.273668   22.179583   23.147199 H          1 MOL1         0.0783
      73    O18     20.923967   24.042309   24.009216 O.3        1 MOL1        -0.5519
      74    H35     21.517992   23.883611   24.776592 H          1 MOL1         0.3769
      75    C22     20.799324   23.619914   21.607912 C.3        1 MOL1         0.1018
      76    H36     20.874458   24.706928   21.473620 H          1 MOL1         0.0783
      77    C23     21.493391   22.900576   20.420070 C.3        1 MOL1         0.1043
      78    H37     21.345765   21.820234   20.543710 H          1 MOL1         0.0783
      79    O19     22.913967   23.193917   20.452944 O.3        1 MOL1        -0.3740
      80    C24     20.938727   23.284492   19.024522 C.3        1 MOL1         0.0138
      81    H38     20.024315   22.706375   18.840048 H          1 MOL1         0.0794
      82    H39     21.669292   22.982938   18.262340 H          1 MOL1         0.0794
      83    O20     20.648727   24.681053   18.901622 O.3        1 MOL1        -0.5486
      84    H40     19.716229   24.803548   19.186426 H          1 MOL1         0.3769
      85    C25     25.129133   17.641463   21.021015 C.3        1 MOL1         0.2972
      86    H41     25.777173   16.807601   20.721780 H          1 MOL1         0.0751
      87    O21     23.803612   17.190879   21.377625 O.3        1 MOL1        -0.3740
      88    C26     25.724343   18.406329   22.232260 C.3        1 MOL1         0.1003
      89    H42     26.688250   18.823686   21.913107 H          1 MOL1         0.0783
      90    O22     25.943294   17.534156   23.351316 O.3        1 MOL1        -0.5519
      91    H43     25.106841   17.023579   23.498700 H          1 MOL1         0.3769
      92    C27     24.803201   19.587276   22.629061 C.3        1 MOL1         0.1053
      93    H44     23.852615   19.174581   22.994682 H          1 MOL1         0.0783
      94    O23     25.423837   20.358780   23.662948 O.3        1 MOL1        -0.5519
      95    H45     25.769459   19.697511   24.303275 H          1 MOL1         0.3769
      96    C28     24.502157   20.493650   21.409084 C.3        1 MOL1         0.1018
      97    H46     25.408963   21.067730   21.178105 H          1 MOL1         0.0783
      98    C29     24.075045   19.674522   20.158286 C.3        1 MOL1         0.1043
      99    H47     23.093640   19.243256   20.361642 H          1 MOL1         0.0783
     100    O24     25.011295   18.591869   19.938083 O.3        1 MOL1        -0.3740
     101    C30     23.935093   20.491587   18.848882 C.3        1 MOL1         0.0138
     102    H48     22.918593   20.902456   18.804627 H          1 MOL1         0.0794
     103    H49     24.038301   19.806159   17.997156 H          1 MOL1         0.0794
     104    O25     24.885275   21.556804   18.740878 O.3        1 MOL1        -0.5486
     105    H50     24.492801   22.331195   19.204879 H          1 MOL1         0.3769
     106    C31     21.383323   13.840034   21.683534 C.3        1 MOL1         0.2972
     107    H51     20.977538   12.822620   21.750037 H          1 MOL1         0.0751
     108    O26     20.335959   14.827762   21.580853 O.3        1 MOL1        -0.3740
     109    C32     22.235125   14.143357   22.940774 C.3        1 MOL1         0.1003
     110    H52     23.060488   13.419648   22.958979 H          1 MOL1         0.0783
     111    O27     21.458508   13.997849   24.140295 O.3        1 MOL1        -0.5519
     112    H53     20.508200   14.127591   23.893512 H          1 MOL1         0.3769
     113    C33     22.849783   15.558836   22.862419 C.3        1 MOL1         0.1053
     114    H54     22.031636   16.286670   22.919986 H          1 MOL1         0.0783
     115    O28     23.734595   15.745312   23.970639 O.3        1 MOL1        -0.5519
     116    H55     23.238661   15.399807   24.747050 H          1 MOL1         0.3769
     117    C34     23.610105   15.769887   21.528108 C.3        1 MOL1         0.1018
     118    H56     24.563613   15.227986   21.582231 H          1 MOL1         0.0783
     119    C35     22.792699   15.287713   20.294820 C.3        1 MOL1         0.1043
     120    H57     21.970533   15.996275   20.139695 H          1 MOL1         0.0783
     121    O29     22.236071   13.967280   20.526723 O.3        1 MOL1        -0.3740
     122    C36     23.619115   15.250477   18.987414 C.3        1 MOL1         0.0138
     123    H58     23.830452   16.283680   18.679870 H          1 MOL1         0.0794
     124    H59     23.007470   14.793099   18.198253 H          1 MOL1         0.0794
     125    O30     24.848093   14.530603   19.146686 O.3        1 MOL1        -0.5486
     126    H60     25.288254   14.494925   18.269537 H          1 MOL1         0.3769
     127    C1      20.533662   18.395539   19.577678 C.3        1 MOL1        -0.1693
     128    H1      20.223950   17.390512   19.276638 H          1 MOL1         0.0829
     129    H2      21.407510   18.677734   18.981230 H          1 MOL1         0.0829
     130    C2      20.634989   18.620280   21.124106 C.3        1 MOL1        -0.1768
     131    H3      20.926316   17.752824   21.720788 H          1 MOL1         0.0829
     132    H4      21.228782   19.483939   21.444238 H          1 MOL1         0.0829
     133    C3      19.111640   18.907900   21.070444 C.3        1 MOL1         0.1211
     134    H5      18.497221   18.003347   21.115911 H          1 MOL1         0.0786
     135    C4      19.378124   19.441156   19.627965 C.3        1 MOL1        -0.1768
     136    H6      18.572918   19.299671   18.900227 H          1 MOL1         0.0829
     137    H7      19.720284   20.478706   19.579328 H          1 MOL1         0.0829
     138    O1      18.659915   19.856834   22.003564 O.3        1 MOL1        -0.5515
     139    H8      17.729124   20.077704   21.785836 H          1 MOL1         0.3773
@<TRIPOS>BOND
    1     1     2    1
    2     1     3    1
    3     1     4    1
    4     4     5    1
    5     4     6    1
    6     6     7    1
    7     4     8    1
    8     8     9    1
    9     8    10    1
   10    10    11    1
   11     8    12    1
   12    12    13    1
   13    12    14    1
   14    14    15    1
   15     1    16    1
   16    14    16    1
   17    14    17    1
   18    17    18    1
   19    17    19    1
   20    17    20    1
   21    20    21    1
   22    22    23    1
   23    22    24    1
   24    22    25    1
   25    25    26    1
   26    25    27    1
   27    27    28    1
   28    25    29    1
   29    29    30    1
   30    29    31    1
   31    31    32    1
   32     3    33    1
   33    29    33    1
   34    33    34    1
   35    33    35    1
   36    35    36    1
   37    22    37    1
   38    35    37    1
   39    35    38    1
   40    38    39    1
   41    38    40    1
   42    38    41    1
   43    41    42    1
   44    43    44    1
   45    43    45    1
   46    43    46    1
   47    46    47    1
   48    46    48    1
   49    48    49    1
   50    46    50    1
   51    50    51    1
   52    50    52    1
   53    52    53    1
   54    24    54    1
   55    50    54    1
   56    54    55    1
   57    54    56    1
   58    56    57    1
   59    43    58    1
   60    56    58    1
   61    56    59    1
   62    59    60    1
   63    59    61    1
   64    59    62    1
   65    62    63    1
   66    64    65    1
   67    64    66    1
   68    64    67    1
   69    67    68    1
   70    67    69    1
   71    69    70    1
   72    67    71    1
   73    71    72    1
   74    71    73    1
   75    73    74    1
   76    45    75    1
   77    71    75    1
   78    75    76    1
   79    75    77    1
   80    77    78    1
   81    64    79    1
   82    77    79    1
   83    77    80    1
   84    80    81    1
   85    80    82    1
   86    80    83    1
   87    83    84    1
   88    85    86    1
   89    85    87    1
   90    85    88    1
   91    88    89    1
   92    88    90    1
   93    90    91    1
   94    88    92    1
   95    92    93    1
   96    92    94    1
   97    94    95    1
   98    66    96    1
   99    92    96    1
  100    96    97    1
  101    96    98    1
  102    98    99    1
  103    85   100    1
  104    98   100    1
  105    98   101    1
  106   101   102    1
  107   101   103    1
  108   101   104    1
  109   104   105    1
  110   106   107    1
  111    12   108    1
  112   106   108    1
  113   106   109    1
  114   109   110    1
  115   109   111    1
  116   111   112    1
  117   109   113    1
  118   113   114    1
  119   113   115    1
  120   115   116    1
  121    87   117    1
  122   113   117    1
  123   117   118    1
  124   117   119    1
  125   119   120    1
  126   106   121    1
  127   119   121    1
  128   119   122    1
  129   122   123    1
  130   122   124    1
  131   122   125    1
  132   125   126    1
  133   127   128    1
  134   127   129    1
  135   127   130    1
  136   130   131    1
  137   130   132    1
  138   130   133    1
  139   133   134    1
  140   127   135    1
  141   133   135    1
  142   135   136    1
  143   135   137    1
  144   133   138    1
  145   138   139    1
@<TRIPOS>SUBSTRUCTURE
       1 MOL1            1 RESIDUE      1      MOL     
       2 MOL1          139 RESIDUE      1      MOL     
@<SCITEGIC>MOL_PROPERTY
feprocess Rank
SciTegic.value.IntegerValue
205

@<SCITEGIC>MOL_PROPERTY
Conf_Id
SciTegic.value.IntegerValue
576

@<SCITEGIC>MOL_PROPERTY
Probability
SciTegic.value.DoubleValue
0.00

@<SCITEGIC>MOL_PROPERTY
G
SciTegic.value.DoubleValue
552.151

@<SCITEGIC>MOL_PROPERTY
E
SciTegic.value.DoubleValue
374.949

@<SCITEGIC>MOL_PROPERTY
-TS
SciTegic.value.DoubleValue
177.201

@<SCITEGIC>MOL_PROPERTY
U+W
SciTegic.value.DoubleValue
252.438

@<SCITEGIC>MOL_PROPERTY
U
SciTegic.value.DoubleValue
291.246

@<SCITEGIC>MOL_PROPERTY
W
SciTegic.value.DoubleValue
-38.809

@<SCITEGIC>MOL_PROPERTY
W(PB)
SciTegic.value.DoubleValue
-44.806

@<SCITEGIC>MOL_PROPERTY
W(SA)
SciTegic.value.DoubleValue
5.998

@<SCITEGIC>MOL_PROPERTY
Valence
SciTegic.value.DoubleValue
157.816

@<SCITEGIC>MOL_PROPERTY
Coulomb
SciTegic.value.DoubleValue
155.455

@<SCITEGIC>MOL_PROPERTY
VdW
SciTegic.value.DoubleValue
-22.024

@<SCITEGIC>MOL_PROPERTY
VdW6
SciTegic.value.DoubleValue
-167.749

@<SCITEGIC>MOL_PROPERTY
VdW12
SciTegic.value.DoubleValue
145.725

@<SCITEGIC>MOL_PROPERTY
Bond
SciTegic.value.DoubleValue
4.686

@<SCITEGIC>MOL_PROPERTY
Angle
SciTegic.value.DoubleValue
11.278

@<SCITEGIC>MOL_PROPERTY
Pdih
SciTegic.value.DoubleValue
141.852

@<SCITEGIC>MOL_PROPERTY
Idih
SciTegic.value.DoubleValue
0.000

@<SCITEGIC>MOL_PROPERTY
Tether
SciTegic.value.DoubleValue
0.000

@<TRIPOS>MOLECULE
CD_guest-s16_fast_vm2_rndm.mol2 : feprocess host+ligand conformer 206
         139         145           2
SMALL
USER_CHARGES
 
@<TRIPOS>ATOM
       1    C1      16.615438   15.580376   20.773769 C.3        1 MOL1         0.2972
       2    H1      15.601757   15.430591   20.379455 H          1 MOL1         0.0751
       3    O1      16.825557   16.948390   21.173872 O.3        1 MOL1        -0.3740
       4    C2      16.828759   14.675531   22.013932 C.3        1 MOL1         0.1003
       5    H2      16.670157   13.637469   21.693957 H          1 MOL1         0.0783
       6    O2      15.885420   15.002102   23.047272 O.3        1 MOL1        -0.5519
       7    H3      15.376252   15.787384   22.728821 H          1 MOL1         0.3769
       8    C3      18.275157   14.800146   22.544741 C.3        1 MOL1         0.1053
       9    H4      18.408172   15.816916   22.937000 H          1 MOL1         0.0783
      10    O3      18.490520   13.844932   23.588439 O.3        1 MOL1        -0.5519
      11    H5      17.693665   13.915942   24.160929 H          1 MOL1         0.3769
      12    C4      19.290157   14.576108   21.399429 C.3        1 MOL1         0.1018
      13    H6      19.234659   13.524782   21.086531 H          1 MOL1         0.0783
      14    C5      18.982126   15.471200   20.168842 C.3        1 MOL1         0.1043
      15    H7      19.107996   16.518590   20.459959 H          1 MOL1         0.0783
      16    O4      17.605443   15.258471   19.768798 O.3        1 MOL1        -0.3740
      17    C6      19.908866   15.230181   18.948975 C.3        1 MOL1         0.0138
      18    H8      20.798409   15.862922   19.059053 H          1 MOL1         0.0794
      19    H9      19.391041   15.567611   18.041196 H          1 MOL1         0.0794
      20    O5      20.310425   13.862260   18.807092 O.3        1 MOL1        -0.5486
      21    H10     20.977275   13.679387   19.509240 H          1 MOL1         0.3769
      22    C7      14.814118   20.602384   20.503344 C.3        1 MOL1         0.2972
      23    H11     14.180670   21.353993   20.015480 H          1 MOL1         0.0751
      24    O6      15.449638   21.145992   21.674727 O.3        1 MOL1        -0.3740
      25    C8      13.945399   19.396307   20.956161 C.3        1 MOL1         0.1003
      26    H12     13.420248   19.017645   20.069574 H          1 MOL1         0.0783
      27    O7      12.983870   19.814558   21.935705 O.3        1 MOL1        -0.5519
      28    H13     13.482524   20.362312   22.584008 H          1 MOL1         0.3769
      29    C9      14.813510   18.246975   21.526555 C.3        1 MOL1         0.1053
      30    H14     15.267734   18.588786   22.466949 H          1 MOL1         0.0783
      31    O8      13.991257   17.100238   21.771099 O.3        1 MOL1        -0.5519
      32    H15     13.187921   17.450050   22.217670 H          1 MOL1         0.3769
      33    C10     15.951274   17.897074   20.540280 C.3        1 MOL1         0.1018
      34    H16     15.514080   17.489303   19.618709 H          1 MOL1         0.0783
      35    C11     16.769663   19.160155   20.178905 C.3        1 MOL1         0.1043
      36    H17     17.218515   19.566981   21.095042 H          1 MOL1         0.0783
      37    O9      15.850703   20.124626   19.609864 O.3        1 MOL1        -0.3740
      38    C12     17.924174   18.906685   19.176211 C.3        1 MOL1         0.0138
      39    H18     18.809618   18.592422   19.743987 H          1 MOL1         0.0794
      40    H19     18.178878   19.854236   18.685222 H          1 MOL1         0.0794
      41    O10     17.604507   17.915760   18.191522 O.3        1 MOL1        -0.5486
      42    H20     17.504518   17.055622   18.660802 H          1 MOL1         0.3769
      43    C13     18.249846   24.160022   22.023014 C.3        1 MOL1         0.2972
      44    H21     18.821614   25.090909   22.131629 H          1 MOL1         0.0751
      45    O11     19.117109   23.015686   21.909939 O.3        1 MOL1        -0.3740
      46    C14     17.321792   23.983935   23.241980 C.3        1 MOL1         0.1003
      47    H22     16.639372   24.843670   23.262255 H          1 MOL1         0.0783
      48    O12     18.089258   23.956498   24.456682 O.3        1 MOL1        -0.5519
      49    H23     19.032050   23.806048   24.197579 H          1 MOL1         0.3769
      50    C15     16.471390   22.702679   23.111647 C.3        1 MOL1         0.1053
      51    H24     17.148089   21.846851   23.228953 H          1 MOL1         0.0783
      52    O13     15.500114   22.690222   24.163139 O.3        1 MOL1        -0.5519
      53    H25     16.007357   22.898851   24.978726 H          1 MOL1         0.3769
      54    C16     15.772323   22.560096   21.730529 C.3        1 MOL1         0.1018
      55    H26     14.855950   23.163488   21.740400 H          1 MOL1         0.0783
      56    C17     16.680619   23.002673   20.529068 C.3        1 MOL1         0.1043
      57    H27     17.386003   22.188641   20.328146 H          1 MOL1         0.0783
      58    O14     17.425390   24.206559   20.848153 O.3        1 MOL1        -0.3740
      59    C18     15.930707   23.325282   19.207984 C.3        1 MOL1         0.0138
      60    H28     15.669890   22.396740   18.688548 H          1 MOL1         0.0794
      61    H29     16.619024   23.864986   18.543335 H          1 MOL1         0.0794
      62    O15     14.751838   24.108135   19.429654 O.3        1 MOL1        -0.5486
      63    H30     14.388832   24.356864   18.551472 H          1 MOL1         0.3769
      64    C19     23.195021   22.344796   21.119773 C.3        1 MOL1         0.2972
      65    H31     24.227061   22.526980   20.792312 H          1 MOL1         0.0751
      66    O16     23.015215   20.977309   21.530894 O.3        1 MOL1        -0.3740
      67    C20     22.865826   23.270631   22.320102 C.3        1 MOL1         0.1003
      68    H32     23.043654   24.303199   21.992570 H          1 MOL1         0.0783
      69    O17     23.724107   22.975037   23.433632 O.3        1 MOL1        -0.5519
      70    H33     24.231157   22.162103   23.191328 H          1 MOL1         0.3769
      71    C21     21.380797   23.151809   22.735550 C.3        1 MOL1         0.1053
      72    H34     21.220626   22.148326   23.149100 H          1 MOL1         0.0783
      73    O18     21.076874   24.140809   23.724997 O.3        1 MOL1        -0.5519
      74    H35     21.818678   24.088526   24.368655 H          1 MOL1         0.3769
      75    C22     20.462974   23.327103   21.503644 C.3        1 MOL1         0.1018
      76    H36     20.552734   24.360570   21.142810 H          1 MOL1         0.0783
      77    C23     20.870526   22.368681   20.355517 C.3        1 MOL1         0.1043
      78    H37     20.734617   21.338096   20.705979 H          1 MOL1         0.0783
      79    O19     22.267133   22.597297   20.040334 O.3        1 MOL1        -0.3740
      80    C24     20.041164   22.530802   19.055188 C.3        1 MOL1         0.0138
      81    H38     19.149332   21.898560   19.130617 H          1 MOL1         0.0794
      82    H39     20.629111   22.145786   18.211360 H          1 MOL1         0.0794
      83    O20     19.649320   23.885624   18.802188 O.3        1 MOL1        -0.5486
      84    H40     18.961558   24.121841   19.467270 H          1 MOL1         0.3769
      85    C25     25.103627   17.347591   20.992298 C.3        1 MOL1         0.2972
      86    H41     25.781864   16.596197   20.568445 H          1 MOL1         0.0751
      87    O21     24.342234   16.798997   22.084540 O.3        1 MOL1        -0.3740
      88    C26     25.920369   18.548786   21.545090 C.3        1 MOL1         0.1003
      89    H42     26.532990   18.937395   20.721185 H          1 MOL1         0.0783
      90    O22     26.776664   18.119243   22.613329 O.3        1 MOL1        -0.5519
      91    H43     26.213076   17.567160   23.202056 H          1 MOL1         0.3769
      92    C27     24.996717   19.692472   22.037102 C.3        1 MOL1         0.1053
      93    H44     24.454252   19.340036   22.925440 H          1 MOL1         0.0783
      94    O23     25.785212   20.840177   22.371731 O.3        1 MOL1        -0.5519
      95    H45     26.537233   20.491394   22.900445 H          1 MOL1         0.3769
      96    C28     23.956384   20.054778   20.952511 C.3        1 MOL1         0.1018
      97    H46     24.475359   20.490613   20.088080 H          1 MOL1         0.0783
      98    C29     23.196137   18.791771   20.483829 C.3        1 MOL1         0.1043
      99    H47     22.669028   18.368673   21.345911 H          1 MOL1         0.0783
     100    O24     24.175588   17.843089   19.997215 O.3        1 MOL1        -0.3740
     101    C30     22.141401   19.041967   19.377478 C.3        1 MOL1         0.0138
     102    H48     21.205246   19.349758   19.860036 H          1 MOL1         0.0794
     103    H49     21.937467   18.092533   18.865866 H          1 MOL1         0.0794
     104    O25     22.549462   20.036082   18.429607 O.3        1 MOL1        -0.5486
     105    H50     22.575098   20.899539   18.903207 H          1 MOL1         0.3769
     106    C31     21.470226   13.795300   22.108731 C.3        1 MOL1         0.2972
     107    H51     20.911167   12.851633   22.153981 H          1 MOL1         0.0751
     108    O26     20.594020   14.920401   21.906857 O.3        1 MOL1        -0.3740
     109    C32     22.259124   13.983499   23.421413 C.3        1 MOL1         0.1003
     110    H52     22.935799   13.124735   23.520896 H          1 MOL1         0.0783
     111    O27     21.366705   14.017857   24.547913 O.3        1 MOL1        -0.5519
     112    H53     20.447151   14.097434   24.190655 H          1 MOL1         0.3769
     113    C33     23.119198   15.264231   23.380988 C.3        1 MOL1         0.1053
     114    H54     22.435457   16.122266   23.419005 H          1 MOL1         0.0783
     115    O28     23.966451   15.277182   24.534908 O.3        1 MOL1        -0.5519
     116    H55     23.370627   15.067072   25.287815 H          1 MOL1         0.3769
     117    C34     23.968675   15.396171   22.086153 C.3        1 MOL1         0.1018
     118    H56     24.859089   14.763259   22.188342 H          1 MOL1         0.0783
     119    C35     23.177672   14.982510   20.794372 C.3        1 MOL1         0.1043
     120    H57     22.492846   15.800087   20.538065 H          1 MOL1         0.0783
     121    O29     22.410527   13.771547   21.023544 O.3        1 MOL1        -0.3740
     122    C36     24.050678   14.673774   19.547391 C.3        1 MOL1         0.0138
     123    H58     24.362138   15.606673   19.065706 H          1 MOL1         0.0794
     124    H59     23.427974   14.144118   18.813566 H          1 MOL1         0.0794
     125    O30     25.201603   13.884440   19.870859 O.3        1 MOL1        -0.5486
     126    H60     25.646573   13.646047   19.028311 H          1 MOL1         0.3769
     127    C1      19.411984   20.052883   23.524483 C.3        1 MOL1        -0.1693
     128    H1      19.042116   20.906081   24.103845 H          1 MOL1         0.0829
     129    H2      19.390331   20.311415   22.459010 H          1 MOL1         0.0829
     130    C2      18.784493   18.661187   23.863041 C.3        1 MOL1        -0.1768
     131    H3      18.470831   18.545822   24.907180 H          1 MOL1         0.0829
     132    H4      17.966740   18.332251   23.214085 H          1 MOL1         0.0829
     133    C3      20.189807   18.060733   23.547382 C.3        1 MOL1         0.1211
     134    H5      20.478178   17.208307   24.175467 H          1 MOL1         0.0786
     135    C4      20.760347   19.432431   24.017277 C.3        1 MOL1        -0.1768
     136    H6      21.665707   19.769031   23.502549 H          1 MOL1         0.0829
     137    H7      20.925296   19.504174   25.098678 H          1 MOL1         0.0829
     138    O1      20.420129   17.762371   22.186738 O.3        1 MOL1        -0.5515
     139    H8      20.432345   16.784093   22.111534 H          1 MOL1         0.3773
@<TRIPOS>BOND
    1     1     2    1
    2     1     3    1
    3     1     4    1
    4     4     5    1
    5     4     6    1
    6     6     7    1
    7     4     8    1
    8     8     9    1
    9     8    10    1
   10    10    11    1
   11     8    12    1
   12    12    13    1
   13    12    14    1
   14    14    15    1
   15     1    16    1
   16    14    16    1
   17    14    17    1
   18    17    18    1
   19    17    19    1
   20    17    20    1
   21    20    21    1
   22    22    23    1
   23    22    24    1
   24    22    25    1
   25    25    26    1
   26    25    27    1
   27    27    28    1
   28    25    29    1
   29    29    30    1
   30    29    31    1
   31    31    32    1
   32     3    33    1
   33    29    33    1
   34    33    34    1
   35    33    35    1
   36    35    36    1
   37    22    37    1
   38    35    37    1
   39    35    38    1
   40    38    39    1
   41    38    40    1
   42    38    41    1
   43    41    42    1
   44    43    44    1
   45    43    45    1
   46    43    46    1
   47    46    47    1
   48    46    48    1
   49    48    49    1
   50    46    50    1
   51    50    51    1
   52    50    52    1
   53    52    53    1
   54    24    54    1
   55    50    54    1
   56    54    55    1
   57    54    56    1
   58    56    57    1
   59    43    58    1
   60    56    58    1
   61    56    59    1
   62    59    60    1
   63    59    61    1
   64    59    62    1
   65    62    63    1
   66    64    65    1
   67    64    66    1
   68    64    67    1
   69    67    68    1
   70    67    69    1
   71    69    70    1
   72    67    71    1
   73    71    72    1
   74    71    73    1
   75    73    74    1
   76    45    75    1
   77    71    75    1
   78    75    76    1
   79    75    77    1
   80    77    78    1
   81    64    79    1
   82    77    79    1
   83    77    80    1
   84    80    81    1
   85    80    82    1
   86    80    83    1
   87    83    84    1
   88    85    86    1
   89    85    87    1
   90    85    88    1
   91    88    89    1
   92    88    90    1
   93    90    91    1
   94    88    92    1
   95    92    93    1
   96    92    94    1
   97    94    95    1
   98    66    96    1
   99    92    96    1
  100    96    97    1
  101    96    98    1
  102    98    99    1
  103    85   100    1
  104    98   100    1
  105    98   101    1
  106   101   102    1
  107   101   103    1
  108   101   104    1
  109   104   105    1
  110   106   107    1
  111    12   108    1
  112   106   108    1
  113   106   109    1
  114   109   110    1
  115   109   111    1
  116   111   112    1
  117   109   113    1
  118   113   114    1
  119   113   115    1
  120   115   116    1
  121    87   117    1
  122   113   117    1
  123   117   118    1
  124   117   119    1
  125   119   120    1
  126   106   121    1
  127   119   121    1
  128   119   122    1
  129   122   123    1
  130   122   124    1
  131   122   125    1
  132   125   126    1
  133   127   128    1
  134   127   129    1
  135   127   130    1
  136   130   131    1
  137   130   132    1
  138   130   133    1
  139   133   134    1
  140   127   135    1
  141   133   135    1
  142   135   136    1
  143   135   137    1
  144   133   138    1
  145   138   139    1
@<TRIPOS>SUBSTRUCTURE
       1 MOL1            1 RESIDUE      1      MOL     
       2 MOL1          139 RESIDUE      1      MOL     
@<SCITEGIC>MOL_PROPERTY
feprocess Rank
SciTegic.value.IntegerValue
206

@<SCITEGIC>MOL_PROPERTY
Conf_Id
SciTegic.value.IntegerValue
303

@<SCITEGIC>MOL_PROPERTY
Probability
SciTegic.value.DoubleValue
0.00

@<SCITEGIC>MOL_PROPERTY
G
SciTegic.value.DoubleValue
552.265

@<SCITEGIC>MOL_PROPERTY
E
SciTegic.value.DoubleValue
373.553

@<SCITEGIC>MOL_PROPERTY
-TS
SciTegic.value.DoubleValue
178.712

@<SCITEGIC>MOL_PROPERTY
U+W
SciTegic.value.DoubleValue
251.041

@<SCITEGIC>MOL_PROPERTY
U
SciTegic.value.DoubleValue
285.025

@<SCITEGIC>MOL_PROPERTY
W
SciTegic.value.DoubleValue
-33.984

@<SCITEGIC>MOL_PROPERTY
W(PB)
SciTegic.value.DoubleValue
-39.821

@<SCITEGIC>MOL_PROPERTY
W(SA)
SciTegic.value.DoubleValue
5.837

@<SCITEGIC>MOL_PROPERTY
Valence
SciTegic.value.DoubleValue
153.795

@<SCITEGIC>MOL_PROPERTY
Coulomb
SciTegic.value.DoubleValue
153.568

@<SCITEGIC>MOL_PROPERTY
VdW
SciTegic.value.DoubleValue
-22.338

@<SCITEGIC>MOL_PROPERTY
VdW6
SciTegic.value.DoubleValue
-173.350

@<SCITEGIC>MOL_PROPERTY
VdW12
SciTegic.value.DoubleValue
151.012

@<SCITEGIC>MOL_PROPERTY
Bond
SciTegic.value.DoubleValue
4.942

@<SCITEGIC>MOL_PROPERTY
Angle
SciTegic.value.DoubleValue
13.874

@<SCITEGIC>MOL_PROPERTY
Pdih
SciTegic.value.DoubleValue
134.979

@<SCITEGIC>MOL_PROPERTY
Idih
SciTegic.value.DoubleValue
0.000

@<SCITEGIC>MOL_PROPERTY
Tether
SciTegic.value.DoubleValue
0.000

@<TRIPOS>MOLECULE
CD_guest-s16_fast_vm2_rndm.mol2 : feprocess host+ligand conformer 207
         139         145           2
SMALL
USER_CHARGES
 
@<TRIPOS>ATOM
       1    C1      16.251170   15.221436   21.685646 C.3        1 MOL1         0.2972
       2    H1      15.168783   15.054764   21.757132 H          1 MOL1         0.0751
       3    O1      16.567308   16.628029   21.639117 O.3        1 MOL1        -0.3740
       4    C2      16.948972   14.591361   22.916465 C.3        1 MOL1         0.1003
       5    H2      16.708751   13.520137   22.913870 H          1 MOL1         0.0783
       6    O2      16.461289   15.179319   24.133310 O.3        1 MOL1        -0.5519
       7    H3      16.093849   16.068773   23.900894 H          1 MOL1         0.3769
       8    C3      18.486263   14.729772   22.827478 C.3        1 MOL1         0.1053
       9    H4      18.739600   15.790151   22.939348 H          1 MOL1         0.0783
      10    O3      19.085771   13.983774   23.891162 O.3        1 MOL1        -0.5519
      11    H5      18.570655   14.229567   24.692153 H          1 MOL1         0.3769
      12    C4      19.023233   14.231712   21.461892 C.3        1 MOL1         0.1018
      13    H6      19.000504   13.133892   21.461525 H          1 MOL1         0.0783
      14    C5      18.198969   14.780345   20.261516 C.3        1 MOL1         0.1043
      15    H7      18.414895   15.851332   20.163391 H          1 MOL1         0.0783
      16    O4      16.776977   14.602778   20.492970 O.3        1 MOL1        -0.3740
      17    C6      18.559959   14.114589   18.912271 C.3        1 MOL1         0.0138
      18    H8      19.563197   14.449658   18.615894 H          1 MOL1         0.0794
      19    H9      17.857640   14.469826   18.146303 H          1 MOL1         0.0794
      20    O5      18.529478   12.683934   18.991705 O.3        1 MOL1        -0.5486
      21    H10     18.707015   12.331839   18.092374 H          1 MOL1         0.3769
      22    C7      14.672193   20.316009   20.984141 C.3        1 MOL1         0.2972
      23    H11     13.933274   21.089160   20.739308 H          1 MOL1         0.0751
      24    O6      15.965335   20.883137   21.263550 O.3        1 MOL1        -0.3740
      25    C8      14.239374   19.545896   22.258240 C.3        1 MOL1         0.1003
      26    H12     13.259747   19.093729   22.055789 H          1 MOL1         0.0783
      27    O7      14.125709   20.443796   23.374643 O.3        1 MOL1        -0.5519
      28    H13     14.835302   21.126387   23.272673 H          1 MOL1         0.3769
      29    C9      15.236794   18.404465   22.581634 C.3        1 MOL1         0.1053
      30    H14     16.200156   18.853336   22.860053 H          1 MOL1         0.0783
      31    O8      14.733080   17.623612   23.669981 O.3        1 MOL1        -0.5519
      32    H15     14.424527   18.281128   24.333146 H          1 MOL1         0.3769
      33    C10     15.458925   17.503279   21.343319 C.3        1 MOL1         0.1018
      34    H16     14.532235   16.945745   21.153826 H          1 MOL1         0.0783
      35    C11     15.808136   18.336481   20.080040 C.3        1 MOL1         0.1043
      36    H17     16.781052   18.811280   20.236234 H          1 MOL1         0.0783
      37    O9      14.804419   19.368192   19.898389 O.3        1 MOL1        -0.3740
      38    C12     15.925043   17.506044   18.775643 C.3        1 MOL1         0.0138
      39    H18     16.948561   17.116521   18.703081 H          1 MOL1         0.0794
      40    H19     15.776217   18.176722   17.918977 H          1 MOL1         0.0794
      41    O10     14.999712   16.414720   18.714189 O.3        1 MOL1        -0.5486
      42    H20     15.387221   15.680987   19.245230 H          1 MOL1         0.3769
      43    C13     18.475738   24.131910   20.731410 C.3        1 MOL1         0.2972
      44    H21     18.936321   25.098296   20.489073 H          1 MOL1         0.0751
      45    O11     19.476492   23.146169   21.078046 O.3        1 MOL1        -0.3740
      46    C14     17.450976   24.276117   21.888947 C.3        1 MOL1         0.1003
      47    H22     16.656719   24.945531   21.533587 H          1 MOL1         0.0783
      48    O12     18.041873   24.850849   23.063052 O.3        1 MOL1        -0.5519
      49    H23     18.780266   24.251528   23.340074 H          1 MOL1         0.3769
      50    C15     16.804395   22.905899   22.208305 C.3        1 MOL1         0.1053
      51    H24     17.591919   22.235796   22.580620 H          1 MOL1         0.0783
      52    O13     15.793500   23.065968   23.209261 O.3        1 MOL1        -0.5519
      53    H25     16.191431   23.662014   23.882443 H          1 MOL1         0.3769
      54    C16     16.181579   22.270390   20.939228 C.3        1 MOL1         0.1018
      55    H26     15.245409   22.795277   20.709784 H          1 MOL1         0.0783
      56    C17     17.142969   22.327969   19.718574 C.3        1 MOL1         0.1043
      57    H27     17.939192   21.602170   19.896701 H          1 MOL1         0.0783
      58    O14     17.735226   23.645812   19.589682 O.3        1 MOL1        -0.3740
      59    C18     16.485634   21.949966   18.368756 C.3        1 MOL1         0.0138
      60    H28     16.329781   20.863656   18.342843 H          1 MOL1         0.0794
      61    H29     17.191006   22.191502   17.562593 H          1 MOL1         0.0794
      62    O15     15.242098   22.626490   18.148977 O.3        1 MOL1        -0.5486
      63    H30     14.533749   22.080356   18.551026 H          1 MOL1         0.3769
      64    C19     23.485759   22.656226   22.125659 C.3        1 MOL1         0.2972
      65    H31     24.532392   22.789622   22.428381 H          1 MOL1         0.0751
      66    O16     23.226771   21.304111   21.695776 O.3        1 MOL1        -0.3740
      67    C20     22.537193   23.002254   23.301882 C.3        1 MOL1         0.1003
      68    H32     22.696227   24.059867   23.549694 H          1 MOL1         0.0783
      69    O17     22.815213   22.202497   24.462431 O.3        1 MOL1        -0.5519
      70    H33     23.533917   21.570307   24.213871 H          1 MOL1         0.3769
      71    C21     21.061968   22.826875   22.878210 C.3        1 MOL1         0.1053
      72    H34     20.910013   21.765667   22.658975 H          1 MOL1         0.0783
      73    O18     20.219712   23.225406   23.962944 O.3        1 MOL1        -0.5519
      74    H35     20.633166   22.813356   24.755505 H          1 MOL1         0.3769
      75    C22     20.735880   23.637742   21.597753 C.3        1 MOL1         0.1018
      76    H36     20.679175   24.701318   21.864934 H          1 MOL1         0.0783
      77    C23     21.811670   23.425744   20.490343 C.3        1 MOL1         0.1043
      78    H37     21.684705   22.415656   20.083931 H          1 MOL1         0.0783
      79    O19     23.155645   23.542862   21.033123 O.3        1 MOL1        -0.3740
      80    C24     21.672892   24.412792   19.307077 C.3        1 MOL1         0.0138
      81    H38     20.765420   24.155217   18.744101 H          1 MOL1         0.0794
      82    H39     22.527306   24.272953   18.631343 H          1 MOL1         0.0794
      83    O20     21.601296   25.775256   19.746058 O.3        1 MOL1        -0.5486
      84    H40     21.589600   26.345547   18.946527 H          1 MOL1         0.3769
      85    C25     25.193981   17.602618   21.415700 C.3        1 MOL1         0.2972
      86    H41     25.952651   16.827486   21.248935 H          1 MOL1         0.0751
      87    O21     23.914969   17.021661   21.733488 O.3        1 MOL1        -0.3740
      88    C26     25.599846   18.482704   22.624822 C.3        1 MOL1         0.1003
      89    H42     26.581857   18.919503   22.401225 H          1 MOL1         0.0783
      90    O22     25.695641   17.677200   23.809942 O.3        1 MOL1        -0.5519
      91    H43     24.972576   17.007684   23.744716 H          1 MOL1         0.3769
      92    C27     24.596889   19.643935   22.845390 C.3        1 MOL1         0.1053
      93    H44     23.635183   19.215603   23.161879 H          1 MOL1         0.0783
      94    O23     25.111658   20.506218   23.864754 O.3        1 MOL1        -0.5519
      95    H45     25.448647   19.898865   24.562081 H          1 MOL1         0.3769
      96    C28     24.365400   20.432652   21.531520 C.3        1 MOL1         0.1018
      97    H46     25.273303   20.999222   21.287105 H          1 MOL1         0.0783
      98    C29     24.034391   19.473964   20.355501 C.3        1 MOL1         0.1043
      99    H47     23.074601   18.986605   20.569651 H          1 MOL1         0.0783
     100    O24     25.060458   18.453899   20.254191 O.3        1 MOL1        -0.3740
     101    C30     23.891548   20.191724   18.987701 C.3        1 MOL1         0.0138
     102    H48     22.874918   20.599561   18.914743 H          1 MOL1         0.0794
     103    H49     23.998465   19.450047   18.185526 H          1 MOL1         0.0794
     104    O25     24.841343   21.249037   18.807732 O.3        1 MOL1        -0.5486
     105    H50     24.579123   21.979687   19.410562 H          1 MOL1         0.3769
     106    C31     21.379397   13.818520   20.885327 C.3        1 MOL1         0.2972
     107    H51     20.943360   12.867261   20.554185 H          1 MOL1         0.0751
     108    O26     20.365266   14.743094   21.333098 O.3        1 MOL1        -0.3740
     109    C32     22.382380   13.593700   22.045688 C.3        1 MOL1         0.1003
     110    H52     23.175242   12.935159   21.667975 H          1 MOL1         0.0783
     111    O27     21.746522   12.962805   23.168539 O.3        1 MOL1        -0.5519
     112    H53     20.905276   13.455669   23.346829 H          1 MOL1         0.3769
     113    C33     23.040049   14.930672   22.471344 C.3        1 MOL1         0.1053
     114    H54     22.261118   15.567355   22.913411 H          1 MOL1         0.0783
     115    O28     24.061140   14.669347   23.441236 O.3        1 MOL1        -0.5519
     116    H55     23.650320   14.048425   24.082840 H          1 MOL1         0.3769
     117    C34     23.645348   15.685358   21.258888 C.3        1 MOL1         0.1018
     118    H56     24.562098   15.166112   20.951153 H          1 MOL1         0.0783
     119    C35     22.644075   15.750693   20.067152 C.3        1 MOL1         0.1043
     120    H57     21.819985   16.406835   20.359585 H          1 MOL1         0.0783
     121    O29     22.112401   14.429552   19.802137 O.3        1 MOL1        -0.3740
     122    C36     23.213100   16.306946   18.737838 C.3        1 MOL1         0.0138
     123    H58     23.074326   17.393811   18.729385 H          1 MOL1         0.0794
     124    H59     22.613897   15.907863   17.908620 H          1 MOL1         0.0794
     125    O30     24.595608   15.995716   18.536213 O.3        1 MOL1        -0.5486
     126    H60     25.107639   16.704876   18.987438 H          1 MOL1         0.3769
     127    C1      20.188634   20.000372   20.408251 C.3        1 MOL1        -0.1693
     128    H1      19.869777   20.790224   19.723390 H          1 MOL1         0.0829
     129    H2      21.229707   20.183426   20.676932 H          1 MOL1         0.0829
     130    C2      19.883793   18.539215   19.954847 C.3        1 MOL1        -0.1768
     131    H3      18.959538   18.426232   19.378728 H          1 MOL1         0.0829
     132    H4      20.689568   18.030662   19.419816 H          1 MOL1         0.0829
     133    C3      19.741439   18.212812   21.475059 C.3        1 MOL1         0.1211
     134    H5      18.979299   17.466116   21.710453 H          1 MOL1         0.0786
     135    C4      19.270235   19.685442   21.635639 C.3        1 MOL1        -0.1768
     136    H6      19.529151   20.157921   22.586688 H          1 MOL1         0.0829
     137    H7      18.205635   19.836461   21.465144 H          1 MOL1         0.0829
     138    O1      20.943247   17.914847   22.152028 O.3        1 MOL1        -0.5515
     139    H8      20.757430   17.948118   23.109383 H          1 MOL1         0.3773
@<TRIPOS>BOND
    1     1     2    1
    2     1     3    1
    3     1     4    1
    4     4     5    1
    5     4     6    1
    6     6     7    1
    7     4     8    1
    8     8     9    1
    9     8    10    1
   10    10    11    1
   11     8    12    1
   12    12    13    1
   13    12    14    1
   14    14    15    1
   15     1    16    1
   16    14    16    1
   17    14    17    1
   18    17    18    1
   19    17    19    1
   20    17    20    1
   21    20    21    1
   22    22    23    1
   23    22    24    1
   24    22    25    1
   25    25    26    1
   26    25    27    1
   27    27    28    1
   28    25    29    1
   29    29    30    1
   30    29    31    1
   31    31    32    1
   32     3    33    1
   33    29    33    1
   34    33    34    1
   35    33    35    1
   36    35    36    1
   37    22    37    1
   38    35    37    1
   39    35    38    1
   40    38    39    1
   41    38    40    1
   42    38    41    1
   43    41    42    1
   44    43    44    1
   45    43    45    1
   46    43    46    1
   47    46    47    1
   48    46    48    1
   49    48    49    1
   50    46    50    1
   51    50    51    1
   52    50    52    1
   53    52    53    1
   54    24    54    1
   55    50    54    1
   56    54    55    1
   57    54    56    1
   58    56    57    1
   59    43    58    1
   60    56    58    1
   61    56    59    1
   62    59    60    1
   63    59    61    1
   64    59    62    1
   65    62    63    1
   66    64    65    1
   67    64    66    1
   68    64    67    1
   69    67    68    1
   70    67    69    1
   71    69    70    1
   72    67    71    1
   73    71    72    1
   74    71    73    1
   75    73    74    1
   76    45    75    1
   77    71    75    1
   78    75    76    1
   79    75    77    1
   80    77    78    1
   81    64    79    1
   82    77    79    1
   83    77    80    1
   84    80    81    1
   85    80    82    1
   86    80    83    1
   87    83    84    1
   88    85    86    1
   89    85    87    1
   90    85    88    1
   91    88    89    1
   92    88    90    1
   93    90    91    1
   94    88    92    1
   95    92    93    1
   96    92    94    1
   97    94    95    1
   98    66    96    1
   99    92    96    1
  100    96    97    1
  101    96    98    1
  102    98    99    1
  103    85   100    1
  104    98   100    1
  105    98   101    1
  106   101   102    1
  107   101   103    1
  108   101   104    1
  109   104   105    1
  110   106   107    1
  111    12   108    1
  112   106   108    1
  113   106   109    1
  114   109   110    1
  115   109   111    1
  116   111   112    1
  117   109   113    1
  118   113   114    1
  119   113   115    1
  120   115   116    1
  121    87   117    1
  122   113   117    1
  123   117   118    1
  124   117   119    1
  125   119   120    1
  126   106   121    1
  127   119   121    1
  128   119   122    1
  129   122   123    1
  130   122   124    1
  131   122   125    1
  132   125   126    1
  133   127   128    1
  134   127   129    1
  135   127   130    1
  136   130   131    1
  137   130   132    1
  138   130   133    1
  139   133   134    1
  140   127   135    1
  141   133   135    1
  142   135   136    1
  143   135   137    1
  144   133   138    1
  145   138   139    1
@<TRIPOS>SUBSTRUCTURE
       1 MOL1            1 RESIDUE      1      MOL     
       2 MOL1          139 RESIDUE      1      MOL     
@<SCITEGIC>MOL_PROPERTY
feprocess Rank
SciTegic.value.IntegerValue
207

@<SCITEGIC>MOL_PROPERTY
Conf_Id
SciTegic.value.IntegerValue
28

@<SCITEGIC>MOL_PROPERTY
Probability
SciTegic.value.DoubleValue
0.00

@<SCITEGIC>MOL_PROPERTY
G
SciTegic.value.DoubleValue
552.433

@<SCITEGIC>MOL_PROPERTY
E
SciTegic.value.DoubleValue
374.483

@<SCITEGIC>MOL_PROPERTY
-TS
SciTegic.value.DoubleValue
177.950

@<SCITEGIC>MOL_PROPERTY
U+W
SciTegic.value.DoubleValue
251.972

@<SCITEGIC>MOL_PROPERTY
U
SciTegic.value.DoubleValue
290.634

@<SCITEGIC>MOL_PROPERTY
W
SciTegic.value.DoubleValue
-38.661

@<SCITEGIC>MOL_PROPERTY
W(PB)
SciTegic.value.DoubleValue
-44.664

@<SCITEGIC>MOL_PROPERTY
W(SA)
SciTegic.value.DoubleValue
6.002

@<SCITEGIC>MOL_PROPERTY
Valence
SciTegic.value.DoubleValue
156.213

@<SCITEGIC>MOL_PROPERTY
Coulomb
SciTegic.value.DoubleValue
155.634

@<SCITEGIC>MOL_PROPERTY
VdW
SciTegic.value.DoubleValue
-21.213

@<SCITEGIC>MOL_PROPERTY
VdW6
SciTegic.value.DoubleValue
-170.239

@<SCITEGIC>MOL_PROPERTY
VdW12
SciTegic.value.DoubleValue
149.026

@<SCITEGIC>MOL_PROPERTY
Bond
SciTegic.value.DoubleValue
4.948

@<SCITEGIC>MOL_PROPERTY
Angle
SciTegic.value.DoubleValue
12.578

@<SCITEGIC>MOL_PROPERTY
Pdih
SciTegic.value.DoubleValue
138.687

@<SCITEGIC>MOL_PROPERTY
Idih
SciTegic.value.DoubleValue
0.000

@<SCITEGIC>MOL_PROPERTY
Tether
SciTegic.value.DoubleValue
0.000

@<TRIPOS>MOLECULE
CD_guest-s16_fast_vm2_rndm.mol2 : feprocess host+ligand conformer 208
         139         145           2
SMALL
USER_CHARGES
 
@<TRIPOS>ATOM
       1    C1      16.640885   15.681372   20.602520 C.3        1 MOL1         0.2972
       2    H1      15.686870   15.444459   20.113857 H          1 MOL1         0.0751
       3    O1      16.644251   17.022339   21.123578 O.3        1 MOL1        -0.3740
       4    C2      16.869834   14.701584   21.784132 C.3        1 MOL1         0.1003
       5    H2      16.827280   13.683474   21.375681 H          1 MOL1         0.0783
       6    O2      15.840940   14.853383   22.775344 O.3        1 MOL1        -0.5519
       7    H3      15.371354   15.700690   22.574868 H          1 MOL1         0.3769
       8    C3      18.265352   14.899567   22.421149 C.3        1 MOL1         0.1053
       9    H4      18.287892   15.885655   22.904027 H          1 MOL1         0.0783
      10    O3      18.494646   13.874537   23.394007 O.3        1 MOL1        -0.5519
      11    H5      17.655282   13.821607   23.904794 H          1 MOL1         0.3769
      12    C4      19.351835   14.861872   21.320110 C.3        1 MOL1         0.1018
      13    H6      19.365836   13.859345   20.871052 H          1 MOL1         0.0783
      14    C5      19.044396   15.887948   20.202232 C.3        1 MOL1         0.1043
      15    H7      19.040007   16.893423   20.643200 H          1 MOL1         0.0783
      16    O4      17.734488   15.582591   19.660542 O.3        1 MOL1        -0.3740
      17    C6      20.078444   15.894235   19.047923 C.3        1 MOL1         0.0138
      18    H8      20.911040   16.545884   19.338923 H          1 MOL1         0.0794
      19    H9      19.615282   16.344169   18.159579 H          1 MOL1         0.0794
      20    O5      20.579795   14.587873   18.737441 O.3        1 MOL1        -0.5486
      21    H10     21.096791   14.276796   19.515756 H          1 MOL1         0.3769
      22    C7      14.526890   20.603705   20.675285 C.3        1 MOL1         0.2972
      23    H11     13.855324   21.395600   20.319481 H          1 MOL1         0.0751
      24    O6      15.332809   21.058078   21.779602 O.3        1 MOL1        -0.3740
      25    C8      13.705604   19.389638   21.184156 C.3        1 MOL1         0.1003
      26    H12     13.090583   19.029032   20.349332 H          1 MOL1         0.0783
      27    O7      12.855382   19.783230   22.271044 O.3        1 MOL1        -0.5519
      28    H13     13.425463   20.300242   22.884773 H          1 MOL1         0.3769
      29    C9      14.638291   18.237267   21.633902 C.3        1 MOL1         0.1053
      30    H14     15.187084   18.566582   22.527075 H          1 MOL1         0.0783
      31    O8      13.859717   17.076893   21.944928 O.3        1 MOL1        -0.5519
      32    H15     13.110490   17.406509   22.489684 H          1 MOL1         0.3769
      33    C10     15.669656   17.900411   20.532570 C.3        1 MOL1         0.1018
      34    H16     15.141822   17.430214   19.692136 H          1 MOL1         0.0783
      35    C11     16.398618   19.167578   20.017594 C.3        1 MOL1         0.1043
      36    H17     16.996352   19.580050   20.837000 H          1 MOL1         0.0783
      37    O9      15.402241   20.138895   19.619664 O.3        1 MOL1        -0.3740
      38    C12     17.365764   18.922828   18.830536 C.3        1 MOL1         0.0138
      39    H18     18.347929   18.646070   19.234540 H          1 MOL1         0.0794
      40    H19     17.497050   19.867310   18.286251 H          1 MOL1         0.0794
      41    O10     16.914445   17.902612   17.932979 O.3        1 MOL1        -0.5486
      42    H20     17.082174   17.035614   18.370886 H          1 MOL1         0.3769
      43    C13     18.298156   23.901769   22.089939 C.3        1 MOL1         0.2972
      44    H21     18.914678   24.803534   22.200454 H          1 MOL1         0.0751
      45    O11     19.113937   22.728847   21.894195 O.3        1 MOL1        -0.3740
      46    C14     17.422344   23.730742   23.347388 C.3        1 MOL1         0.1003
      47    H22     16.784632   24.620848   23.426424 H          1 MOL1         0.0783
      48    O12     18.241669   23.626649   24.523342 O.3        1 MOL1        -0.5519
      49    H23     19.178911   23.564383   24.213556 H          1 MOL1         0.3769
      50    C15     16.507637   22.497199   23.216136 C.3        1 MOL1         0.1053
      51    H24     17.151517   21.610202   23.258624 H          1 MOL1         0.0783
      52    O13     15.598959   22.481052   24.321988 O.3        1 MOL1        -0.5519
      53    H25     16.162135   22.640678   25.111517 H          1 MOL1         0.3769
      54    C16     15.725417   22.449812   21.873862 C.3        1 MOL1         0.1018
      55    H26     14.842680   23.095395   21.963036 H          1 MOL1         0.0783
      56    C17     16.584648   22.891965   20.638102 C.3        1 MOL1         0.1043
      57    H27     17.223563   22.048485   20.353665 H          1 MOL1         0.0783
      58    O14     17.424467   24.031353   20.956716 O.3        1 MOL1        -0.3740
      59    C18     15.768767   23.322689   19.389145 C.3        1 MOL1         0.0138
      60    H28     15.387673   22.439753   18.865569 H          1 MOL1         0.0794
      61    H29     16.449524   23.825560   18.688800 H          1 MOL1         0.0794
      62    O15     14.682523   24.194004   19.725343 O.3        1 MOL1        -0.5486
      63    H30     14.273743   24.499197   18.885951 H          1 MOL1         0.3769
      64    C19     23.213031   22.262629   20.896132 C.3        1 MOL1         0.2972
      65    H31     24.187410   22.534151   20.469790 H          1 MOL1         0.0751
      66    O16     23.236478   20.929638   21.431529 O.3        1 MOL1        -0.3740
      67    C20     22.868673   23.234868   22.057299 C.3        1 MOL1         0.1003
      68    H32     22.916257   24.254587   21.653643 H          1 MOL1         0.0783
      69    O17     23.827746   23.105459   23.118413 O.3        1 MOL1        -0.5519
      70    H33     24.234372   22.211177   23.016026 H          1 MOL1         0.3769
      71    C21     21.433823   23.004010   22.591639 C.3        1 MOL1         0.1053
      72    H34     21.390526   22.013606   23.066337 H          1 MOL1         0.0783
      73    O18     21.112290   24.023769   23.544512 O.3        1 MOL1        -0.5519
      74    H35     21.902448   24.080332   24.127463 H          1 MOL1         0.3769
      75    C22     20.438299   23.026497   21.409218 C.3        1 MOL1         0.1018
      76    H36     20.473942   24.017652   20.936710 H          1 MOL1         0.0783
      77    C23     20.844678   21.977900   20.346832 C.3        1 MOL1         0.1043
      78    H37     20.847247   20.986321   20.818692 H          1 MOL1         0.0783
      79    O19     22.179168   22.310139   19.884096 O.3        1 MOL1        -0.3740
      80    C24     19.894208   21.914630   19.125373 C.3        1 MOL1         0.0138
      81    H38     19.045734   21.272264   19.388122 H          1 MOL1         0.0794
      82    H39     20.418923   21.428195   18.292312 H          1 MOL1         0.0794
      83    O20     19.414084   23.203739   18.722852 O.3        1 MOL1        -0.5486
      84    H40     18.857963   23.554961   19.455899 H          1 MOL1         0.3769
      85    C25     25.308722   17.323802   21.074791 C.3        1 MOL1         0.2972
      86    H41     25.980311   16.513252   20.764291 H          1 MOL1         0.0751
      87    O21     24.430777   16.900382   22.136356 O.3        1 MOL1        -0.3740
      88    C26     26.130742   18.524381   21.610490 C.3        1 MOL1         0.1003
      89    H42     26.791438   18.863775   20.802115 H          1 MOL1         0.0783
      90    O22     26.920637   18.123415   22.739519 O.3        1 MOL1        -0.5519
      91    H43     26.308905   17.633773   23.335037 H          1 MOL1         0.3769
      92    C27     25.203086   19.699802   22.005286 C.3        1 MOL1         0.1053
      93    H44     24.610986   19.390722   22.877648 H          1 MOL1         0.0783
      94    O23     25.992982   20.845831   22.340023 O.3        1 MOL1        -0.5519
      95    H45     26.702620   20.508312   22.930392 H          1 MOL1         0.3769
      96    C28     24.221548   20.049474   20.861962 C.3        1 MOL1         0.1018
      97    H46     24.785461   20.527277   20.049990 H          1 MOL1         0.0783
      98    C29     23.503276   18.788475   20.308862 C.3        1 MOL1         0.1043
      99    H47     22.851592   18.385887   21.092270 H          1 MOL1         0.0783
     100    O24     24.503948   17.798437   19.969509 O.3        1 MOL1        -0.3740
     101    C30     22.606747   19.035435   19.069174 C.3        1 MOL1         0.0138
     102    H48     21.606354   19.319954   19.418600 H          1 MOL1         0.0794
     103    H49     22.497891   18.089363   18.523143 H          1 MOL1         0.0794
     104    O25     23.115752   20.047073   18.193256 O.3        1 MOL1        -0.5486
     105    H50     22.927723   20.915879   18.619635 H          1 MOL1         0.3769
     106    C31     21.431852   14.042277   22.224648 C.3        1 MOL1         0.2972
     107    H51     20.823036   13.131804   22.301146 H          1 MOL1         0.0751
     108    O26     20.623101   15.191359   21.908669 O.3        1 MOL1        -0.3740
     109    C32     22.166801   14.278880   23.559890 C.3        1 MOL1         0.1003
     110    H52     22.802724   13.403046   23.743627 H          1 MOL1         0.0783
     111    O27     21.226089   14.420270   24.637824 O.3        1 MOL1        -0.5519
     112    H53     20.322228   14.348972   24.242656 H          1 MOL1         0.3769
     113    C33     23.074074   15.522859   23.474127 C.3        1 MOL1         0.1053
     114    H54     22.418137   16.401301   23.404543 H          1 MOL1         0.0783
     115    O28     23.854364   15.601364   24.671588 O.3        1 MOL1        -0.5519
     116    H55     23.209619   15.462556   25.400551 H          1 MOL1         0.3769
     117    C34     23.998871   15.519453   22.224541 C.3        1 MOL1         0.1018
     118    H56     24.853457   14.861169   22.425249 H          1 MOL1         0.0783
     119    C35     23.263114   15.047002   20.921579 C.3        1 MOL1         0.1043
     120    H57     22.639877   15.875404   20.565339 H          1 MOL1         0.0783
     121    O29     22.417664   13.898528   21.189212 O.3        1 MOL1        -0.3740
     122    C36     24.190354   14.604506   19.756995 C.3        1 MOL1         0.0138
     123    H58     24.581484   15.483216   19.233366 H          1 MOL1         0.0794
     124    H59     23.584607   14.055554   19.023151 H          1 MOL1         0.0794
     125    O30     25.274218   13.783197   20.207409 O.3        1 MOL1        -0.5486
     126    H60     25.756360   13.463350   19.413637 H          1 MOL1         0.3769
     127    C1      19.012407   19.926864   24.490510 C.3        1 MOL1        -0.1693
     128    H1      18.153921   20.154422   25.132894 H          1 MOL1         0.0829
     129    H2      19.641357   20.823324   24.416986 H          1 MOL1         0.0829
     130    C2      18.684553   19.253894   23.116903 C.3        1 MOL1        -0.1768
     131    H3      17.789843   18.620643   23.120938 H          1 MOL1         0.0829
     132    H4      18.642027   19.932963   22.260262 H          1 MOL1         0.0829
     133    C3      20.024730   18.477678   23.282793 C.3        1 MOL1         0.1211
     134    H5      20.014432   17.449258   22.907233 H          1 MOL1         0.0786
     135    C4      19.789176   18.609439   24.818355 C.3        1 MOL1        -0.1768
     136    H6      20.688129   18.721770   25.433971 H          1 MOL1         0.0829
     137    H7      19.170109   17.811189   25.245130 H          1 MOL1         0.0829
     138    O1      21.153200   19.159815   22.785795 O.3        1 MOL1        -0.5515
     139    H8      21.929294   18.848385   23.289033 H          1 MOL1         0.3773
@<TRIPOS>BOND
    1     1     2    1
    2     1     3    1
    3     1     4    1
    4     4     5    1
    5     4     6    1
    6     6     7    1
    7     4     8    1
    8     8     9    1
    9     8    10    1
   10    10    11    1
   11     8    12    1
   12    12    13    1
   13    12    14    1
   14    14    15    1
   15     1    16    1
   16    14    16    1
   17    14    17    1
   18    17    18    1
   19    17    19    1
   20    17    20    1
   21    20    21    1
   22    22    23    1
   23    22    24    1
   24    22    25    1
   25    25    26    1
   26    25    27    1
   27    27    28    1
   28    25    29    1
   29    29    30    1
   30    29    31    1
   31    31    32    1
   32     3    33    1
   33    29    33    1
   34    33    34    1
   35    33    35    1
   36    35    36    1
   37    22    37    1
   38    35    37    1
   39    35    38    1
   40    38    39    1
   41    38    40    1
   42    38    41    1
   43    41    42    1
   44    43    44    1
   45    43    45    1
   46    43    46    1
   47    46    47    1
   48    46    48    1
   49    48    49    1
   50    46    50    1
   51    50    51    1
   52    50    52    1
   53    52    53    1
   54    24    54    1
   55    50    54    1
   56    54    55    1
   57    54    56    1
   58    56    57    1
   59    43    58    1
   60    56    58    1
   61    56    59    1
   62    59    60    1
   63    59    61    1
   64    59    62    1
   65    62    63    1
   66    64    65    1
   67    64    66    1
   68    64    67    1
   69    67    68    1
   70    67    69    1
   71    69    70    1
   72    67    71    1
   73    71    72    1
   74    71    73    1
   75    73    74    1
   76    45    75    1
   77    71    75    1
   78    75    76    1
   79    75    77    1
   80    77    78    1
   81    64    79    1
   82    77    79    1
   83    77    80    1
   84    80    81    1
   85    80    82    1
   86    80    83    1
   87    83    84    1
   88    85    86    1
   89    85    87    1
   90    85    88    1
   91    88    89    1
   92    88    90    1
   93    90    91    1
   94    88    92    1
   95    92    93    1
   96    92    94    1
   97    94    95    1
   98    66    96    1
   99    92    96    1
  100    96    97    1
  101    96    98    1
  102    98    99    1
  103    85   100    1
  104    98   100    1
  105    98   101    1
  106   101   102    1
  107   101   103    1
  108   101   104    1
  109   104   105    1
  110   106   107    1
  111    12   108    1
  112   106   108    1
  113   106   109    1
  114   109   110    1
  115   109   111    1
  116   111   112    1
  117   109   113    1
  118   113   114    1
  119   113   115    1
  120   115   116    1
  121    87   117    1
  122   113   117    1
  123   117   118    1
  124   117   119    1
  125   119   120    1
  126   106   121    1
  127   119   121    1
  128   119   122    1
  129   122   123    1
  130   122   124    1
  131   122   125    1
  132   125   126    1
  133   127   128    1
  134   127   129    1
  135   127   130    1
  136   130   131    1
  137   130   132    1
  138   130   133    1
  139   133   134    1
  140   127   135    1
  141   133   135    1
  142   135   136    1
  143   135   137    1
  144   133   138    1
  145   138   139    1
@<TRIPOS>SUBSTRUCTURE
       1 MOL1            1 RESIDUE      1      MOL     
       2 MOL1          139 RESIDUE      1      MOL     
@<SCITEGIC>MOL_PROPERTY
feprocess Rank
SciTegic.value.IntegerValue
208

@<SCITEGIC>MOL_PROPERTY
Conf_Id
SciTegic.value.IntegerValue
163

@<SCITEGIC>MOL_PROPERTY
Probability
SciTegic.value.DoubleValue
0.00

@<SCITEGIC>MOL_PROPERTY
G
SciTegic.value.DoubleValue
552.537

@<SCITEGIC>MOL_PROPERTY
E
SciTegic.value.DoubleValue
376.335

@<SCITEGIC>MOL_PROPERTY
-TS
SciTegic.value.DoubleValue
176.202

@<SCITEGIC>MOL_PROPERTY
U+W
SciTegic.value.DoubleValue
253.824

@<SCITEGIC>MOL_PROPERTY
U
SciTegic.value.DoubleValue
288.490

@<SCITEGIC>MOL_PROPERTY
W
SciTegic.value.DoubleValue
-34.666

@<SCITEGIC>MOL_PROPERTY
W(PB)
SciTegic.value.DoubleValue
-40.489

@<SCITEGIC>MOL_PROPERTY
W(SA)
SciTegic.value.DoubleValue
5.823

@<SCITEGIC>MOL_PROPERTY
Valence
SciTegic.value.DoubleValue
153.563

@<SCITEGIC>MOL_PROPERTY
Coulomb
SciTegic.value.DoubleValue
157.385

@<SCITEGIC>MOL_PROPERTY
VdW
SciTegic.value.DoubleValue
-22.459

@<SCITEGIC>MOL_PROPERTY
VdW6
SciTegic.value.DoubleValue
-169.754

@<SCITEGIC>MOL_PROPERTY
VdW12
SciTegic.value.DoubleValue
147.295

@<SCITEGIC>MOL_PROPERTY
Bond
SciTegic.value.DoubleValue
4.784

@<SCITEGIC>MOL_PROPERTY
Angle
SciTegic.value.DoubleValue
14.241

@<SCITEGIC>MOL_PROPERTY
Pdih
SciTegic.value.DoubleValue
134.538

@<SCITEGIC>MOL_PROPERTY
Idih
SciTegic.value.DoubleValue
0.000

@<SCITEGIC>MOL_PROPERTY
Tether
SciTegic.value.DoubleValue
0.000

@<TRIPOS>MOLECULE
CD_guest-s16_fast_vm2_rndm.mol2 : feprocess host+ligand conformer 209
         139         145           2
SMALL
USER_CHARGES
 
@<TRIPOS>ATOM
       1    C1      16.189826   15.223996   21.408112 C.3        1 MOL1         0.2972
       2    H1      15.130754   14.967223   21.278355 H          1 MOL1         0.0751
       3    O1      16.370372   16.646614   21.546101 O.3        1 MOL1        -0.3740
       4    C2      16.728512   14.552567   22.697895 C.3        1 MOL1         0.1003
       5    H2      16.553919   13.472874   22.603584 H          1 MOL1         0.0783
       6    O2      16.022505   15.046613   23.847654 O.3        1 MOL1        -0.5519
       7    H3      15.732895   15.965824   23.628481 H          1 MOL1         0.3769
       8    C3      18.252363   14.774204   22.860470 C.3        1 MOL1         0.1053
       9    H4      18.432284   15.842705   23.044646 H          1 MOL1         0.0783
      10    O3      18.729053   13.998498   23.965769 O.3        1 MOL1        -0.5519
      11    H5      18.092837   14.176605   24.693844 H          1 MOL1         0.3769
      12    C4      19.001154   14.371229   21.569096 C.3        1 MOL1         0.1018
      13    H6      18.925506   13.282584   21.448933 H          1 MOL1         0.0783
      14    C5      18.383482   15.074561   20.330632 C.3        1 MOL1         0.1043
      15    H7      18.515098   16.156405   20.455290 H          1 MOL1         0.0783
      16    O4      16.965432   14.772527   20.274625 O.3        1 MOL1        -0.3740
      17    C6      19.027693   14.682985   18.976398 C.3        1 MOL1         0.0138
      18    H8      19.944375   15.271414   18.842523 H          1 MOL1         0.0794
      19    H9      18.342231   14.966978   18.167082 H          1 MOL1         0.0794
      20    O5      19.341979   13.289253   18.887115 O.3        1 MOL1        -0.5486
      21    H10     20.266734   13.188329   19.205150 H          1 MOL1         0.3769
      22    C7      14.688295   20.315801   20.569588 C.3        1 MOL1         0.2972
      23    H11     14.068069   21.145404   20.206522 H          1 MOL1         0.0751
      24    O6      15.976648   20.772093   21.039635 O.3        1 MOL1        -0.3740
      25    C8      13.988112   19.558111   21.727830 C.3        1 MOL1         0.1003
      26    H12     13.063041   19.126782   21.323603 H          1 MOL1         0.0783
      27    O7      13.654310   20.438815   22.811031 O.3        1 MOL1        -0.5519
      28    H13     14.463158   20.970655   23.022813 H          1 MOL1         0.3769
      29    C9      14.879361   18.391258   22.222161 C.3        1 MOL1         0.1053
      30    H14     15.789013   18.817709   22.667305 H          1 MOL1         0.0783
      31    O8      14.174180   17.627027   23.205888 O.3        1 MOL1        -0.5519
      32    H15     13.763937   18.293214   23.801437 H          1 MOL1         0.3769
      33    C10     15.298017   17.472220   21.046835 C.3        1 MOL1         0.1018
      34    H16     14.422575   16.880729   20.748655 H          1 MOL1         0.0783
      35    C11     15.819406   18.277710   19.821935 C.3        1 MOL1         0.1043
      36    H17     16.778669   18.717731   20.095350 H          1 MOL1         0.0783
      37    O9      14.901468   19.354152   19.511121 O.3        1 MOL1        -0.3740
      38    C12     16.070429   17.444138   18.539852 C.3        1 MOL1         0.0138
      39    H18     17.093378   17.049184   18.579569 H          1 MOL1         0.0794
      40    H19     16.022570   18.115393   17.672075 H          1 MOL1         0.0794
      41    O10     15.147194   16.362426   18.376340 O.3        1 MOL1        -0.5486
      42    H20     15.507147   15.605374   18.892759 H          1 MOL1         0.3769
      43    C13     18.398151   24.091726   21.558232 C.3        1 MOL1         0.2972
      44    H21     18.816155   25.102321   21.646625 H          1 MOL1         0.0751
      45    O11     19.427815   23.078896   21.608340 O.3        1 MOL1        -0.3740
      46    C14     17.385335   23.842946   22.703633 C.3        1 MOL1         0.1003
      47    H22     16.576466   24.576252   22.588013 H          1 MOL1         0.0783
      48    O12     17.994811   24.023107   23.991033 O.3        1 MOL1        -0.5519
      49    H23     18.950409   23.776451   23.904259 H          1 MOL1         0.3769
      50    C15     16.761317   22.434108   22.590333 C.3        1 MOL1         0.1053
      51    H24     17.553341   21.696579   22.767109 H          1 MOL1         0.0783
      52    O13     15.746052   22.293224   23.587590 O.3        1 MOL1        -0.5519
      53    H25     16.145811   22.666757   24.405512 H          1 MOL1         0.3769
      54    C16     16.164764   22.195482   21.179329 C.3        1 MOL1         0.1018
      55    H26     15.217418   22.745562   21.104621 H          1 MOL1         0.0783
      56    C17     17.129486   22.640357   20.041620 C.3        1 MOL1         0.1043
      57    H27     17.949345   21.915605   19.995900 H          1 MOL1         0.0783
      58    O14     17.686501   23.953533   20.310799 O.3        1 MOL1        -0.3740
      59    C18     16.460441   22.664033   18.646983 C.3        1 MOL1         0.0138
      60    H28     16.260314   21.628458   18.339832 H          1 MOL1         0.0794
      61    H29     17.169979   23.088474   17.924182 H          1 MOL1         0.0794
      62    O15     15.239465   23.414484   18.647615 O.3        1 MOL1        -0.5486
      63    H30     14.902370   23.435718   17.725484 H          1 MOL1         0.3769
      64    C19     23.609792   22.705290   21.606176 C.3        1 MOL1         0.2972
      65    H31     24.682418   22.932975   21.562271 H          1 MOL1         0.0751
      66    O16     23.368752   21.286633   21.679203 O.3        1 MOL1        -0.3740
      67    C20     22.985242   23.362113   22.863100 C.3        1 MOL1         0.1003
      68    H32     23.149195   24.444607   22.782025 H          1 MOL1         0.0783
      69    O17     23.614574   22.882656   24.062126 O.3        1 MOL1        -0.5519
      70    H33     23.978482   21.983165   23.863913 H          1 MOL1         0.3769
      71    C21     21.458587   23.117500   22.917482 C.3        1 MOL1         0.1053
      72    H34     21.282030   22.042163   23.057438 H          1 MOL1         0.0783
      73    O18     20.910049   23.850066   24.016112 O.3        1 MOL1        -0.5519
      74    H35     21.531101   23.685669   24.761503 H          1 MOL1         0.3769
      75    C22     20.790268   23.557532   21.592617 C.3        1 MOL1         0.1018
      76    H36     20.842449   24.652067   21.526866 H          1 MOL1         0.0783
      77    C23     21.509496   22.941517   20.360668 C.3        1 MOL1         0.1043
      78    H37     21.357850   21.857613   20.385052 H          1 MOL1         0.0783
      79    O19     22.933228   23.216669   20.434660 O.3        1 MOL1        -0.3740
      80    C24     20.970434   23.445421   18.997964 C.3        1 MOL1         0.0138
      81    H38     20.036455   22.914426   18.772464 H          1 MOL1         0.0794
      82    H39     21.692386   23.176175   18.215547 H          1 MOL1         0.0794
      83    O20     20.727940   24.856526   18.980980 O.3        1 MOL1        -0.5486
      84    H40     19.823603   24.997329   19.337948 H          1 MOL1         0.3769
      85    C25     25.239789   17.590285   21.210703 C.3        1 MOL1         0.2972
      86    H41     25.939289   16.771250   21.002375 H          1 MOL1         0.0751
      87    O21     23.927600   17.106246   21.552520 O.3        1 MOL1        -0.3740
      88    C26     25.734925   18.435000   22.412069 C.3        1 MOL1         0.1003
      89    H42     26.709901   18.859554   22.139630 H          1 MOL1         0.0783
      90    O22     25.885966   17.615578   23.582377 O.3        1 MOL1        -0.5519
      91    H43     25.137573   16.966153   23.582402 H          1 MOL1         0.3769
      92    C27     24.762479   19.608207   22.693776 C.3        1 MOL1         0.1053
      93    H44     23.806324   19.188909   23.037107 H          1 MOL1         0.0783
      94    O23     25.314581   20.451551   23.709141 O.3        1 MOL1        -0.5519
      95    H45     25.643095   19.833804   24.400484 H          1 MOL1         0.3769
      96    C28     24.496996   20.430684   21.408762 C.3        1 MOL1         0.1018
      97    H46     25.403381   21.000739   21.166536 H          1 MOL1         0.0783
      98    C29     24.128545   19.520201   20.205668 C.3        1 MOL1         0.1043
      99    H47     23.161678   19.056410   20.418655 H          1 MOL1         0.0783
     100    O24     25.119550   18.470381   20.068799 O.3        1 MOL1        -0.3740
     101    C30     23.975053   20.266712   18.855914 C.3        1 MOL1         0.0138
     102    H48     22.952187   20.660918   18.793367 H          1 MOL1         0.0794
     103    H49     24.090362   19.541319   18.039639 H          1 MOL1         0.0794
     104    O25     24.906662   21.342274   18.696181 O.3        1 MOL1        -0.5486
     105    H50     24.526425   22.120710   19.162341 H          1 MOL1         0.3769
     106    C31     21.388571   13.817790   21.474778 C.3        1 MOL1         0.2972
     107    H51     20.964822   12.809983   21.382344 H          1 MOL1         0.0751
     108    O26     20.366704   14.804560   21.721976 O.3        1 MOL1        -0.3740
     109    C32     22.390246   13.857527   22.655818 C.3        1 MOL1         0.1003
     110    H52     23.175068   13.118831   22.447648 H          1 MOL1         0.0783
     111    O27     21.732097   13.514776   23.886118 O.3        1 MOL1        -0.5519
     112    H53     20.819247   13.897376   23.841874 H          1 MOL1         0.3769
     113    C33     23.062399   15.246518   22.769262 C.3        1 MOL1         0.1053
     114    H54     22.292684   15.972073   23.064769 H          1 MOL1         0.0783
     115    O28     24.090838   15.199232   23.764425 O.3        1 MOL1        -0.5519
     116    H55     23.679504   14.740763   24.530856 H          1 MOL1         0.3769
     117    C34     23.659538   15.699376   21.413914 C.3        1 MOL1         0.1018
     118    H56     24.569054   15.118621   21.213992 H          1 MOL1         0.0783
     119    C35     22.643580   15.523722   20.251538 C.3        1 MOL1         0.1043
     120    H57     21.832052   16.241731   20.411099 H          1 MOL1         0.0783
     121    O29     22.092939   14.181494   20.268024 O.3        1 MOL1        -0.3740
     122    C36     23.227526   15.803970   18.845655 C.3        1 MOL1         0.0138
     123    H58     23.358446   16.887819   18.729110 H          1 MOL1         0.0794
     124    H59     22.491585   15.485826   18.095550 H          1 MOL1         0.0794
     125    O30     24.475125   15.137299   18.620903 O.3        1 MOL1        -0.5486
     126    H60     25.184559   15.714874   18.973527 H          1 MOL1         0.3769
     127    C1      19.385076   19.629163   19.584860 C.3        1 MOL1        -0.1693
     128    H1      19.774400   20.619121   19.326581 H          1 MOL1         0.0829
     129    H2      18.553170   19.401010   18.910246 H          1 MOL1         0.0829
     130    C2      19.136586   19.394901   21.114015 C.3        1 MOL1        -0.1768
     131    H3      18.474452   18.560863   21.370979 H          1 MOL1         0.0829
     132    H4      18.840314   20.271726   21.694593 H          1 MOL1         0.0829
     133    C3      20.639868   19.025381   21.187576 C.3        1 MOL1         0.1211
     134    H5      21.297205   19.893307   21.300694 H          1 MOL1         0.0786
     135    C4      20.476256   18.524127   19.718970 C.3        1 MOL1        -0.1768
     136    H6      20.097099   17.502861   19.628888 H          1 MOL1         0.0829
     137    H7      21.349309   18.630465   19.068650 H          1 MOL1         0.0829
     138    O1      20.957814   18.037490   22.133964 O.3        1 MOL1        -0.5515
     139    H8      20.839362   18.430250   23.020084 H          1 MOL1         0.3773
@<TRIPOS>BOND
    1     1     2    1
    2     1     3    1
    3     1     4    1
    4     4     5    1
    5     4     6    1
    6     6     7    1
    7     4     8    1
    8     8     9    1
    9     8    10    1
   10    10    11    1
   11     8    12    1
   12    12    13    1
   13    12    14    1
   14    14    15    1
   15     1    16    1
   16    14    16    1
   17    14    17    1
   18    17    18    1
   19    17    19    1
   20    17    20    1
   21    20    21    1
   22    22    23    1
   23    22    24    1
   24    22    25    1
   25    25    26    1
   26    25    27    1
   27    27    28    1
   28    25    29    1
   29    29    30    1
   30    29    31    1
   31    31    32    1
   32     3    33    1
   33    29    33    1
   34    33    34    1
   35    33    35    1
   36    35    36    1
   37    22    37    1
   38    35    37    1
   39    35    38    1
   40    38    39    1
   41    38    40    1
   42    38    41    1
   43    41    42    1
   44    43    44    1
   45    43    45    1
   46    43    46    1
   47    46    47    1
   48    46    48    1
   49    48    49    1
   50    46    50    1
   51    50    51    1
   52    50    52    1
   53    52    53    1
   54    24    54    1
   55    50    54    1
   56    54    55    1
   57    54    56    1
   58    56    57    1
   59    43    58    1
   60    56    58    1
   61    56    59    1
   62    59    60    1
   63    59    61    1
   64    59    62    1
   65    62    63    1
   66    64    65    1
   67    64    66    1
   68    64    67    1
   69    67    68    1
   70    67    69    1
   71    69    70    1
   72    67    71    1
   73    71    72    1
   74    71    73    1
   75    73    74    1
   76    45    75    1
   77    71    75    1
   78    75    76    1
   79    75    77    1
   80    77    78    1
   81    64    79    1
   82    77    79    1
   83    77    80    1
   84    80    81    1
   85    80    82    1
   86    80    83    1
   87    83    84    1
   88    85    86    1
   89    85    87    1
   90    85    88    1
   91    88    89    1
   92    88    90    1
   93    90    91    1
   94    88    92    1
   95    92    93    1
   96    92    94    1
   97    94    95    1
   98    66    96    1
   99    92    96    1
  100    96    97    1
  101    96    98    1
  102    98    99    1
  103    85   100    1
  104    98   100    1
  105    98   101    1
  106   101   102    1
  107   101   103    1
  108   101   104    1
  109   104   105    1
  110   106   107    1
  111    12   108    1
  112   106   108    1
  113   106   109    1
  114   109   110    1
  115   109   111    1
  116   111   112    1
  117   109   113    1
  118   113   114    1
  119   113   115    1
  120   115   116    1
  121    87   117    1
  122   113   117    1
  123   117   118    1
  124   117   119    1
  125   119   120    1
  126   106   121    1
  127   119   121    1
  128   119   122    1
  129   122   123    1
  130   122   124    1
  131   122   125    1
  132   125   126    1
  133   127   128    1
  134   127   129    1
  135   127   130    1
  136   130   131    1
  137   130   132    1
  138   130   133    1
  139   133   134    1
  140   127   135    1
  141   133   135    1
  142   135   136    1
  143   135   137    1
  144   133   138    1
  145   138   139    1
@<TRIPOS>SUBSTRUCTURE
       1 MOL1            1 RESIDUE      1      MOL     
       2 MOL1          139 RESIDUE      1      MOL     
@<SCITEGIC>MOL_PROPERTY
feprocess Rank
SciTegic.value.IntegerValue
209

@<SCITEGIC>MOL_PROPERTY
Conf_Id
SciTegic.value.IntegerValue
662

@<SCITEGIC>MOL_PROPERTY
Probability
SciTegic.value.DoubleValue
0.00

@<SCITEGIC>MOL_PROPERTY
G
SciTegic.value.DoubleValue
552.540

@<SCITEGIC>MOL_PROPERTY
E
SciTegic.value.DoubleValue
376.062

@<SCITEGIC>MOL_PROPERTY
-TS
SciTegic.value.DoubleValue
176.479

@<SCITEGIC>MOL_PROPERTY
U+W
SciTegic.value.DoubleValue
253.550

@<SCITEGIC>MOL_PROPERTY
U
SciTegic.value.DoubleValue
292.683

@<SCITEGIC>MOL_PROPERTY
W
SciTegic.value.DoubleValue
-39.133

@<SCITEGIC>MOL_PROPERTY
W(PB)
SciTegic.value.DoubleValue
-45.061

@<SCITEGIC>MOL_PROPERTY
W(SA)
SciTegic.value.DoubleValue
5.928

@<SCITEGIC>MOL_PROPERTY
Valence
SciTegic.value.DoubleValue
158.440

@<SCITEGIC>MOL_PROPERTY
Coulomb
SciTegic.value.DoubleValue
157.114

@<SCITEGIC>MOL_PROPERTY
VdW
SciTegic.value.DoubleValue
-22.872

@<SCITEGIC>MOL_PROPERTY
VdW6
SciTegic.value.DoubleValue
-168.462

@<SCITEGIC>MOL_PROPERTY
VdW12
SciTegic.value.DoubleValue
145.590

@<SCITEGIC>MOL_PROPERTY
Bond
SciTegic.value.DoubleValue
4.718

@<SCITEGIC>MOL_PROPERTY
Angle
SciTegic.value.DoubleValue
11.670

@<SCITEGIC>MOL_PROPERTY
Pdih
SciTegic.value.DoubleValue
142.052

@<SCITEGIC>MOL_PROPERTY
Idih
SciTegic.value.DoubleValue
0.000

@<SCITEGIC>MOL_PROPERTY
Tether
SciTegic.value.DoubleValue
0.000

@<TRIPOS>MOLECULE
CD_guest-s16_fast_vm2_rndm.mol2 : feprocess host+ligand conformer 210
         139         145           2
SMALL
USER_CHARGES
 
@<TRIPOS>ATOM
       1    C1      16.231962   14.917920   21.832353 C.3        1 MOL1         0.2972
       2    H1      15.136422   14.968124   21.880262 H          1 MOL1         0.0751
       3    O1      16.823248   16.228377   21.725805 O.3        1 MOL1        -0.3740
       4    C2      16.766693   14.210850   23.094162 C.3        1 MOL1         0.1003
       5    H2      16.357722   13.192024   23.100019 H          1 MOL1         0.0783
       6    O2      16.342017   14.900629   24.280986 O.3        1 MOL1        -0.5519
       7    H3      16.072901   15.812741   24.005958 H          1 MOL1         0.3769
       8    C3      18.304263   14.107624   23.051887 C.3        1 MOL1         0.1053
       9    H4      18.702078   15.124986   23.165276 H          1 MOL1         0.0783
      10    O3      18.738747   13.298507   24.149938 O.3        1 MOL1        -0.5519
      11    H5      18.250539   13.646660   24.928821 H          1 MOL1         0.3769
      12    C4      18.844580   13.534758   21.711344 C.3        1 MOL1         0.1018
      13    H6      18.766829   12.440766   21.743463 H          1 MOL1         0.0783
      14    C5      18.081908   14.080042   20.451582 C.3        1 MOL1         0.1043
      15    H7      18.457506   15.087939   20.240399 H          1 MOL1         0.0783
      16    O4      16.652658   14.151866   20.692779 O.3        1 MOL1        -0.3740
      17    C6      18.237932   13.229832   19.161761 C.3        1 MOL1         0.0138
      18    H8      19.209896   13.428347   18.697149 H          1 MOL1         0.0794
      19    H9      17.478633   13.557726   18.438733 H          1 MOL1         0.0794
      20    O5      18.097199   11.827217   19.415908 O.3        1 MOL1        -0.5486
      21    H10     18.109534   11.363892   18.549859 H          1 MOL1         0.3769
      22    C7      15.471795   20.114202   20.861908 C.3        1 MOL1         0.2972
      23    H11     14.817088   20.927603   20.522601 H          1 MOL1         0.0751
      24    O6      16.766485   20.611560   21.245275 O.3        1 MOL1        -0.3740
      25    C8      14.830485   19.414337   22.088112 C.3        1 MOL1         0.1003
      26    H12     13.832983   19.072625   21.782608 H          1 MOL1         0.0783
      27    O7      14.700911   20.329068   23.188793 O.3        1 MOL1        -0.5519
      28    H13     15.005143   21.212292   22.863774 H          1 MOL1         0.3769
      29    C9      15.652154   18.178735   22.517590 C.3        1 MOL1         0.1053
      30    H14     16.620603   18.528039   22.897163 H          1 MOL1         0.0783
      31    O8      14.949656   17.470611   23.543751 O.3        1 MOL1        -0.5519
      32    H15     14.641860   18.169897   24.163570 H          1 MOL1         0.3769
      33    C10     15.908671   17.256957   21.304523 C.3        1 MOL1         0.1018
      34    H16     14.947874   16.841923   20.971528 H          1 MOL1         0.0783
      35    C11     16.540965   18.038156   20.123587 C.3        1 MOL1         0.1043
      36    H17     17.519383   18.415608   20.441144 H          1 MOL1         0.0783
      37    O9      15.676057   19.154816   19.798569 O.3        1 MOL1        -0.3740
      38    C12     16.769668   17.195959   18.841598 C.3        1 MOL1         0.0138
      39    H18     17.748473   16.707237   18.916049 H          1 MOL1         0.0794
      40    H19     16.819696   17.874482   17.979422 H          1 MOL1         0.0794
      41    O10     15.756451   16.205514   18.629827 O.3        1 MOL1        -0.5486
      42    H20     15.908674   15.485959   19.285759 H          1 MOL1         0.3769
      43    C13     18.758704   24.309377   20.792890 C.3        1 MOL1         0.2972
      44    H21     19.061171   25.275240   20.368739 H          1 MOL1         0.0751
      45    O11     19.545697   23.987025   21.953785 O.3        1 MOL1        -0.3740
      46    C14     17.274926   24.370821   21.248992 C.3        1 MOL1         0.1003
      47    H22     16.673294   24.657878   20.376771 H          1 MOL1         0.0783
      48    O12     17.111668   25.351851   22.283378 O.3        1 MOL1        -0.5519
      49    H23     17.829820   25.174672   22.933106 H          1 MOL1         0.3769
      50    C15     16.773558   22.991262   21.746519 C.3        1 MOL1         0.1053
      51    H24     17.308903   22.739130   22.672438 H          1 MOL1         0.0783
      52    O13     15.365022   23.060099   21.998737 O.3        1 MOL1        -0.5519
      53    H25     15.234680   23.899724   22.493988 H          1 MOL1         0.3769
      54    C16     17.085510   21.901682   20.694156 C.3        1 MOL1         0.1018
      55    H26     16.499086   22.106560   19.788219 H          1 MOL1         0.0783
      56    C17     18.584554   21.912920   20.313646 C.3        1 MOL1         0.1043
      57    H27     19.180418   21.695263   21.209361 H          1 MOL1         0.0783
      58    O14     18.903313   23.238763   19.825326 O.3        1 MOL1        -0.3740
      59    C18     18.969130   20.863995   19.238638 C.3        1 MOL1         0.0138
      60    H28     19.184071   19.916228   19.747697 H          1 MOL1         0.0794
      61    H29     19.896527   21.184703   18.747815 H          1 MOL1         0.0794
      62    O15     17.943148   20.656593   18.259966 O.3        1 MOL1        -0.5486
      63    H30     17.165183   20.269983   18.724109 H          1 MOL1         0.3769
      64    C19     23.517438   22.989560   22.301185 C.3        1 MOL1         0.2972
      65    H31     24.606616   22.923127   22.420960 H          1 MOL1         0.0751
      66    O16     22.922843   21.689658   22.114188 O.3        1 MOL1        -0.3740
      67    C20     22.909676   23.667165   23.545938 C.3        1 MOL1         0.1003
      68    H32     23.341342   24.674363   23.613077 H          1 MOL1         0.0783
      69    O17     23.241480   22.929308   24.733593 O.3        1 MOL1        -0.5519
      70    H33     23.516345   22.023552   24.444864 H          1 MOL1         0.3769
      71    C21     21.379860   23.815488   23.409950 C.3        1 MOL1         0.1053
      72    H34     20.943729   22.811765   23.498974 H          1 MOL1         0.0783
      73    O18     20.905317   24.636264   24.482815 O.3        1 MOL1        -0.5519
      74    H35     21.295171   24.242863   25.294439 H          1 MOL1         0.3769
      75    C22     20.930569   24.407782   22.043489 C.3        1 MOL1         0.1018
      76    H36     20.996546   25.501510   22.099955 H          1 MOL1         0.0783
      77    C23     21.776506   23.892598   20.826117 C.3        1 MOL1         0.1043
      78    H37     21.405875   22.896360   20.560589 H          1 MOL1         0.0783
      79    O19     23.184609   23.796056   21.161373 O.3        1 MOL1        -0.3740
      80    C24     21.716762   24.782533   19.555142 C.3        1 MOL1         0.0138
      81    H38     20.770325   24.621076   19.027888 H          1 MOL1         0.0794
      82    H39     22.510915   24.457662   18.869170 H          1 MOL1         0.0794
      83    O20     21.872575   26.173592   19.859239 O.3        1 MOL1        -0.5486
      84    H40     21.920828   26.661950   19.008351 H          1 MOL1         0.3769
      85    C25     24.340686   17.840221   21.139359 C.3        1 MOL1         0.2972
      86    H41     25.033641   17.061102   20.795375 H          1 MOL1         0.0751
      87    O21     23.039240   17.292847   21.414213 O.3        1 MOL1        -0.3740
      88    C26     24.895987   18.483104   22.437805 C.3        1 MOL1         0.1003
      89    H42     25.906987   18.846084   22.211287 H          1 MOL1         0.0783
      90    O22     24.969709   17.512830   23.495362 O.3        1 MOL1        -0.5519
      91    H43     24.710759   16.642469   23.104278 H          1 MOL1         0.3769
      92    C27     24.040958   19.692779   22.879873 C.3        1 MOL1         0.1053
      93    H44     23.055167   19.321774   23.189354 H          1 MOL1         0.0783
      94    O23     24.679934   20.356674   23.974985 O.3        1 MOL1        -0.5519
      95    H45     24.951530   19.632540   24.582870 H          1 MOL1         0.3769
      96    C28     23.849550   20.669268   21.697503 C.3        1 MOL1         0.1018
      97    H46     24.828082   21.090164   21.429644 H          1 MOL1         0.0783
      98    C29     23.275806   19.938359   20.456585 C.3        1 MOL1         0.1043
      99    H47     22.287355   19.538598   20.715830 H          1 MOL1         0.0783
     100    O24     24.170953   18.849629   20.118289 O.3        1 MOL1        -0.3740
     101    C30     23.102125   20.834237   19.203023 C.3        1 MOL1         0.0138
     102    H48     22.125448   21.327717   19.259426 H          1 MOL1         0.0794
     103    H49     23.080659   20.192376   18.312107 H          1 MOL1         0.0794
     104    O25     24.130624   21.822729   19.071334 O.3        1 MOL1        -0.5486
     105    H50     23.962668   22.513858   19.753555 H          1 MOL1         0.3769
     106    C31     21.094771   13.646272   20.612099 C.3        1 MOL1         0.2972
     107    H51     20.808888   12.700886   20.133674 H          1 MOL1         0.0751
     108    O26     20.235076   13.945580   21.727176 O.3        1 MOL1        -0.3740
     109    C32     22.542917   13.547712   21.164448 C.3        1 MOL1         0.1003
     110    H52     23.202510   13.299756   20.322609 H          1 MOL1         0.0783
     111    O27     22.629044   12.515919   22.157857 O.3        1 MOL1        -0.5519
     112    H53     21.865412   12.660430   22.761811 H          1 MOL1         0.3769
     113    C33     23.011487   14.897519   21.763945 C.3        1 MOL1         0.1053
     114    H54     22.412350   15.106112   22.661200 H          1 MOL1         0.0783
     115    O28     24.397673   14.812330   22.114233 O.3        1 MOL1        -0.5519
     116    H55     24.494946   13.945623   22.568942 H          1 MOL1         0.3769
     117    C34     22.778937   16.043262   20.751721 C.3        1 MOL1         0.1018
     118    H56     23.444071   15.895080   19.890099 H          1 MOL1         0.0783
     119    C35     21.317196   16.056434   20.243159 C.3        1 MOL1         0.1043
     120    H57     20.648592   16.242846   21.093513 H          1 MOL1         0.0783
     121    O29     21.032731   14.753592   19.678768 O.3        1 MOL1        -0.3740
     122    C36     21.025216   17.149343   19.182664 C.3        1 MOL1         0.0138
     123    H58     20.778377   18.080702   19.707329 H          1 MOL1         0.0794
     124    H59     20.135311   16.856967   18.610418 H          1 MOL1         0.0794
     125    O30     22.126009   17.381429   18.295501 O.3        1 MOL1        -0.5486
     126    H60     22.858206   17.771935   18.826291 H          1 MOL1         0.3769
     127    C1      19.426570   18.004991   24.146067 C.3        1 MOL1        -0.1693
     128    H1      19.720358   16.962090   24.311947 H          1 MOL1         0.0829
     129    H2      18.358288   18.104007   24.372955 H          1 MOL1         0.0829
     130    C2      19.879439   18.635023   22.787706 C.3        1 MOL1        -0.1768
     131    H3      20.813817   18.225247   22.393257 H          1 MOL1         0.0829
     132    H4      19.133021   18.645414   21.989011 H          1 MOL1         0.0829
     133    C3      20.061678   19.971498   23.567245 C.3        1 MOL1         0.1211
     134    H5      20.912683   20.579203   23.241784 H          1 MOL1         0.0786
     135    C4      20.340410   19.082842   24.817614 C.3        1 MOL1        -0.1768
     136    H6      21.388953   18.781673   24.928556 H          1 MOL1         0.0829
     137    H7      19.990286   19.484284   25.774914 H          1 MOL1         0.0829
     138    O1      18.905251   20.773116   23.648055 O.3        1 MOL1        -0.5515
     139    H8      18.161512   20.178004   23.861105 H          1 MOL1         0.3773
@<TRIPOS>BOND
    1     1     2    1
    2     1     3    1
    3     1     4    1
    4     4     5    1
    5     4     6    1
    6     6     7    1
    7     4     8    1
    8     8     9    1
    9     8    10    1
   10    10    11    1
   11     8    12    1
   12    12    13    1
   13    12    14    1
   14    14    15    1
   15     1    16    1
   16    14    16    1
   17    14    17    1
   18    17    18    1
   19    17    19    1
   20    17    20    1
   21    20    21    1
   22    22    23    1
   23    22    24    1
   24    22    25    1
   25    25    26    1
   26    25    27    1
   27    27    28    1
   28    25    29    1
   29    29    30    1
   30    29    31    1
   31    31    32    1
   32     3    33    1
   33    29    33    1
   34    33    34    1
   35    33    35    1
   36    35    36    1
   37    22    37    1
   38    35    37    1
   39    35    38    1
   40    38    39    1
   41    38    40    1
   42    38    41    1
   43    41    42    1
   44    43    44    1
   45    43    45    1
   46    43    46    1
   47    46    47    1
   48    46    48    1
   49    48    49    1
   50    46    50    1
   51    50    51    1
   52    50    52    1
   53    52    53    1
   54    24    54    1
   55    50    54    1
   56    54    55    1
   57    54    56    1
   58    56    57    1
   59    43    58    1
   60    56    58    1
   61    56    59    1
   62    59    60    1
   63    59    61    1
   64    59    62    1
   65    62    63    1
   66    64    65    1
   67    64    66    1
   68    64    67    1
   69    67    68    1
   70    67    69    1
   71    69    70    1
   72    67    71    1
   73    71    72    1
   74    71    73    1
   75    73    74    1
   76    45    75    1
   77    71    75    1
   78    75    76    1
   79    75    77    1
   80    77    78    1
   81    64    79    1
   82    77    79    1
   83    77    80    1
   84    80    81    1
   85    80    82    1
   86    80    83    1
   87    83    84    1
   88    85    86    1
   89    85    87    1
   90    85    88    1
   91    88    89    1
   92    88    90    1
   93    90    91    1
   94    88    92    1
   95    92    93    1
   96    92    94    1
   97    94    95    1
   98    66    96    1
   99    92    96    1
  100    96    97    1
  101    96    98    1
  102    98    99    1
  103    85   100    1
  104    98   100    1
  105    98   101    1
  106   101   102    1
  107   101   103    1
  108   101   104    1
  109   104   105    1
  110   106   107    1
  111    12   108    1
  112   106   108    1
  113   106   109    1
  114   109   110    1
  115   109   111    1
  116   111   112    1
  117   109   113    1
  118   113   114    1
  119   113   115    1
  120   115   116    1
  121    87   117    1
  122   113   117    1
  123   117   118    1
  124   117   119    1
  125   119   120    1
  126   106   121    1
  127   119   121    1
  128   119   122    1
  129   122   123    1
  130   122   124    1
  131   122   125    1
  132   125   126    1
  133   127   128    1
  134   127   129    1
  135   127   130    1
  136   130   131    1
  137   130   132    1
  138   130   133    1
  139   133   134    1
  140   127   135    1
  141   133   135    1
  142   135   136    1
  143   135   137    1
  144   133   138    1
  145   138   139    1
@<TRIPOS>SUBSTRUCTURE
       1 MOL1            1 RESIDUE      1      MOL     
       2 MOL1          139 RESIDUE      1      MOL     
@<SCITEGIC>MOL_PROPERTY
feprocess Rank
SciTegic.value.IntegerValue
210

@<SCITEGIC>MOL_PROPERTY
Conf_Id
SciTegic.value.IntegerValue
135

@<SCITEGIC>MOL_PROPERTY
Probability
SciTegic.value.DoubleValue
0.00

@<SCITEGIC>MOL_PROPERTY
G
SciTegic.value.DoubleValue
553.003

@<SCITEGIC>MOL_PROPERTY
E
SciTegic.value.DoubleValue
375.952

@<SCITEGIC>MOL_PROPERTY
-TS
SciTegic.value.DoubleValue
177.051

@<SCITEGIC>MOL_PROPERTY
U+W
SciTegic.value.DoubleValue
253.440

@<SCITEGIC>MOL_PROPERTY
U
SciTegic.value.DoubleValue
288.384

@<SCITEGIC>MOL_PROPERTY
W
SciTegic.value.DoubleValue
-34.944

@<SCITEGIC>MOL_PROPERTY
W(PB)
SciTegic.value.DoubleValue
-40.787

@<SCITEGIC>MOL_PROPERTY
W(SA)
SciTegic.value.DoubleValue
5.843

@<SCITEGIC>MOL_PROPERTY
Valence
SciTegic.value.DoubleValue
153.786

@<SCITEGIC>MOL_PROPERTY
Coulomb
SciTegic.value.DoubleValue
156.823

@<SCITEGIC>MOL_PROPERTY
VdW
SciTegic.value.DoubleValue
-22.225

@<SCITEGIC>MOL_PROPERTY
VdW6
SciTegic.value.DoubleValue
-169.756

@<SCITEGIC>MOL_PROPERTY
VdW12
SciTegic.value.DoubleValue
147.532

@<SCITEGIC>MOL_PROPERTY
Bond
SciTegic.value.DoubleValue
4.878

@<SCITEGIC>MOL_PROPERTY
Angle
SciTegic.value.DoubleValue
13.958

@<SCITEGIC>MOL_PROPERTY
Pdih
SciTegic.value.DoubleValue
134.950

@<SCITEGIC>MOL_PROPERTY
Idih
SciTegic.value.DoubleValue
0.000

@<SCITEGIC>MOL_PROPERTY
Tether
SciTegic.value.DoubleValue
0.000

@<TRIPOS>MOLECULE
CD_guest-s16_fast_vm2_rndm.mol2 : feprocess host+ligand conformer 211
         139         145           2
SMALL
USER_CHARGES
 
@<TRIPOS>ATOM
       1    C1      16.234248   15.216765   21.654319 C.3        1 MOL1         0.2972
       2    H1      15.165631   15.062310   21.851735 H          1 MOL1         0.0751
       3    O1      16.509314   16.581776   21.272635 O.3        1 MOL1        -0.3740
       4    C2      17.071781   14.845345   22.907265 C.3        1 MOL1         0.1003
       5    H2      16.888421   13.782873   23.114235 H          1 MOL1         0.0783
       6    O2      16.692882   15.616841   24.057975 O.3        1 MOL1        -0.5519
       7    H3      15.928447   16.184312   23.792254 H          1 MOL1         0.3769
       8    C3      18.581641   15.023300   22.634416 C.3        1 MOL1         0.1053
       9    H4      18.761293   16.091936   22.481785 H          1 MOL1         0.0783
      10    O3      19.316841   14.567489   23.773618 O.3        1 MOL1        -0.5519
      11    H5      18.838505   14.953424   24.542316 H          1 MOL1         0.3769
      12    C4      19.031829   14.270310   21.357361 C.3        1 MOL1         0.1018
      13    H6      19.085747   13.197219   21.584018 H          1 MOL1         0.0783
      14    C5      18.061378   14.515443   20.163825 C.3        1 MOL1         0.1043
      15    H7      18.210514   15.543481   19.811032 H          1 MOL1         0.0783
      16    O4      16.677309   14.359974   20.578949 O.3        1 MOL1        -0.3740
      17    C6      18.320535   13.578444   18.960108 C.3        1 MOL1         0.0138
      18    H8      19.267494   13.872910   18.487648 H          1 MOL1         0.0794
      19    H9      17.524558   13.731571   18.219058 H          1 MOL1         0.0794
      20    O5      18.380656   12.200697   19.350316 O.3        1 MOL1        -0.5486
      21    H10     18.467543   11.663056   18.532959 H          1 MOL1         0.3769
      22    C7      14.674409   20.323284   21.064721 C.3        1 MOL1         0.2972
      23    H11     13.972107   21.151625   20.906824 H          1 MOL1         0.0751
      24    O6      15.981478   20.799194   21.445161 O.3        1 MOL1        -0.3740
      25    C8      14.155448   19.411221   22.201782 C.3        1 MOL1         0.1003
      26    H12     13.167808   19.039544   21.898932 H          1 MOL1         0.0783
      27    O7      14.026256   20.158998   23.421655 O.3        1 MOL1        -0.5519
      28    H13     14.728772   20.855524   23.406813 H          1 MOL1         0.3769
      29    C9      15.080147   18.187477   22.414514 C.3        1 MOL1         0.1053
      30    H14     16.032531   18.546252   22.828693 H          1 MOL1         0.0783
      31    O8      14.448128   17.298865   23.340554 O.3        1 MOL1        -0.5519
      32    H15     14.087039   17.884878   24.044517 H          1 MOL1         0.3769
      33    C10     15.375630   17.455583   21.077709 C.3        1 MOL1         0.1018
      34    H16     14.483438   16.895340   20.769846 H          1 MOL1         0.0783
      35    C11     15.765607   18.447870   19.944761 C.3        1 MOL1         0.1043
      36    H17     16.744968   18.876156   20.183378 H          1 MOL1         0.0783
      37    O9      14.801347   19.527022   19.866848 O.3        1 MOL1        -0.3740
      38    C12     15.896182   17.784307   18.551283 C.3        1 MOL1         0.0138
      39    H18     16.837095   17.218631   18.521767 H          1 MOL1         0.0794
      40    H19     15.970279   18.574842   17.792833 H          1 MOL1         0.0794
      41    O10     14.801637   16.912199   18.246591 O.3        1 MOL1        -0.5486
      42    H20     14.922617   16.094168   18.775677 H          1 MOL1         0.3769
      43    C13     18.420725   24.188719   21.216276 C.3        1 MOL1         0.2972
      44    H21     18.809893   25.200101   21.045193 H          1 MOL1         0.0751
      45    O11     19.456134   23.285739   21.651668 O.3        1 MOL1        -0.3740
      46    C14     17.331306   24.218384   22.319561 C.3        1 MOL1         0.1003
      47    H22     16.537110   24.896112   21.980658 H          1 MOL1         0.0783
      48    O12     17.881482   24.711106   23.552029 O.3        1 MOL1        -0.5519
      49    H23     18.798645   24.344679   23.623948 H          1 MOL1         0.3769
      50    C15     16.704760   22.816531   22.529108 C.3        1 MOL1         0.1053
      51    H24     17.470495   22.167693   22.972891 H          1 MOL1         0.0783
      52    O13     15.585387   22.916410   23.416711 O.3        1 MOL1        -0.5519
      53    H25     15.906367   23.458621   24.171129 H          1 MOL1         0.3769
      54    C16     16.252871   22.192804   21.184938 C.3        1 MOL1         0.1018
      55    H26     15.361341   22.730899   20.837347 H          1 MOL1         0.0783
      56    C17     17.365260   22.288620   20.105360 C.3        1 MOL1         0.1043
      57    H27     18.196734   21.659020   20.432579 H          1 MOL1         0.0783
      58    O14     17.828577   23.658731   20.009976 O.3        1 MOL1        -0.3740
      59    C18     16.956861   21.799275   18.692638 C.3        1 MOL1         0.0138
      60    H28     17.116845   20.715009   18.640804 H          1 MOL1         0.0794
      61    H29     17.631015   22.256449   17.956277 H          1 MOL1         0.0794
      62    O15     15.595769   22.096005   18.363101 O.3        1 MOL1        -0.5486
      63    H30     15.051958   21.357896   18.721676 H          1 MOL1         0.3769
      64    C19     23.597137   22.765645   21.706007 C.3        1 MOL1         0.2972
      65    H31     24.679172   22.941125   21.656438 H          1 MOL1         0.0751
      66    O16     23.294909   21.368181   21.900043 O.3        1 MOL1        -0.3740
      67    C20     22.996696   23.564867   22.890499 C.3        1 MOL1         0.1003
      68    H32     23.232184   24.623927   22.723000 H          1 MOL1         0.0783
      69    O17     23.581578   23.144220   24.133537 O.3        1 MOL1        -0.5519
      70    H33     23.802909   22.183094   24.043003 H          1 MOL1         0.3769
      71    C21     21.456429   23.426503   22.941395 C.3        1 MOL1         0.1053
      72    H34     21.212647   22.388643   23.204414 H          1 MOL1         0.0783
      73    O18     20.930786   24.311865   23.936549 O.3        1 MOL1        -0.5519
      74    H35     21.498973   24.171615   24.726535 H          1 MOL1         0.3769
      75    C22     20.818328   23.744865   21.567493 C.3        1 MOL1         0.1018
      76    H36     20.880188   24.827658   21.397968 H          1 MOL1         0.0783
      77    C23     21.528512   22.985085   20.410833 C.3        1 MOL1         0.1043
      78    H37     21.326340   21.916333   20.533361 H          1 MOL1         0.0783
      79    O19     22.961045   23.202927   20.485123 O.3        1 MOL1        -0.3740
      80    C24     21.043367   23.371013   18.992094 C.3        1 MOL1         0.0138
      81    H38     20.083901   22.872524   18.802204 H          1 MOL1         0.0794
      82    H39     21.760343   22.975719   18.260378 H          1 MOL1         0.0794
      83    O20     20.896595   24.784839   18.819468 O.3        1 MOL1        -0.5486
      84    H40     19.960192   25.004185   19.014465 H          1 MOL1         0.3769
      85    C25     25.147390   17.607046   21.553963 C.3        1 MOL1         0.2972
      86    H41     25.902914   16.824529   21.408578 H          1 MOL1         0.0751
      87    O21     23.836659   17.041224   21.744211 O.3        1 MOL1        -0.3740
      88    C26     25.475971   18.422884   22.831059 C.3        1 MOL1         0.1003
      89    H42     26.483547   18.841018   22.708209 H          1 MOL1         0.0783
      90    O22     25.452942   17.565544   23.983590 O.3        1 MOL1        -0.5519
      91    H43     24.746213   16.894836   23.819992 H          1 MOL1         0.3769
      92    C27     24.486692   19.600919   23.017128 C.3        1 MOL1         0.1053
      93    H44     23.491392   19.187671   23.231007 H          1 MOL1         0.0783
      94    O23     24.918343   20.419160   24.109200 O.3        1 MOL1        -0.5519
      95    H45     25.136074   19.787810   24.830892 H          1 MOL1         0.3769
      96    C28     24.394212   20.449297   21.727220 C.3        1 MOL1         0.1018
      97    H46     25.350420   20.970716   21.588354 H          1 MOL1         0.0783
      98    C29     24.112233   19.555961   20.489022 C.3        1 MOL1         0.1043
      99    H47     23.126241   19.097140   20.619330 H          1 MOL1         0.0783
     100    O24     25.111372   18.505969   20.421152 O.3        1 MOL1        -0.3740
     101    C30     24.086846   20.315393   19.137533 C.3        1 MOL1         0.0138
     102    H48     23.086658   20.746062   18.999159 H          1 MOL1         0.0794
     103    H49     24.240782   19.593061   18.325245 H          1 MOL1         0.0794
     104    O25     25.065868   21.356629   19.058194 O.3        1 MOL1        -0.5486
     105    H50     24.643364   22.169460   19.417028 H          1 MOL1         0.3769
     106    C31     21.365898   13.867350   20.651404 C.3        1 MOL1         0.2972
     107    H51     20.947951   12.925718   20.272762 H          1 MOL1         0.0751
     108    O26     20.321374   14.808591   20.984828 O.3        1 MOL1        -0.3740
     109    C32     22.268627   13.621476   21.890727 C.3        1 MOL1         0.1003
     110    H52     23.093907   12.975689   21.563576 H          1 MOL1         0.0783
     111    O27     21.559484   12.960140   22.948643 O.3        1 MOL1        -0.5519
     112    H53     20.804329   13.548202   23.204287 H          1 MOL1         0.3769
     113    C33     22.881497   14.953239   22.390428 C.3        1 MOL1         0.1053
     114    H54     22.062735   15.588621   22.755908 H          1 MOL1         0.0783
     115    O28     23.801887   14.689961   23.455241 O.3        1 MOL1        -0.5519
     116    H55     23.341330   14.048890   24.040994 H          1 MOL1         0.3769
     117    C34     23.609210   15.706019   21.246598 C.3        1 MOL1         0.1018
     118    H56     24.548956   15.180307   21.033011 H          1 MOL1         0.0783
     119    C35     22.738128   15.784389   19.958270 C.3        1 MOL1         0.1043
     120    H57     21.907678   16.465032   20.161501 H          1 MOL1         0.0783
     121    O29     22.204803   14.473077   19.642379 O.3        1 MOL1        -0.3740
     122    C36     23.456442   16.329924   18.698427 C.3        1 MOL1         0.0138
     123    H58     23.363006   17.422419   18.690552 H          1 MOL1         0.0794
     124    H59     22.927050   15.962143   17.809308 H          1 MOL1         0.0794
     125    O30     24.838927   15.965067   18.631010 O.3        1 MOL1        -0.5486
     126    H60     25.338015   16.672115   19.098122 H          1 MOL1         0.3769
     127    C1      19.624012   18.041804   20.733647 C.3        1 MOL1        -0.1693
     128    H1      19.918261   17.231549   20.061591 H          1 MOL1         0.0829
     129    H2      18.551931   17.959237   20.913592 H          1 MOL1         0.0829
     130    C2      20.114825   19.466057   20.332898 C.3        1 MOL1        -0.1768
     131    H3      21.084426   19.481545   19.826230 H          1 MOL1         0.0829
     132    H4      19.414530   20.059603   19.741546 H          1 MOL1         0.0829
     133    C3      20.177271   19.760807   21.866496 C.3        1 MOL1         0.1211
     134    H5      20.993200   20.415390   22.186501 H          1 MOL1         0.0786
     135    C4      20.471716   18.243470   22.033650 C.3        1 MOL1        -0.1768
     136    H6      21.527596   17.984318   21.939954 H          1 MOL1         0.0829
     137    H7      20.087204   17.788923   22.952390 H          1 MOL1         0.0829
     138    O1      18.968726   20.186251   22.451275 O.3        1 MOL1        -0.5515
     139    H8      18.270613   19.578879   22.143887 H          1 MOL1         0.3773
@<TRIPOS>BOND
    1     1     2    1
    2     1     3    1
    3     1     4    1
    4     4     5    1
    5     4     6    1
    6     6     7    1
    7     4     8    1
    8     8     9    1
    9     8    10    1
   10    10    11    1
   11     8    12    1
   12    12    13    1
   13    12    14    1
   14    14    15    1
   15     1    16    1
   16    14    16    1
   17    14    17    1
   18    17    18    1
   19    17    19    1
   20    17    20    1
   21    20    21    1
   22    22    23    1
   23    22    24    1
   24    22    25    1
   25    25    26    1
   26    25    27    1
   27    27    28    1
   28    25    29    1
   29    29    30    1
   30    29    31    1
   31    31    32    1
   32     3    33    1
   33    29    33    1
   34    33    34    1
   35    33    35    1
   36    35    36    1
   37    22    37    1
   38    35    37    1
   39    35    38    1
   40    38    39    1
   41    38    40    1
   42    38    41    1
   43    41    42    1
   44    43    44    1
   45    43    45    1
   46    43    46    1
   47    46    47    1
   48    46    48    1
   49    48    49    1
   50    46    50    1
   51    50    51    1
   52    50    52    1
   53    52    53    1
   54    24    54    1
   55    50    54    1
   56    54    55    1
   57    54    56    1
   58    56    57    1
   59    43    58    1
   60    56    58    1
   61    56    59    1
   62    59    60    1
   63    59    61    1
   64    59    62    1
   65    62    63    1
   66    64    65    1
   67    64    66    1
   68    64    67    1
   69    67    68    1
   70    67    69    1
   71    69    70    1
   72    67    71    1
   73    71    72    1
   74    71    73    1
   75    73    74    1
   76    45    75    1
   77    71    75    1
   78    75    76    1
   79    75    77    1
   80    77    78    1
   81    64    79    1
   82    77    79    1
   83    77    80    1
   84    80    81    1
   85    80    82    1
   86    80    83    1
   87    83    84    1
   88    85    86    1
   89    85    87    1
   90    85    88    1
   91    88    89    1
   92    88    90    1
   93    90    91    1
   94    88    92    1
   95    92    93    1
   96    92    94    1
   97    94    95    1
   98    66    96    1
   99    92    96    1
  100    96    97    1
  101    96    98    1
  102    98    99    1
  103    85   100    1
  104    98   100    1
  105    98   101    1
  106   101   102    1
  107   101   103    1
  108   101   104    1
  109   104   105    1
  110   106   107    1
  111    12   108    1
  112   106   108    1
  113   106   109    1
  114   109   110    1
  115   109   111    1
  116   111   112    1
  117   109   113    1
  118   113   114    1
  119   113   115    1
  120   115   116    1
  121    87   117    1
  122   113   117    1
  123   117   118    1
  124   117   119    1
  125   119   120    1
  126   106   121    1
  127   119   121    1
  128   119   122    1
  129   122   123    1
  130   122   124    1
  131   122   125    1
  132   125   126    1
  133   127   128    1
  134   127   129    1
  135   127   130    1
  136   130   131    1
  137   130   132    1
  138   130   133    1
  139   133   134    1
  140   127   135    1
  141   133   135    1
  142   135   136    1
  143   135   137    1
  144   133   138    1
  145   138   139    1
@<TRIPOS>SUBSTRUCTURE
       1 MOL1            1 RESIDUE      1      MOL     
       2 MOL1          139 RESIDUE      1      MOL     
@<SCITEGIC>MOL_PROPERTY
feprocess Rank
SciTegic.value.IntegerValue
211

@<SCITEGIC>MOL_PROPERTY
Conf_Id
SciTegic.value.IntegerValue
770

@<SCITEGIC>MOL_PROPERTY
Probability
SciTegic.value.DoubleValue
0.00

@<SCITEGIC>MOL_PROPERTY
G
SciTegic.value.DoubleValue
553.449

@<SCITEGIC>MOL_PROPERTY
E
SciTegic.value.DoubleValue
376.700

@<SCITEGIC>MOL_PROPERTY
-TS
SciTegic.value.DoubleValue
176.749

@<SCITEGIC>MOL_PROPERTY
U+W
SciTegic.value.DoubleValue
254.188

@<SCITEGIC>MOL_PROPERTY
U
SciTegic.value.DoubleValue
292.366

@<SCITEGIC>MOL_PROPERTY
W
SciTegic.value.DoubleValue
-38.177

@<SCITEGIC>MOL_PROPERTY
W(PB)
SciTegic.value.DoubleValue
-44.186

@<SCITEGIC>MOL_PROPERTY
W(SA)
SciTegic.value.DoubleValue
6.009

@<SCITEGIC>MOL_PROPERTY
Valence
SciTegic.value.DoubleValue
157.676

@<SCITEGIC>MOL_PROPERTY
Coulomb
SciTegic.value.DoubleValue
156.798

@<SCITEGIC>MOL_PROPERTY
VdW
SciTegic.value.DoubleValue
-22.108

@<SCITEGIC>MOL_PROPERTY
VdW6
SciTegic.value.DoubleValue
-170.871

@<SCITEGIC>MOL_PROPERTY
VdW12
SciTegic.value.DoubleValue
148.763

@<SCITEGIC>MOL_PROPERTY
Bond
SciTegic.value.DoubleValue
4.852

@<SCITEGIC>MOL_PROPERTY
Angle
SciTegic.value.DoubleValue
12.234

@<SCITEGIC>MOL_PROPERTY
Pdih
SciTegic.value.DoubleValue
140.590

@<SCITEGIC>MOL_PROPERTY
Idih
SciTegic.value.DoubleValue
0.000

@<SCITEGIC>MOL_PROPERTY
Tether
SciTegic.value.DoubleValue
0.000

@<TRIPOS>MOLECULE
CD_guest-s16_fast_vm2_rndm.mol2 : feprocess host+ligand conformer 212
         139         145           2
SMALL
USER_CHARGES
 
@<TRIPOS>ATOM
       1    C1      16.278161   15.287331   20.255719 C.3        1 MOL1         0.2972
       2    H1      15.266408   15.233828   19.833453 H          1 MOL1         0.0751
       3    O1      16.560813   16.600669   20.788641 O.3        1 MOL1        -0.3740
       4    C2      16.486262   14.218483   21.362206 C.3        1 MOL1         0.1003
       5    H2      16.399872   13.235357   20.881272 H          1 MOL1         0.0783
       6    O2      15.496208   14.311050   22.396159 O.3        1 MOL1        -0.5519
       7    H3      15.590652   15.206444   22.808357 H          1 MOL1         0.3769
       8    C3      17.914083   14.334897   21.949724 C.3        1 MOL1         0.1053
       9    H4      18.002249   15.310305   22.448316 H          1 MOL1         0.0783
      10    O3      18.138817   13.287139   22.898794 O.3        1 MOL1        -0.5519
      11    H5      17.318261   13.248975   23.439215 H          1 MOL1         0.3769
      12    C4      18.982014   14.260795   20.829414 C.3        1 MOL1         0.1018
      13    H6      19.059966   13.217422   20.497979 H          1 MOL1         0.0783
      14    C5      18.645542   15.170668   19.612440 C.3        1 MOL1         0.1043
      15    H7      18.805789   16.210924   19.911287 H          1 MOL1         0.0783
      16    O4      17.256260   15.006269   19.229219 O.3        1 MOL1        -0.3740
      17    C6      19.535267   14.924345   18.367888 C.3        1 MOL1         0.0138
      18    H8      20.507956   15.405489   18.528511 H          1 MOL1         0.0794
      19    H9      19.070635   15.421346   17.505887 H          1 MOL1         0.0794
      20    O5      19.731507   13.534109   18.086061 O.3        1 MOL1        -0.5486
      21    H10     20.485766   13.229608   18.636034 H          1 MOL1         0.3769
      22    C7      14.857175   20.186130   22.011086 C.3        1 MOL1         0.2972
      23    H11     14.187385   20.998551   22.320999 H          1 MOL1         0.0751
      24    O6      16.205176   20.650649   21.815413 O.3        1 MOL1        -0.3740
      25    C8      14.887300   19.082486   23.094696 C.3        1 MOL1         0.1003
      26    H12     13.868026   18.686310   23.191571 H          1 MOL1         0.0783
      27    O7      15.307210   19.621790   24.358766 O.3        1 MOL1        -0.5519
      28    H13     15.807531   20.454182   24.168175 H          1 MOL1         0.3769
      29    C9      15.813695   17.919571   22.668459 C.3        1 MOL1         0.1053
      30    H14     16.843034   18.298421   22.638325 H          1 MOL1         0.0783
      31    O8      15.717127   16.877277   23.642471 O.3        1 MOL1        -0.5519
      32    H15     15.774840   17.340781   24.508616 H          1 MOL1         0.3769
      33    C10     15.444955   17.389321   21.256737 C.3        1 MOL1         0.1018
      34    H16     14.524473   16.795094   21.331145 H          1 MOL1         0.0783
      35    C11     15.252655   18.544155   20.230410 C.3        1 MOL1         0.1043
      36    H17     16.242731   18.964358   20.012896 H          1 MOL1         0.0783
      37    O9      14.406218   19.591604   20.775589 O.3        1 MOL1        -0.3740
      38    C12     14.648954   18.076828   18.884818 C.3        1 MOL1         0.0138
      39    H18     15.402342   17.478579   18.354490 H          1 MOL1         0.0794
      40    H19     14.440114   18.961044   18.267694 H          1 MOL1         0.0794
      41    O10     13.456642   17.303458   19.068644 O.3        1 MOL1        -0.5486
      42    H20     13.088181   17.107757   18.179585 H          1 MOL1         0.3769
      43    C13     18.486171   24.120661   21.461959 C.3        1 MOL1         0.2972
      44    H21     18.814905   25.160611   21.340416 H          1 MOL1         0.0751
      45    O11     19.606162   23.212949   21.514346 O.3        1 MOL1        -0.3740
      46    C14     17.709133   23.968734   22.794526 C.3        1 MOL1         0.1003
      47    H22     16.847307   24.647668   22.756356 H          1 MOL1         0.0783
      48    O12     18.548981   24.327478   23.903557 O.3        1 MOL1        -0.5519
      49    H23     19.476789   24.114650   23.637955 H          1 MOL1         0.3769
      50    C15     17.175626   22.524749   22.964532 C.3        1 MOL1         0.1053
      51    H24     18.037072   21.853977   23.088247 H          1 MOL1         0.0783
      52    O13     16.338189   22.453790   24.122416 O.3        1 MOL1        -0.5519
      53    H25     16.829562   22.940477   24.821804 H          1 MOL1         0.3769
      54    C16     16.387477   22.074067   21.710815 C.3        1 MOL1         0.1018
      55    H26     15.433288   22.615943   21.672354 H          1 MOL1         0.0783
      56    C17     17.185662   22.341397   20.408132 C.3        1 MOL1         0.1043
      57    H27     18.070979   21.699774   20.429709 H          1 MOL1         0.0783
      58    O14     17.617141   23.724877   20.376134 O.3        1 MOL1        -0.3740
      59    C18     16.419116   22.009906   19.101013 C.3        1 MOL1         0.0138
      60    H28     16.600802   20.956759   18.851053 H          1 MOL1         0.0794
      61    H29     16.841627   22.609423   18.283785 H          1 MOL1         0.0794
      62    O15     15.008335   22.236571   19.199024 O.3        1 MOL1        -0.5486
      63    H30     14.630444   21.482435   19.707951 H          1 MOL1         0.3769
      64    C19     23.549988   22.622377   20.401670 C.3        1 MOL1         0.2972
      65    H31     24.565887   22.689779   19.993679 H          1 MOL1         0.0751
      66    O16     23.263978   21.283542   20.873155 O.3        1 MOL1        -0.3740
      67    C20     23.333005   23.670358   21.527325 C.3        1 MOL1         0.1003
      68    H32     23.430218   24.660434   21.062791 H          1 MOL1         0.0783
      69    O17     24.313437   23.562599   22.568428 O.3        1 MOL1        -0.5519
      70    H33     24.150976   22.700568   23.026718 H          1 MOL1         0.3769
      71    C21     21.896738   23.557145   22.092175 C.3        1 MOL1         0.1053
      72    H34     21.785523   22.568336   22.558297 H          1 MOL1         0.0783
      73    O18     21.673177   24.580373   23.068108 O.3        1 MOL1        -0.5519
      74    H35     22.482914   24.588966   23.625299 H          1 MOL1         0.3769
      75    C22     20.849207   23.683973   20.958010 C.3        1 MOL1         0.1018
      76    H36     20.795963   24.738099   20.656998 H          1 MOL1         0.0783
      77    C23     21.192313   22.800985   19.723108 C.3        1 MOL1         0.1043
      78    H37     20.999516   21.760193   19.996522 H          1 MOL1         0.0783
      79    O19     22.592221   22.935390   19.367944 O.3        1 MOL1        -0.3740
      80    C24     20.343130   23.104894   18.462953 C.3        1 MOL1         0.0138
      81    H38     19.356160   22.642730   18.579696 H          1 MOL1         0.0794
      82    H39     20.820604   22.623501   17.598937 H          1 MOL1         0.0794
      83    O20     20.186291   24.507089   18.219119 O.3        1 MOL1        -0.5486
      84    H40     19.414140   24.808596   18.745518 H          1 MOL1         0.3769
      85    C25     24.860920   17.759375   22.361864 C.3        1 MOL1         0.2972
      86    H41     25.478574   16.946457   22.765117 H          1 MOL1         0.0751
      87    O21     23.550597   17.299344   21.982745 O.3        1 MOL1        -0.3740
      88    C26     24.686345   18.870318   23.422223 C.3        1 MOL1         0.1003
      89    H42     25.682449   19.273964   23.646071 H          1 MOL1         0.0783
      90    O22     24.109253   18.337934   24.625794 O.3        1 MOL1        -0.5519
      91    H43     23.692473   17.472342   24.389184 H          1 MOL1         0.3769
      92    C27     23.814425   20.021816   22.869031 C.3        1 MOL1         0.1053
      93    H44     22.799455   19.633504   22.727431 H          1 MOL1         0.0783
      94    O23     23.788414   21.073478   23.836442 O.3        1 MOL1        -0.5519
      95    H45     23.623588   20.617995   24.693173 H          1 MOL1         0.3769
      96    C28     24.338509   20.539661   21.499334 C.3        1 MOL1         0.1018
      97    H46     25.222333   21.165226   21.677145 H          1 MOL1         0.0783
      98    C29     24.704420   19.376897   20.528711 C.3        1 MOL1         0.1043
      99    H47     23.767052   18.929673   20.181614 H          1 MOL1         0.0783
     100    O24     25.480357   18.351119   21.201439 O.3        1 MOL1        -0.3740
     101    C30     25.481395   19.833588   19.270694 C.3        1 MOL1         0.0138
     102    H48     24.829754   20.480315   18.667543 H          1 MOL1         0.0794
     103    H49     25.705571   18.947229   18.662340 H          1 MOL1         0.0794
     104    O25     26.696787   20.521585   19.595189 O.3        1 MOL1        -0.5486
     105    H50     26.467435   21.371465   20.023495 H          1 MOL1         0.3769
     106    C31     21.325704   13.829602   21.412061 C.3        1 MOL1         0.2972
     107    H51     21.005711   12.793312   21.244637 H          1 MOL1         0.0751
     108    O26     20.207228   14.739876   21.414858 O.3        1 MOL1        -0.3740
     109    C32     22.022377   13.949187   22.791498 C.3        1 MOL1         0.1003
     110    H52     22.891776   13.278936   22.783720 H          1 MOL1         0.0783
     111    O27     21.126430   13.552476   23.842368 O.3        1 MOL1        -0.5519
     112    H53     20.208235   13.731116   23.521107 H          1 MOL1         0.3769
     113    C33     22.531441   15.392044   23.029087 C.3        1 MOL1         0.1053
     114    H54     21.657980   16.052883   23.116385 H          1 MOL1         0.0783
     115    O28     23.295989   15.441369   24.237548 O.3        1 MOL1        -0.5519
     116    H55     22.770516   14.927015   24.891017 H          1 MOL1         0.3769
     117    C34     23.389428   15.878391   21.835749 C.3        1 MOL1         0.1018
     118    H56     24.350356   15.347160   21.842995 H          1 MOL1         0.0783
     119    C35     22.678545   15.636603   20.477964 C.3        1 MOL1         0.1043
     120    H57     21.791640   16.276060   20.453183 H          1 MOL1         0.0783
     121    O29     22.257405   14.252109   20.390326 O.3        1 MOL1        -0.3740
     122    C36     23.528069   15.996464   19.230717 C.3        1 MOL1         0.0138
     123    H58     23.347326   17.049601   18.979573 H          1 MOL1         0.0794
     124    H59     23.171286   15.402139   18.379110 H          1 MOL1         0.0794
     125    O30     24.932443   15.787835   19.423558 O.3        1 MOL1        -0.5486
     126    H60     25.257511   16.520515   19.996285 H          1 MOL1         0.3769
     127    C1      19.108360   18.963789   20.959890 C.3        1 MOL1        -0.1693
     128    H1      18.690985   17.971928   21.152098 H          1 MOL1         0.0829
     129    H2      18.579710   19.687183   21.587650 H          1 MOL1         0.0829
     130    C2      19.276303   19.342942   19.450734 C.3        1 MOL1        -0.1768
     131    H3      18.567486   18.874579   18.759383 H          1 MOL1         0.0829
     132    H4      19.315558   20.412053   19.235465 H          1 MOL1         0.0829
     133    C3      20.672794   18.667382   19.534197 C.3        1 MOL1         0.1211
     134    H5      20.633832   17.595873   19.314877 H          1 MOL1         0.0786
     135    C4      20.659708   19.020866   21.051911 C.3        1 MOL1        -0.1768
     136    H6      21.044777   20.010661   21.310033 H          1 MOL1         0.0829
     137    H7      21.116464   18.283115   21.718412 H          1 MOL1         0.0829
     138    O1      21.693962   19.286018   18.788080 O.3        1 MOL1        -0.5515
     139    H8      21.938304   20.111077   19.255991 H          1 MOL1         0.3773
@<TRIPOS>BOND
    1     1     2    1
    2     1     3    1
    3     1     4    1
    4     4     5    1
    5     4     6    1
    6     6     7    1
    7     4     8    1
    8     8     9    1
    9     8    10    1
   10    10    11    1
   11     8    12    1
   12    12    13    1
   13    12    14    1
   14    14    15    1
   15     1    16    1
   16    14    16    1
   17    14    17    1
   18    17    18    1
   19    17    19    1
   20    17    20    1
   21    20    21    1
   22    22    23    1
   23    22    24    1
   24    22    25    1
   25    25    26    1
   26    25    27    1
   27    27    28    1
   28    25    29    1
   29    29    30    1
   30    29    31    1
   31    31    32    1
   32     3    33    1
   33    29    33    1
   34    33    34    1
   35    33    35    1
   36    35    36    1
   37    22    37    1
   38    35    37    1
   39    35    38    1
   40    38    39    1
   41    38    40    1
   42    38    41    1
   43    41    42    1
   44    43    44    1
   45    43    45    1
   46    43    46    1
   47    46    47    1
   48    46    48    1
   49    48    49    1
   50    46    50    1
   51    50    51    1
   52    50    52    1
   53    52    53    1
   54    24    54    1
   55    50    54    1
   56    54    55    1
   57    54    56    1
   58    56    57    1
   59    43    58    1
   60    56    58    1
   61    56    59    1
   62    59    60    1
   63    59    61    1
   64    59    62    1
   65    62    63    1
   66    64    65    1
   67    64    66    1
   68    64    67    1
   69    67    68    1
   70    67    69    1
   71    69    70    1
   72    67    71    1
   73    71    72    1
   74    71    73    1
   75    73    74    1
   76    45    75    1
   77    71    75    1
   78    75    76    1
   79    75    77    1
   80    77    78    1
   81    64    79    1
   82    77    79    1
   83    77    80    1
   84    80    81    1
   85    80    82    1
   86    80    83    1
   87    83    84    1
   88    85    86    1
   89    85    87    1
   90    85    88    1
   91    88    89    1
   92    88    90    1
   93    90    91    1
   94    88    92    1
   95    92    93    1
   96    92    94    1
   97    94    95    1
   98    66    96    1
   99    92    96    1
  100    96    97    1
  101    96    98    1
  102    98    99    1
  103    85   100    1
  104    98   100    1
  105    98   101    1
  106   101   102    1
  107   101   103    1
  108   101   104    1
  109   104   105    1
  110   106   107    1
  111    12   108    1
  112   106   108    1
  113   106   109    1
  114   109   110    1
  115   109   111    1
  116   111   112    1
  117   109   113    1
  118   113   114    1
  119   113   115    1
  120   115   116    1
  121    87   117    1
  122   113   117    1
  123   117   118    1
  124   117   119    1
  125   119   120    1
  126   106   121    1
  127   119   121    1
  128   119   122    1
  129   122   123    1
  130   122   124    1
  131   122   125    1
  132   125   126    1
  133   127   128    1
  134   127   129    1
  135   127   130    1
  136   130   131    1
  137   130   132    1
  138   130   133    1
  139   133   134    1
  140   127   135    1
  141   133   135    1
  142   135   136    1
  143   135   137    1
  144   133   138    1
  145   138   139    1
@<TRIPOS>SUBSTRUCTURE
       1 MOL1            1 RESIDUE      1      MOL     
       2 MOL1          139 RESIDUE      1      MOL     
@<SCITEGIC>MOL_PROPERTY
feprocess Rank
SciTegic.value.IntegerValue
212

@<SCITEGIC>MOL_PROPERTY
Conf_Id
SciTegic.value.IntegerValue
939

@<SCITEGIC>MOL_PROPERTY
Probability
SciTegic.value.DoubleValue
0.00

@<SCITEGIC>MOL_PROPERTY
G
SciTegic.value.DoubleValue
553.505

@<SCITEGIC>MOL_PROPERTY
E
SciTegic.value.DoubleValue
374.843

@<SCITEGIC>MOL_PROPERTY
-TS
SciTegic.value.DoubleValue
178.662

@<SCITEGIC>MOL_PROPERTY
U+W
SciTegic.value.DoubleValue
252.332

@<SCITEGIC>MOL_PROPERTY
U
SciTegic.value.DoubleValue
290.101

@<SCITEGIC>MOL_PROPERTY
W
SciTegic.value.DoubleValue
-37.769

@<SCITEGIC>MOL_PROPERTY
W(PB)
SciTegic.value.DoubleValue
-43.755

@<SCITEGIC>MOL_PROPERTY
W(SA)
SciTegic.value.DoubleValue
5.986

@<SCITEGIC>MOL_PROPERTY
Valence
SciTegic.value.DoubleValue
157.511

@<SCITEGIC>MOL_PROPERTY
Coulomb
SciTegic.value.DoubleValue
155.250

@<SCITEGIC>MOL_PROPERTY
VdW
SciTegic.value.DoubleValue
-22.661

@<SCITEGIC>MOL_PROPERTY
VdW6
SciTegic.value.DoubleValue
-170.710

@<SCITEGIC>MOL_PROPERTY
VdW12
SciTegic.value.DoubleValue
148.049

@<SCITEGIC>MOL_PROPERTY
Bond
SciTegic.value.DoubleValue
4.808

@<SCITEGIC>MOL_PROPERTY
Angle
SciTegic.value.DoubleValue
12.355

@<SCITEGIC>MOL_PROPERTY
Pdih
SciTegic.value.DoubleValue
140.348

@<SCITEGIC>MOL_PROPERTY
Idih
SciTegic.value.DoubleValue
0.000

@<SCITEGIC>MOL_PROPERTY
Tether
SciTegic.value.DoubleValue
0.000

@<TRIPOS>MOLECULE
CD_guest-s16_fast_vm2_rndm.mol2 : feprocess host+ligand conformer 213
         139         145           2
SMALL
USER_CHARGES
 
@<TRIPOS>ATOM
       1    C1      16.051178   15.120306   21.303102 C.3        1 MOL1         0.2972
       2    H1      15.010848   14.824438   21.117518 H          1 MOL1         0.0751
       3    O1      16.156800   16.538394   21.522197 O.3        1 MOL1        -0.3740
       4    C2      16.570911   14.432604   22.591635 C.3        1 MOL1         0.1003
       5    H2      16.479345   13.347761   22.451078 H          1 MOL1         0.0783
       6    O2      15.778604   14.836479   23.719291 O.3        1 MOL1        -0.5519
       7    H3      15.543806   15.782287   23.561860 H          1 MOL1         0.3769
       8    C3      18.064250   14.762540   22.838447 C.3        1 MOL1         0.1053
       9    H4      18.153263   15.836000   23.054633 H          1 MOL1         0.0783
      10    O3      18.541710   13.997334   23.949833 O.3        1 MOL1        -0.5519
      11    H5      17.847585   14.091954   24.639970 H          1 MOL1         0.3769
      12    C4      18.903252   14.449855   21.578378 C.3        1 MOL1         0.1018
      13    H6      18.908455   13.361912   21.431532 H          1 MOL1         0.0783
      14    C5      18.298464   15.122062   20.317124 C.3        1 MOL1         0.1043
      15    H7      18.361842   16.209938   20.444710 H          1 MOL1         0.0783
      16    O4      16.902392   14.740822   20.195777 O.3        1 MOL1        -0.3740
      17    C6      19.029274   14.760388   18.996324 C.3        1 MOL1         0.0138
      18    H8      19.887042   15.432749   18.874114 H          1 MOL1         0.0794
      19    H9      18.350139   14.950489   18.154931 H          1 MOL1         0.0794
      20    O5      19.489356   13.404730   18.957409 O.3        1 MOL1        -0.5486
      21    H10     20.349098   13.382419   19.437088 H          1 MOL1         0.3769
      22    C7      14.761833   20.276021   20.378360 C.3        1 MOL1         0.2972
      23    H11     14.221243   21.135521   19.961538 H          1 MOL1         0.0751
      24    O6      16.042850   20.667381   20.920074 O.3        1 MOL1        -0.3740
      25    C8      13.929946   19.568295   21.479361 C.3        1 MOL1         0.1003
      26    H12     13.015748   19.192883   21.001443 H          1 MOL1         0.0783
      27    O7      13.561620   20.470852   22.532734 O.3        1 MOL1        -0.5519
      28    H13     14.400259   20.854041   22.895327 H          1 MOL1         0.3769
      29    C9      14.702752   18.349431   22.042118 C.3        1 MOL1         0.1053
      30    H14     15.597966   18.723338   22.559151 H          1 MOL1         0.0783
      31    O8      13.868414   17.642342   22.966800 O.3        1 MOL1        -0.5519
      32    H15     13.468093   18.337758   23.534285 H          1 MOL1         0.3769
      33    C10     15.165746   17.391573   20.912299 C.3        1 MOL1         0.1018
      34    H16     14.294250   16.825362   20.559403 H          1 MOL1         0.0783
      35    C11     15.819507   18.163107   19.726638 C.3        1 MOL1         0.1043
      36    H17     16.783190   18.538885   20.075966 H          1 MOL1         0.0783
      37    O9      14.991352   19.291388   19.347429 O.3        1 MOL1        -0.3740
      38    C12     16.105560   17.330472   18.451608 C.3        1 MOL1         0.0138
      39    H18     17.121480   16.925688   18.524053 H          1 MOL1         0.0794
      40    H19     16.099367   18.005880   17.585757 H          1 MOL1         0.0794
      41    O10     15.173549   16.263668   18.246048 O.3        1 MOL1        -0.5486
      42    H20     15.496051   15.506632   18.786713 H          1 MOL1         0.3769
      43    C13     18.438362   23.904560   21.918806 C.3        1 MOL1         0.2972
      44    H21     18.827801   24.899802   22.168244 H          1 MOL1         0.0751
      45    O11     19.503831   22.942675   21.764563 O.3        1 MOL1        -0.3740
      46    C14     17.483380   23.430719   23.042021 C.3        1 MOL1         0.1003
      47    H22     16.671488   24.166770   23.107872 H          1 MOL1         0.0783
      48    O12     18.164126   23.372100   24.305777 O.3        1 MOL1        -0.5519
      49    H23     19.133841   23.311221   24.114750 H          1 MOL1         0.3769
      50    C15     16.848552   22.061583   22.707172 C.3        1 MOL1         0.1053
      51    H24     17.637469   21.302851   22.740076 H          1 MOL1         0.0783
      52    O13     15.859962   21.760679   23.696138 O.3        1 MOL1        -0.5519
      53    H25     16.297949   21.958996   24.554441 H          1 MOL1         0.3769
      54    C16     16.218285   22.051130   21.290302 C.3        1 MOL1         0.1018
      55    H26     15.263074   22.591643   21.325513 H          1 MOL1         0.0783
      56    C17     17.154175   22.687535   20.221634 C.3        1 MOL1         0.1043
      57    H27     17.984735   21.993547   20.050234 H          1 MOL1         0.0783
      58    O14     17.692138   23.953532   20.685141 O.3        1 MOL1        -0.3740
      59    C18     16.462004   22.918139   18.857393 C.3        1 MOL1         0.0138
      60    H28     16.278823   21.940643   18.390737 H          1 MOL1         0.0794
      61    H29     17.150890   23.468833   18.202899 H          1 MOL1         0.0794
      62    O15     15.226024   23.630618   18.993317 O.3        1 MOL1        -0.5486
      63    H30     14.882014   23.805766   18.090290 H          1 MOL1         0.3769
      64    C19     23.688379   22.810605   21.434803 C.3        1 MOL1         0.2972
      65    H31     24.743603   23.084605   21.311471 H          1 MOL1         0.0751
      66    O16     23.506313   21.381165   21.479130 O.3        1 MOL1        -0.3740
      67    C20     23.127374   23.405191   22.754003 C.3        1 MOL1         0.1003
      68    H32     23.218509   24.496979   22.683721 H          1 MOL1         0.0783
      69    O17     23.874283   22.949980   23.892885 O.3        1 MOL1        -0.5519
      70    H33     24.220951   22.046973   23.680385 H          1 MOL1         0.3769
      71    C21     21.624621   23.067536   22.918719 C.3        1 MOL1         0.1053
      72    H34     21.522336   21.980426   23.040477 H          1 MOL1         0.0783
      73    O18     21.112175   23.738207   24.073775 O.3        1 MOL1        -0.5519
      74    H35     21.796374   23.602152   24.767642 H          1 MOL1         0.3769
      75    C22     20.832686   23.498025   21.660886 C.3        1 MOL1         0.1018
      76    H36     20.817891   24.595174   21.623454 H          1 MOL1         0.0783
      77    C23     21.490586   22.964323   20.359001 C.3        1 MOL1         0.1043
      78    H37     21.414672   21.872109   20.359690 H          1 MOL1         0.0783
      79    O19     22.894653   23.330962   20.342717 O.3        1 MOL1        -0.3740
      80    C24     20.820161   23.471636   19.055056 C.3        1 MOL1         0.0138
      81    H38     19.969242   22.819671   18.821511 H          1 MOL1         0.0794
      82    H39     21.537781   23.370046   18.230075 H          1 MOL1         0.0794
      83    O20     20.360494   24.825141   19.146207 O.3        1 MOL1        -0.5486
      84    H40     19.498302   24.803696   19.621014 H          1 MOL1         0.3769
      85    C25     25.208197   17.650100   21.031326 C.3        1 MOL1         0.2972
      86    H41     25.838157   16.774794   20.831332 H          1 MOL1         0.0751
      87    O21     23.844489   17.275339   21.336980 O.3        1 MOL1        -0.3740
      88    C26     25.782990   18.479609   22.207087 C.3        1 MOL1         0.1003
      89    H42     26.762698   18.859235   21.888510 H          1 MOL1         0.0783
      90    O22     25.961004   17.682073   23.386153 O.3        1 MOL1        -0.5519
      91    H43     25.131432   17.156897   23.519008 H          1 MOL1         0.3769
      92    C27     24.876794   19.699584   22.495019 C.3        1 MOL1         0.1053
      93    H44     23.902230   19.329062   22.842019 H          1 MOL1         0.0783
      94    O23     25.476475   20.505752   23.512570 O.3        1 MOL1        -0.5519
      95    H45     25.806411   19.864465   24.181960 H          1 MOL1         0.3769
      96    C28     24.651567   20.545339   21.214999 C.3        1 MOL1         0.1018
      97    H46     25.557970   21.132252   21.019665 H          1 MOL1         0.0783
      98    C29     24.313799   19.672091   19.969240 C.3        1 MOL1         0.1043
      99    H47     23.291170   19.302339   20.076951 H          1 MOL1         0.0783
     100    O24     25.196879   18.524888   19.882272 O.3        1 MOL1        -0.3740
     101    C30     24.363265   20.447776   18.630630 C.3        1 MOL1         0.0138
     102    H48     23.509526   21.137951   18.592715 H          1 MOL1         0.0794
     103    H49     24.235275   19.729464   17.810047 H          1 MOL1         0.0794
     104    O25     25.584935   21.175903   18.457540 O.3        1 MOL1        -0.5486
     105    H50     25.497100   22.023396   18.943005 H          1 MOL1         0.3769
     106    C31     21.290819   13.993395   21.807234 C.3        1 MOL1         0.2972
     107    H51     20.895210   12.973620   21.895620 H          1 MOL1         0.0751
     108    O26     20.231908   14.973517   21.792172 O.3        1 MOL1        -0.3740
     109    C32     22.224590   14.288391   23.006607 C.3        1 MOL1         0.1003
     110    H52     23.030175   13.542912   22.983605 H          1 MOL1         0.0783
     111    O27     21.514116   14.171566   24.249725 O.3        1 MOL1        -0.5519
     112    H53     20.556081   14.330815   24.054721 H          1 MOL1         0.3769
     113    C33     22.872287   15.686742   22.882899 C.3        1 MOL1         0.1053
     114    H54     22.078621   16.436975   22.983230 H          1 MOL1         0.0783
     115    O28     23.822182   15.844997   23.938953 O.3        1 MOL1        -0.5519
     116    H55     23.361202   15.508940   24.740892 H          1 MOL1         0.3769
     117    C34     23.557245   15.868466   21.502912 C.3        1 MOL1         0.1018
     118    H56     24.467506   15.255531   21.479391 H          1 MOL1         0.0783
     119    C35     22.610437   15.450074   20.342579 C.3        1 MOL1         0.1043
     120    H57     21.792097   16.176635   20.304050 H          1 MOL1         0.0783
     121    O29     22.054331   14.132516   20.589727 O.3        1 MOL1        -0.3740
     122    C36     23.284803   15.447893   18.949425 C.3        1 MOL1         0.0138
     123    H58     23.500715   16.485488   18.659842 H          1 MOL1         0.0794
     124    H59     22.567483   15.050718   18.219049 H          1 MOL1         0.0794
     125    O30     24.489005   14.671908   18.922516 O.3        1 MOL1        -0.5486
     126    H60     25.214113   15.231387   19.269895 H          1 MOL1         0.3769
     127    C1      20.514618   18.519720   19.775692 C.3        1 MOL1        -0.1693
     128    H1      21.307873   18.624546   19.027462 H          1 MOL1         0.0829
     129    H2      20.077007   17.522017   19.686665 H          1 MOL1         0.0829
     130    C2      19.458270   19.664692   19.822867 C.3        1 MOL1        -0.1768
     131    H3      19.842461   20.638795   19.516326 H          1 MOL1         0.0829
     132    H4      18.529439   19.481974   19.276989 H          1 MOL1         0.0829
     133    C3      19.413801   19.440820   21.368805 C.3        1 MOL1         0.1211
     134    H5      19.311762   20.355218   21.960725 H          1 MOL1         0.0786
     135    C4      20.875105   18.938421   21.239741 C.3        1 MOL1        -0.1768
     136    H6      21.157970   18.127223   21.914943 H          1 MOL1         0.0829
     137    H7      21.607518   19.740556   21.335549 H          1 MOL1         0.0829
     138    O1      18.512508   18.460864   21.828193 O.3        1 MOL1        -0.5515
     139    H8      18.705423   18.303029   22.771383 H          1 MOL1         0.3773
@<TRIPOS>BOND
    1     1     2    1
    2     1     3    1
    3     1     4    1
    4     4     5    1
    5     4     6    1
    6     6     7    1
    7     4     8    1
    8     8     9    1
    9     8    10    1
   10    10    11    1
   11     8    12    1
   12    12    13    1
   13    12    14    1
   14    14    15    1
   15     1    16    1
   16    14    16    1
   17    14    17    1
   18    17    18    1
   19    17    19    1
   20    17    20    1
   21    20    21    1
   22    22    23    1
   23    22    24    1
   24    22    25    1
   25    25    26    1
   26    25    27    1
   27    27    28    1
   28    25    29    1
   29    29    30    1
   30    29    31    1
   31    31    32    1
   32     3    33    1
   33    29    33    1
   34    33    34    1
   35    33    35    1
   36    35    36    1
   37    22    37    1
   38    35    37    1
   39    35    38    1
   40    38    39    1
   41    38    40    1
   42    38    41    1
   43    41    42    1
   44    43    44    1
   45    43    45    1
   46    43    46    1
   47    46    47    1
   48    46    48    1
   49    48    49    1
   50    46    50    1
   51    50    51    1
   52    50    52    1
   53    52    53    1
   54    24    54    1
   55    50    54    1
   56    54    55    1
   57    54    56    1
   58    56    57    1
   59    43    58    1
   60    56    58    1
   61    56    59    1
   62    59    60    1
   63    59    61    1
   64    59    62    1
   65    62    63    1
   66    64    65    1
   67    64    66    1
   68    64    67    1
   69    67    68    1
   70    67    69    1
   71    69    70    1
   72    67    71    1
   73    71    72    1
   74    71    73    1
   75    73    74    1
   76    45    75    1
   77    71    75    1
   78    75    76    1
   79    75    77    1
   80    77    78    1
   81    64    79    1
   82    77    79    1
   83    77    80    1
   84    80    81    1
   85    80    82    1
   86    80    83    1
   87    83    84    1
   88    85    86    1
   89    85    87    1
   90    85    88    1
   91    88    89    1
   92    88    90    1
   93    90    91    1
   94    88    92    1
   95    92    93    1
   96    92    94    1
   97    94    95    1
   98    66    96    1
   99    92    96    1
  100    96    97    1
  101    96    98    1
  102    98    99    1
  103    85   100    1
  104    98   100    1
  105    98   101    1
  106   101   102    1
  107   101   103    1
  108   101   104    1
  109   104   105    1
  110   106   107    1
  111    12   108    1
  112   106   108    1
  113   106   109    1
  114   109   110    1
  115   109   111    1
  116   111   112    1
  117   109   113    1
  118   113   114    1
  119   113   115    1
  120   115   116    1
  121    87   117    1
  122   113   117    1
  123   117   118    1
  124   117   119    1
  125   119   120    1
  126   106   121    1
  127   119   121    1
  128   119   122    1
  129   122   123    1
  130   122   124    1
  131   122   125    1
  132   125   126    1
  133   127   128    1
  134   127   129    1
  135   127   130    1
  136   130   131    1
  137   130   132    1
  138   130   133    1
  139   133   134    1
  140   127   135    1
  141   133   135    1
  142   135   136    1
  143   135   137    1
  144   133   138    1
  145   138   139    1
@<TRIPOS>SUBSTRUCTURE
       1 MOL1            1 RESIDUE      1      MOL     
       2 MOL1          139 RESIDUE      1      MOL     
@<SCITEGIC>MOL_PROPERTY
feprocess Rank
SciTegic.value.IntegerValue
213

@<SCITEGIC>MOL_PROPERTY
Conf_Id
SciTegic.value.IntegerValue
903

@<SCITEGIC>MOL_PROPERTY
Probability
SciTegic.value.DoubleValue
0.00

@<SCITEGIC>MOL_PROPERTY
G
SciTegic.value.DoubleValue
554.756

@<SCITEGIC>MOL_PROPERTY
E
SciTegic.value.DoubleValue
377.026

@<SCITEGIC>MOL_PROPERTY
-TS
SciTegic.value.DoubleValue
177.730

@<SCITEGIC>MOL_PROPERTY
U+W
SciTegic.value.DoubleValue
254.514

@<SCITEGIC>MOL_PROPERTY
U
SciTegic.value.DoubleValue
294.471

@<SCITEGIC>MOL_PROPERTY
W
SciTegic.value.DoubleValue
-39.956

@<SCITEGIC>MOL_PROPERTY
W(PB)
SciTegic.value.DoubleValue
-45.974

@<SCITEGIC>MOL_PROPERTY
W(SA)
SciTegic.value.DoubleValue
6.017

@<SCITEGIC>MOL_PROPERTY
Valence
SciTegic.value.DoubleValue
158.904

@<SCITEGIC>MOL_PROPERTY
Coulomb
SciTegic.value.DoubleValue
157.010

@<SCITEGIC>MOL_PROPERTY
VdW
SciTegic.value.DoubleValue
-21.443

@<SCITEGIC>MOL_PROPERTY
VdW6
SciTegic.value.DoubleValue
-168.993

@<SCITEGIC>MOL_PROPERTY
VdW12
SciTegic.value.DoubleValue
147.550

@<SCITEGIC>MOL_PROPERTY
Bond
SciTegic.value.DoubleValue
4.943

@<SCITEGIC>MOL_PROPERTY
Angle
SciTegic.value.DoubleValue
12.355

@<SCITEGIC>MOL_PROPERTY
Pdih
SciTegic.value.DoubleValue
141.606

@<SCITEGIC>MOL_PROPERTY
Idih
SciTegic.value.DoubleValue
0.000

@<SCITEGIC>MOL_PROPERTY
Tether
SciTegic.value.DoubleValue
0.000

@<TRIPOS>MOLECULE
CD_guest-s16_fast_vm2_rndm.mol2 : feprocess host+ligand conformer 214
         139         145           2
SMALL
USER_CHARGES
 
@<TRIPOS>ATOM
       1    C1      16.189037   15.124846   20.702418 C.3        1 MOL1         0.2972
       2    H1      15.152483   15.040680   20.351500 H          1 MOL1         0.0751
       3    O1      16.474826   16.445346   21.211015 O.3        1 MOL1        -0.3740
       4    C2      16.479605   14.095231   21.824097 C.3        1 MOL1         0.1003
       5    H2      16.315149   13.096206   21.399971 H          1 MOL1         0.0783
       6    O2      15.596393   14.279398   22.941707 O.3        1 MOL1        -0.5519
       7    H3      15.597818   15.245518   23.163103 H          1 MOL1         0.3769
       8    C3      17.958861   14.179507   22.277749 C.3        1 MOL1         0.1053
       9    H4      18.110148   15.153138   22.764303 H          1 MOL1         0.0783
      10    O3      18.230383   13.125162   23.208383 O.3        1 MOL1        -0.5519
      11    H5      17.476338   13.140978   23.838581 H          1 MOL1         0.3769
      12    C4      18.935869   14.087126   21.076331 C.3        1 MOL1         0.1018
      13    H6      18.956930   13.047013   20.726404 H          1 MOL1         0.0783
      14    C5      18.507050   15.032689   19.914658 C.3        1 MOL1         0.1043
      15    H7      18.656486   16.061974   20.251172 H          1 MOL1         0.0783
      16    O4      17.101602   14.841473   19.620387 O.3        1 MOL1        -0.3740
      17    C6      19.293558   14.873314   18.589295 C.3        1 MOL1         0.0138
      18    H8      20.159301   15.544357   18.617077 H          1 MOL1         0.0794
      19    H9      18.657015   15.217297   17.763212 H          1 MOL1         0.0794
      20    O5      19.730187   13.532371   18.344206 O.3        1 MOL1        -0.5486
      21    H10     20.589134   13.430551   18.814026 H          1 MOL1         0.3769
      22    C7      14.824659   20.228456   21.710350 C.3        1 MOL1         0.2972
      23    H11     14.137067   21.078051   21.809396 H          1 MOL1         0.0751
      24    O6      16.201047   20.660111   21.705821 O.3        1 MOL1        -0.3740
      25    C8      14.609140   19.253826   22.894678 C.3        1 MOL1         0.1003
      26    H12     13.561770   18.926604   22.860352 H          1 MOL1         0.0783
      27    O7      14.854210   19.913755   24.147123 O.3        1 MOL1        -0.5519
      28    H13     15.453211   20.679886   23.961339 H          1 MOL1         0.3769
      29    C9      15.499802   17.996917   22.762533 C.3        1 MOL1         0.1053
      30    H14     16.542835   18.301976   22.904475 H          1 MOL1         0.0783
      31    O8      15.137291   17.057771   23.779339 O.3        1 MOL1        -0.5519
      32    H15     15.079217   17.590202   24.604265 H          1 MOL1         0.3769
      33    C10     15.358722   17.345482   21.363626 C.3        1 MOL1         0.1018
      34    H16     14.396888   16.817280   21.323717 H          1 MOL1         0.0783
      35    C11     15.440731   18.387440   20.210912 C.3        1 MOL1         0.1043
      36    H17     16.477401   18.740006   20.145951 H          1 MOL1         0.0783
      37    O9      14.571574   19.518532   20.480022 O.3        1 MOL1        -0.3740
      38    C12     15.067425   17.803972   18.827377 C.3        1 MOL1         0.0138
      39    H18     15.864309   17.116474   18.512829 H          1 MOL1         0.0794
      40    H19     15.036398   18.623748   18.097209 H          1 MOL1         0.0794
      41    O10     13.812305   17.112632   18.854594 O.3        1 MOL1        -0.5486
      42    H20     13.611436   16.823725   17.937825 H          1 MOL1         0.3769
      43    C13     18.450763   24.176436   21.242584 C.3        1 MOL1         0.2972
      44    H21     18.745560   25.216448   21.054675 H          1 MOL1         0.0751
      45    O11     19.593934   23.334829   21.481594 O.3        1 MOL1        -0.3740
      46    C14     17.567027   24.095162   22.513697 C.3        1 MOL1         0.1003
      47    H22     16.686425   24.729164   22.347281 H          1 MOL1         0.0783
      48    O12     18.291169   24.577821   23.657436 O.3        1 MOL1        -0.5519
      49    H23     19.237025   24.316461   23.531007 H          1 MOL1         0.3769
      50    C15     17.076008   22.645560   22.757761 C.3        1 MOL1         0.1053
      51    H24     17.945623   22.021163   23.004633 H          1 MOL1         0.0783
      52    O13     16.145548   22.633097   23.844961 O.3        1 MOL1        -0.5519
      53    H25     16.560663   23.189629   24.541528 H          1 MOL1         0.3769
      54    C16     16.409390   22.070856   21.485089 C.3        1 MOL1         0.1018
      55    H26     15.465276   22.606447   21.319844 H          1 MOL1         0.0783
      56    C17     17.312184   22.249999   20.234298 C.3        1 MOL1         0.1043
      57    H27     18.210415   21.639537   20.365656 H          1 MOL1         0.0783
      58    O14     17.701857   23.643218   20.124901 O.3        1 MOL1        -0.3740
      59    C18     16.659436   21.799334   18.901797 C.3        1 MOL1         0.0138
      60    H28     16.832493   20.722696   18.777325 H          1 MOL1         0.0794
      61    H29     17.171912   22.304203   18.072184 H          1 MOL1         0.0794
      62    O15     15.252593   22.060518   18.844008 O.3        1 MOL1        -0.5486
      63    H30     14.806078   21.329117   19.329922 H          1 MOL1         0.3769
      64    C19     23.651280   22.820564   20.805341 C.3        1 MOL1         0.2972
      65    H31     24.708158   22.927215   20.532476 H          1 MOL1         0.0751
      66    O16     23.324707   21.443844   21.111901 O.3        1 MOL1        -0.3740
      67    C20     23.291952   23.741985   22.001797 C.3        1 MOL1         0.1003
      68    H32     23.451474   24.775882   21.668684 H          1 MOL1         0.0783
      69    O17     24.129774   23.496818   23.139664 O.3        1 MOL1        -0.5519
      70    H33     23.975232   22.558902   23.417391 H          1 MOL1         0.3769
      71    C21     21.794413   23.592373   22.365236 C.3        1 MOL1         0.1053
      72    H34     21.627138   22.562205   22.709708 H          1 MOL1         0.0783
      73    O18     21.451381   24.512895   23.406766 O.3        1 MOL1        -0.5519
      74    H35     22.185738   24.450848   24.057430 H          1 MOL1         0.3769
      75    C22     20.893748   23.848173   21.129802 C.3        1 MOL1         0.1018
      76    H36     20.874304   24.927583   20.931807 H          1 MOL1         0.0783
      77    C23     21.390569   23.081095   19.871355 C.3        1 MOL1         0.1043
      78    H37     21.175918   22.022557   20.030168 H          1 MOL1         0.0783
      79    O19     22.822019   23.245497   19.701478 O.3        1 MOL1        -0.3740
      80    C24     20.689999   23.485876   18.551188 C.3        1 MOL1         0.0138
      81    H38     19.692204   23.029597   18.526430 H          1 MOL1         0.0794
      82    H39     21.257380   23.057743   17.714157 H          1 MOL1         0.0794
      83    O20     20.580010   24.905106   18.392428 O.3        1 MOL1        -0.5486
      84    H40     19.724875   25.178070   18.788365 H          1 MOL1         0.3769
      85    C25     24.881966   17.700868   22.098635 C.3        1 MOL1         0.2972
      86    H41     25.516594   16.852416   22.385576 H          1 MOL1         0.0751
      87    O21     23.574345   17.265129   21.676120 O.3        1 MOL1        -0.3740
      88    C26     24.725446   18.679705   23.289202 C.3        1 MOL1         0.1003
      89    H42     25.726497   19.055646   23.537716 H          1 MOL1         0.0783
      90    O22     24.171348   18.025272   24.441830 O.3        1 MOL1        -0.5519
      91    H43     23.944959   17.101528   24.170055 H          1 MOL1         0.3769
      92    C27     23.846766   19.885894   22.888992 C.3        1 MOL1         0.1053
      93    H44     22.845244   19.501955   22.672640 H          1 MOL1         0.0783
      94    O23     23.790948   20.796987   23.989041 O.3        1 MOL1        -0.5519
      95    H45     23.640232   20.221698   24.773532 H          1 MOL1         0.3769
      96    C28     24.381241   20.588060   21.613084 C.3        1 MOL1         0.1018
      97    H46     25.279153   21.159857   21.879896 H          1 MOL1         0.0783
      98    C29     24.714729   19.559770   20.489689 C.3        1 MOL1         0.1043
      99    H47     23.766842   19.181223   20.089448 H          1 MOL1         0.0783
     100    O24     25.479873   18.438495   21.009820 O.3        1 MOL1        -0.3740
     101    C30     25.495595   20.172106   19.301788 C.3        1 MOL1         0.0138
     102    H48     24.855830   20.911641   18.801173 H          1 MOL1         0.0794
     103    H49     25.697443   19.375326   18.573576 H          1 MOL1         0.0794
     104    O25     26.727707   20.781893   19.709294 O.3        1 MOL1        -0.5486
     105    H50     26.518673   21.579034   20.237571 H          1 MOL1         0.3769
     106    C31     21.369944   13.710019   21.269311 C.3        1 MOL1         0.2972
     107    H51     21.088269   12.668012   21.071515 H          1 MOL1         0.0751
     108    O26     20.216453   14.510516   21.590445 O.3        1 MOL1        -0.3740
     109    C32     22.314711   13.775074   22.496404 C.3        1 MOL1         0.1003
     110    H52     23.192504   13.155231   22.271938 H          1 MOL1         0.0783
     111    O27     21.649312   13.255609   23.658209 O.3        1 MOL1        -0.5519
     112    H53     20.706756   13.540380   23.583199 H          1 MOL1         0.3769
     113    C33     22.803356   15.222362   22.760418 C.3        1 MOL1         0.1053
     114    H54     21.941054   15.827789   23.074042 H          1 MOL1         0.0783
     115    O28     23.788730   15.194815   23.797687 O.3        1 MOL1        -0.5519
     116    H55     23.422172   14.585110   24.477668 H          1 MOL1         0.3769
     117    C34     23.390112   15.848854   21.470821 C.3        1 MOL1         0.1018
     118    H56     24.337688   15.350346   21.228251 H          1 MOL1         0.0783
     119    C35     22.412466   15.684344   20.276000 C.3        1 MOL1         0.1043
     120    H57     21.503203   16.258700   20.494318 H          1 MOL1         0.0783
     121    O29     22.053984   14.286252   20.132105 O.3        1 MOL1        -0.3740
     122    C36     22.977648   16.209901   18.929881 C.3        1 MOL1         0.0138
     123    H58     22.780921   17.288209   18.869392 H          1 MOL1         0.0794
     124    H59     22.427911   15.736796   18.105790 H          1 MOL1         0.0794
     125    O30     24.383284   15.975663   18.780521 O.3        1 MOL1        -0.5486
     126    H60     24.845237   16.572536   19.410978 H          1 MOL1         0.3769
     127    C1      20.930092   19.265277   20.441877 C.3        1 MOL1        -0.1693
     128    H1      21.458679   19.960241   19.784713 H          1 MOL1         0.0829
     129    H2      21.602844   18.438805   20.672691 H          1 MOL1         0.0829
     130    C2      19.507185   18.831091   19.972775 C.3        1 MOL1        -0.1768
     131    H3      18.952265   19.604351   19.431639 H          1 MOL1         0.0829
     132    H4      19.459823   17.904125   19.396082 H          1 MOL1         0.0829
     133    C3      19.157221   18.727138   21.490906 C.3        1 MOL1         0.1211
     134    H5      18.132833   19.011729   21.742525 H          1 MOL1         0.0786
     135    C4      20.207020   19.854624   21.698551 C.3        1 MOL1        -0.1768
     136    H6      20.747987   19.818714   22.647738 H          1 MOL1         0.0829
     137    H7      19.812943   20.862066   21.573974 H          1 MOL1         0.0829
     138    O1      19.491770   17.506036   22.113987 O.3        1 MOL1        -0.5515
     139    H8      19.428889   17.641105   23.078322 H          1 MOL1         0.3773
@<TRIPOS>BOND
    1     1     2    1
    2     1     3    1
    3     1     4    1
    4     4     5    1
    5     4     6    1
    6     6     7    1
    7     4     8    1
    8     8     9    1
    9     8    10    1
   10    10    11    1
   11     8    12    1
   12    12    13    1
   13    12    14    1
   14    14    15    1
   15     1    16    1
   16    14    16    1
   17    14    17    1
   18    17    18    1
   19    17    19    1
   20    17    20    1
   21    20    21    1
   22    22    23    1
   23    22    24    1
   24    22    25    1
   25    25    26    1
   26    25    27    1
   27    27    28    1
   28    25    29    1
   29    29    30    1
   30    29    31    1
   31    31    32    1
   32     3    33    1
   33    29    33    1
   34    33    34    1
   35    33    35    1
   36    35    36    1
   37    22    37    1
   38    35    37    1
   39    35    38    1
   40    38    39    1
   41    38    40    1
   42    38    41    1
   43    41    42    1
   44    43    44    1
   45    43    45    1
   46    43    46    1
   47    46    47    1
   48    46    48    1
   49    48    49    1
   50    46    50    1
   51    50    51    1
   52    50    52    1
   53    52    53    1
   54    24    54    1
   55    50    54    1
   56    54    55    1
   57    54    56    1
   58    56    57    1
   59    43    58    1
   60    56    58    1
   61    56    59    1
   62    59    60    1
   63    59    61    1
   64    59    62    1
   65    62    63    1
   66    64    65    1
   67    64    66    1
   68    64    67    1
   69    67    68    1
   70    67    69    1
   71    69    70    1
   72    67    71    1
   73    71    72    1
   74    71    73    1
   75    73    74    1
   76    45    75    1
   77    71    75    1
   78    75    76    1
   79    75    77    1
   80    77    78    1
   81    64    79    1
   82    77    79    1
   83    77    80    1
   84    80    81    1
   85    80    82    1
   86    80    83    1
   87    83    84    1
   88    85    86    1
   89    85    87    1
   90    85    88    1
   91    88    89    1
   92    88    90    1
   93    90    91    1
   94    88    92    1
   95    92    93    1
   96    92    94    1
   97    94    95    1
   98    66    96    1
   99    92    96    1
  100    96    97    1
  101    96    98    1
  102    98    99    1
  103    85   100    1
  104    98   100    1
  105    98   101    1
  106   101   102    1
  107   101   103    1
  108   101   104    1
  109   104   105    1
  110   106   107    1
  111    12   108    1
  112   106   108    1
  113   106   109    1
  114   109   110    1
  115   109   111    1
  116   111   112    1
  117   109   113    1
  118   113   114    1
  119   113   115    1
  120   115   116    1
  121    87   117    1
  122   113   117    1
  123   117   118    1
  124   117   119    1
  125   119   120    1
  126   106   121    1
  127   119   121    1
  128   119   122    1
  129   122   123    1
  130   122   124    1
  131   122   125    1
  132   125   126    1
  133   127   128    1
  134   127   129    1
  135   127   130    1
  136   130   131    1
  137   130   132    1
  138   130   133    1
  139   133   134    1
  140   127   135    1
  141   133   135    1
  142   135   136    1
  143   135   137    1
  144   133   138    1
  145   138   139    1
@<TRIPOS>SUBSTRUCTURE
       1 MOL1            1 RESIDUE      1      MOL     
       2 MOL1          139 RESIDUE      1      MOL     
@<SCITEGIC>MOL_PROPERTY
feprocess Rank
SciTegic.value.IntegerValue
214

@<SCITEGIC>MOL_PROPERTY
Conf_Id
SciTegic.value.IntegerValue
698

@<SCITEGIC>MOL_PROPERTY
Probability
SciTegic.value.DoubleValue
0.00

@<SCITEGIC>MOL_PROPERTY
G
SciTegic.value.DoubleValue
554.762

@<SCITEGIC>MOL_PROPERTY
E
SciTegic.value.DoubleValue
376.451

@<SCITEGIC>MOL_PROPERTY
-TS
SciTegic.value.DoubleValue
178.311

@<SCITEGIC>MOL_PROPERTY
U+W
SciTegic.value.DoubleValue
253.939

@<SCITEGIC>MOL_PROPERTY
U
SciTegic.value.DoubleValue
293.602

@<SCITEGIC>MOL_PROPERTY
W
SciTegic.value.DoubleValue
-39.663

@<SCITEGIC>MOL_PROPERTY
W(PB)
SciTegic.value.DoubleValue
-45.629

@<SCITEGIC>MOL_PROPERTY
W(SA)
SciTegic.value.DoubleValue
5.967

@<SCITEGIC>MOL_PROPERTY
Valence
SciTegic.value.DoubleValue
157.090

@<SCITEGIC>MOL_PROPERTY
Coulomb
SciTegic.value.DoubleValue
158.172

@<SCITEGIC>MOL_PROPERTY
VdW
SciTegic.value.DoubleValue
-21.660

@<SCITEGIC>MOL_PROPERTY
VdW6
SciTegic.value.DoubleValue
-170.513

@<SCITEGIC>MOL_PROPERTY
VdW12
SciTegic.value.DoubleValue
148.853

@<SCITEGIC>MOL_PROPERTY
Bond
SciTegic.value.DoubleValue
4.948

@<SCITEGIC>MOL_PROPERTY
Angle
SciTegic.value.DoubleValue
12.913

@<SCITEGIC>MOL_PROPERTY
Pdih
SciTegic.value.DoubleValue
139.228

@<SCITEGIC>MOL_PROPERTY
Idih
SciTegic.value.DoubleValue
0.000

@<SCITEGIC>MOL_PROPERTY
Tether
SciTegic.value.DoubleValue
0.000

@<TRIPOS>MOLECULE
CD_guest-s16_fast_vm2_rndm.mol2 : feprocess host+ligand conformer 215
         139         145           2
SMALL
USER_CHARGES
 
@<TRIPOS>ATOM
       1    C1      16.097075   15.082207   21.009193 C.3        1 MOL1         0.2972
       2    H1      15.048057   14.930129   20.725292 H          1 MOL1         0.0751
       3    O1      16.329527   16.416137   21.498432 O.3        1 MOL1        -0.3740
       4    C2      16.482193   14.102195   22.144178 C.3        1 MOL1         0.1003
       5    H2      16.323050   13.081832   21.771867 H          1 MOL1         0.0783
       6    O2      15.651878   14.327221   23.295167 O.3        1 MOL1        -0.5519
       7    H3      15.492458   15.302366   23.346581 H          1 MOL1         0.3769
       8    C3      17.975930   14.249772   22.521289 C.3        1 MOL1         0.1053
       9    H4      18.109565   15.226087   23.004058 H          1 MOL1         0.0783
      10    O3      18.345473   13.211818   23.435465 O.3        1 MOL1        -0.5519
      11    H5      17.633845   13.201393   24.113465 H          1 MOL1         0.3769
      12    C4      18.886433   14.195399   21.269337 C.3        1 MOL1         0.1018
      13    H6      18.911636   13.156808   20.914297 H          1 MOL1         0.0783
      14    C5      18.376366   15.120445   20.125260 C.3        1 MOL1         0.1043
      15    H7      18.494191   16.162129   20.446710 H          1 MOL1         0.0783
      16    O4      16.971923   14.850580   19.884962 O.3        1 MOL1        -0.3740
      17    C6      19.129957   14.988104   18.777547 C.3        1 MOL1         0.0138
      18    H8      19.990159   15.668092   18.793285 H          1 MOL1         0.0794
      19    H9      18.468548   15.333135   17.971780 H          1 MOL1         0.0794
      20    O5      19.576477   13.655941   18.505237 O.3        1 MOL1        -0.5486
      21    H10     20.456758   13.562760   18.936134 H          1 MOL1         0.3769
      22    C7      14.788150   20.290898   21.183474 C.3        1 MOL1         0.2972
      23    H11     14.111008   21.134181   20.997356 H          1 MOL1         0.0751
      24    O6      16.099549   20.742353   21.578477 O.3        1 MOL1        -0.3740
      25    C8      14.213091   19.412673   22.323309 C.3        1 MOL1         0.1003
      26    H12     13.208520   19.093082   22.017052 H          1 MOL1         0.0783
      27    O7      14.118254   20.171075   23.539999 O.3        1 MOL1        -0.5519
      28    H13     14.825543   20.862512   23.505534 H          1 MOL1         0.3769
      29    C9      15.068317   18.142779   22.543026 C.3        1 MOL1         0.1053
      30    H14     16.039446   18.450389   22.951096 H          1 MOL1         0.0783
      31    O8      14.408353   17.272941   23.469713 O.3        1 MOL1        -0.5519
      32    H15     14.133612   17.854208   24.213370 H          1 MOL1         0.3769
      33    C10     15.318332   17.398292   21.210348 C.3        1 MOL1         0.1018
      34    H16     14.375088   16.938782   20.886806 H          1 MOL1         0.0783
      35    C11     15.841743   18.363146   20.109417 C.3        1 MOL1         0.1043
      36    H17     16.828115   18.727952   20.420842 H          1 MOL1         0.0783
      37    O9      14.930436   19.484844   19.994057 O.3        1 MOL1        -0.3740
      38    C12     16.016849   17.734317   18.704178 C.3        1 MOL1         0.0138
      39    H18     17.002169   17.254079   18.657163 H          1 MOL1         0.0794
      40    H19     16.020599   18.540695   17.958780 H          1 MOL1         0.0794
      41    O10     15.001009   16.778239   18.384361 O.3        1 MOL1        -0.5486
      42    H20     15.343533   15.900446   18.664783 H          1 MOL1         0.3769
      43    C13     18.491451   24.179993   21.278210 C.3        1 MOL1         0.2972
      44    H21     18.833494   25.203730   21.079950 H          1 MOL1         0.0751
      45    O11     19.563662   23.346658   21.753211 O.3        1 MOL1        -0.3740
      46    C14     17.404753   24.192177   22.383528 C.3        1 MOL1         0.1003
      47    H22     16.583725   24.832951   22.036480 H          1 MOL1         0.0783
      48    O12     17.945467   24.726918   23.602571 O.3        1 MOL1        -0.5519
      49    H23     18.891576   24.443131   23.641733 H          1 MOL1         0.3769
      50    C15     16.837406   22.771421   22.624322 C.3        1 MOL1         0.1053
      51    H24     17.631841   22.151928   23.061884 H          1 MOL1         0.0783
      52    O13     15.726912   22.842607   23.524914 O.3        1 MOL1        -0.5519
      53    H25     16.029324   23.422263   24.259134 H          1 MOL1         0.3769
      54    C16     16.393556   22.124381   21.291551 C.3        1 MOL1         0.1018
      55    H26     15.512123   22.666838   20.924877 H          1 MOL1         0.0783
      56    C17     17.518015   22.198070   20.222204 C.3        1 MOL1         0.1043
      57    H27     18.363512   21.593287   20.571608 H          1 MOL1         0.0783
      58    O14     17.941962   23.578648   20.084565 O.3        1 MOL1        -0.3740
      59    C18     17.126881   21.661160   18.821678 C.3        1 MOL1         0.0138
      60    H28     17.285196   20.575463   18.808954 H          1 MOL1         0.0794
      61    H29     17.809549   22.092036   18.077548 H          1 MOL1         0.0794
      62    O15     15.771337   21.950292   18.464801 O.3        1 MOL1        -0.5486
      63    H30     15.221059   21.223429   18.837148 H          1 MOL1         0.3769
      64    C19     23.692850   22.833089   21.489964 C.3        1 MOL1         0.2972
      65    H31     24.765822   22.998631   21.329370 H          1 MOL1         0.0751
      66    O16     23.418840   21.465769   21.862557 O.3        1 MOL1        -0.3740
      67    C20     23.196365   23.755496   22.630501 C.3        1 MOL1         0.1003
      68    H32     23.419990   24.790081   22.339329 H          1 MOL1         0.0783
      69    O17     23.884012   23.446524   23.853478 O.3        1 MOL1        -0.5519
      70    H33     24.092697   22.480662   23.830003 H          1 MOL1         0.3769
      71    C21     21.666666   23.635749   22.825147 C.3        1 MOL1         0.1053
      72    H34     21.454893   22.639350   23.232681 H          1 MOL1         0.0783
      73    O18     21.219790   24.633555   23.749298 O.3        1 MOL1        -0.5519
      74    H35     21.844000   24.578969   24.506703 H          1 MOL1         0.3769
      75    C22     20.907559   23.786727   21.483381 C.3        1 MOL1         0.1018
      76    H36     20.944872   24.841797   21.181817 H          1 MOL1         0.0783
      77    C23     21.520680   22.893241   20.366222 C.3        1 MOL1         0.1043
      78    H37     21.346446   21.843895   20.635565 H          1 MOL1         0.0783
      79    O19     22.947728   23.136029   20.292000 O.3        1 MOL1        -0.3740
      80    C24     20.926111   23.096747   18.949410 C.3        1 MOL1         0.0138
      81    H38     20.051107   22.444579   18.841435 H          1 MOL1         0.0794
      82    H39     21.664013   22.760844   18.208750 H          1 MOL1         0.0794
      83    O20     20.550993   24.451611   18.682382 O.3        1 MOL1        -0.5486
      84    H40     19.614440   24.544217   18.968321 H          1 MOL1         0.3769
      85    C25     25.049284   17.638468   21.395073 C.3        1 MOL1         0.2972
      86    H41     25.723082   16.802776   21.167504 H          1 MOL1         0.0751
      87    O21     23.753131   17.174977   21.823137 O.3        1 MOL1        -0.3740
      88    C26     25.648901   18.492747   22.539602 C.3        1 MOL1         0.1003
      89    H42     26.635624   18.844170   22.211091 H          1 MOL1         0.0783
      90    O22     25.795544   17.695714   23.725966 O.3        1 MOL1        -0.5519
      91    H43     25.020157   17.081825   23.753903 H          1 MOL1         0.3769
      92    C27     24.768930   19.732139   22.827490 C.3        1 MOL1         0.1053
      93    H44     23.829083   19.374620   23.265260 H          1 MOL1         0.0783
      94    O23     25.435823   20.594958   23.754907 O.3        1 MOL1        -0.5519
      95    H45     25.739160   20.005765   24.480720 H          1 MOL1         0.3769
      96    C28     24.448211   20.510577   21.526733 C.3        1 MOL1         0.1018
      97    H46     25.371024   21.000738   21.189362 H          1 MOL1         0.0783
      98    C29     23.929905   19.569088   20.402834 C.3        1 MOL1         0.1043
      99    H47     22.959203   19.166352   20.715849 H          1 MOL1         0.0783
     100    O24     24.869375   18.478233   20.235157 O.3        1 MOL1        -0.3740
     101    C30     23.716699   20.237287   19.020805 C.3        1 MOL1         0.0138
     102    H48     22.708999   20.669114   18.993906 H          1 MOL1         0.0794
     103    H49     23.748130   19.458410   18.247488 H          1 MOL1         0.0794
     104    O25     24.682384   21.252270   18.728607 O.3        1 MOL1        -0.5486
     105    H50     24.338862   22.088001   19.119866 H          1 MOL1         0.3769
     106    C31     21.294315   13.798596   21.375222 C.3        1 MOL1         0.2972
     107    H51     20.964154   12.772290   21.170129 H          1 MOL1         0.0751
     108    O26     20.182250   14.652018   21.706304 O.3        1 MOL1        -0.3740
     109    C32     22.266358   13.795654   22.582279 C.3        1 MOL1         0.1003
     110    H52     23.095013   13.118850   22.336567 H          1 MOL1         0.0783
     111    O27     21.594230   13.315912   23.757901 O.3        1 MOL1        -0.5519
     112    H53     20.645357   13.577087   23.667086 H          1 MOL1         0.3769
     113    C33     22.859829   15.202547   22.834752 C.3        1 MOL1         0.1053
     114    H54     22.052805   15.860483   23.184248 H          1 MOL1         0.0783
     115    O28     23.884885   15.116621   23.831516 O.3        1 MOL1        -0.5519
     116    H55     23.490575   14.585280   24.558392 H          1 MOL1         0.3769
     117    C34     23.442534   15.798572   21.531861 C.3        1 MOL1         0.1018
     118    H56     24.338260   15.223518   21.262436 H          1 MOL1         0.0783
     119    C35     22.410956   15.729360   20.370733 C.3        1 MOL1         0.1043
     120    H57     21.555106   16.364011   20.635557 H          1 MOL1         0.0783
     121    O29     21.966815   14.356514   20.225796 O.3        1 MOL1        -0.3740
     122    C36     22.927869   16.214074   18.992479 C.3        1 MOL1         0.0138
     123    H58     22.806895   17.302995   18.938491 H          1 MOL1         0.0794
     124    H59     22.290413   15.784486   18.208547 H          1 MOL1         0.0794
     125    O30     24.295461   15.869437   18.749523 O.3        1 MOL1        -0.5486
     126    H60     24.834745   16.629722   19.064059 H          1 MOL1         0.3769
     127    C1      19.413099   18.012418   22.650209 C.3        1 MOL1        -0.1693
     128    H1      18.605234   17.328307   22.383660 H          1 MOL1         0.0829
     129    H2      20.239482   17.433048   23.080661 H          1 MOL1         0.0829
     130    C2      18.987128   19.258323   23.491557 C.3        1 MOL1        -0.1768
     131    H3      17.974111   19.623509   23.291862 H          1 MOL1         0.0829
     132    H4      19.123447   19.175848   24.575240 H          1 MOL1         0.0829
     133    C3      20.100904   20.032442   22.727751 C.3        1 MOL1         0.1211
     134    H5      19.849258   21.074309   22.517116 H          1 MOL1         0.0786
     135    C4      19.840272   19.039835   21.552282 C.3        1 MOL1        -0.1768
     136    H6      20.712752   18.762048   20.953864 H          1 MOL1         0.0829
     137    H7      19.032834   19.342787   20.877696 H          1 MOL1         0.0829
     138    O1      21.381823   19.954148   23.313779 O.3        1 MOL1        -0.5515
     139    H8      22.010912   20.445960   22.743776 H          1 MOL1         0.3773
@<TRIPOS>BOND
    1     1     2    1
    2     1     3    1
    3     1     4    1
    4     4     5    1
    5     4     6    1
    6     6     7    1
    7     4     8    1
    8     8     9    1
    9     8    10    1
   10    10    11    1
   11     8    12    1
   12    12    13    1
   13    12    14    1
   14    14    15    1
   15     1    16    1
   16    14    16    1
   17    14    17    1
   18    17    18    1
   19    17    19    1
   20    17    20    1
   21    20    21    1
   22    22    23    1
   23    22    24    1
   24    22    25    1
   25    25    26    1
   26    25    27    1
   27    27    28    1
   28    25    29    1
   29    29    30    1
   30    29    31    1
   31    31    32    1
   32     3    33    1
   33    29    33    1
   34    33    34    1
   35    33    35    1
   36    35    36    1
   37    22    37    1
   38    35    37    1
   39    35    38    1
   40    38    39    1
   41    38    40    1
   42    38    41    1
   43    41    42    1
   44    43    44    1
   45    43    45    1
   46    43    46    1
   47    46    47    1
   48    46    48    1
   49    48    49    1
   50    46    50    1
   51    50    51    1
   52    50    52    1
   53    52    53    1
   54    24    54    1
   55    50    54    1
   56    54    55    1
   57    54    56    1
   58    56    57    1
   59    43    58    1
   60    56    58    1
   61    56    59    1
   62    59    60    1
   63    59    61    1
   64    59    62    1
   65    62    63    1
   66    64    65    1
   67    64    66    1
   68    64    67    1
   69    67    68    1
   70    67    69    1
   71    69    70    1
   72    67    71    1
   73    71    72    1
   74    71    73    1
   75    73    74    1
   76    45    75    1
   77    71    75    1
   78    75    76    1
   79    75    77    1
   80    77    78    1
   81    64    79    1
   82    77    79    1
   83    77    80    1
   84    80    81    1
   85    80    82    1
   86    80    83    1
   87    83    84    1
   88    85    86    1
   89    85    87    1
   90    85    88    1
   91    88    89    1
   92    88    90    1
   93    90    91    1
   94    88    92    1
   95    92    93    1
   96    92    94    1
   97    94    95    1
   98    66    96    1
   99    92    96    1
  100    96    97    1
  101    96    98    1
  102    98    99    1
  103    85   100    1
  104    98   100    1
  105    98   101    1
  106   101   102    1
  107   101   103    1
  108   101   104    1
  109   104   105    1
  110   106   107    1
  111    12   108    1
  112   106   108    1
  113   106   109    1
  114   109   110    1
  115   109   111    1
  116   111   112    1
  117   109   113    1
  118   113   114    1
  119   113   115    1
  120   115   116    1
  121    87   117    1
  122   113   117    1
  123   117   118    1
  124   117   119    1
  125   119   120    1
  126   106   121    1
  127   119   121    1
  128   119   122    1
  129   122   123    1
  130   122   124    1
  131   122   125    1
  132   125   126    1
  133   127   128    1
  134   127   129    1
  135   127   130    1
  136   130   131    1
  137   130   132    1
  138   130   133    1
  139   133   134    1
  140   127   135    1
  141   133   135    1
  142   135   136    1
  143   135   137    1
  144   133   138    1
  145   138   139    1
@<TRIPOS>SUBSTRUCTURE
       1 MOL1            1 RESIDUE      1      MOL     
       2 MOL1          139 RESIDUE      1      MOL     
@<SCITEGIC>MOL_PROPERTY
feprocess Rank
SciTegic.value.IntegerValue
215

@<SCITEGIC>MOL_PROPERTY
Conf_Id
SciTegic.value.IntegerValue
773

@<SCITEGIC>MOL_PROPERTY
Probability
SciTegic.value.DoubleValue
0.00

@<SCITEGIC>MOL_PROPERTY
G
SciTegic.value.DoubleValue
555.042

@<SCITEGIC>MOL_PROPERTY
E
SciTegic.value.DoubleValue
378.077

@<SCITEGIC>MOL_PROPERTY
-TS
SciTegic.value.DoubleValue
176.965

@<SCITEGIC>MOL_PROPERTY
U+W
SciTegic.value.DoubleValue
255.565

@<SCITEGIC>MOL_PROPERTY
U
SciTegic.value.DoubleValue
294.142

@<SCITEGIC>MOL_PROPERTY
W
SciTegic.value.DoubleValue
-38.577

@<SCITEGIC>MOL_PROPERTY
W(PB)
SciTegic.value.DoubleValue
-44.504

@<SCITEGIC>MOL_PROPERTY
W(SA)
SciTegic.value.DoubleValue
5.927

@<SCITEGIC>MOL_PROPERTY
Valence
SciTegic.value.DoubleValue
158.409

@<SCITEGIC>MOL_PROPERTY
Coulomb
SciTegic.value.DoubleValue
159.502

@<SCITEGIC>MOL_PROPERTY
VdW
SciTegic.value.DoubleValue
-23.769

@<SCITEGIC>MOL_PROPERTY
VdW6
SciTegic.value.DoubleValue
-169.973

@<SCITEGIC>MOL_PROPERTY
VdW12
SciTegic.value.DoubleValue
146.204

@<SCITEGIC>MOL_PROPERTY
Bond
SciTegic.value.DoubleValue
4.429

@<SCITEGIC>MOL_PROPERTY
Angle
SciTegic.value.DoubleValue
11.060

@<SCITEGIC>MOL_PROPERTY
Pdih
SciTegic.value.DoubleValue
142.920

@<SCITEGIC>MOL_PROPERTY
Idih
SciTegic.value.DoubleValue
0.000

@<SCITEGIC>MOL_PROPERTY
Tether
SciTegic.value.DoubleValue
0.000

