VeraChem MOL file


 20 19  0  0  0  0  0  0  0  0999 V2000     
   20.3912   20.1731   24.1280 N   0  3  0  0  0  0  0  0  0  0  0  0
   20.3064   20.4447   25.1112 H   0  0  0  0  0  0  0  0  0  0  0  0
   20.0070   20.9380   23.5676 H   0  0  0  0  0  0  0  0  0  0  0  0
   21.3895   20.1070   23.9148 H   0  0  0  0  0  0  0  0  0  0  0  0
   19.6811   18.8752   23.8518 C   0  0  2  0  0  0  0  0  0  0  0  0
   18.6271   19.0338   24.1005 H   0  0  0  0  0  0  0  0  0  0  0  0
   20.2261   17.7582   24.7569 C   0  0  0  0  0  0  0  0  0  0  0  0
   19.6673   16.8263   24.6060 H   0  0  0  0  0  0  0  0  0  0  0  0
   20.1319   18.0343   25.8143 H   0  0  0  0  0  0  0  0  0  0  0  0
   21.2848   17.5591   24.5487 H   0  0  0  0  0  0  0  0  0  0  0  0
   19.7689   18.4547   22.3680 C   0  0  0  0  0  0  0  0  0  0  0  0
   20.8205   18.3118   22.0857 H   0  0  0  0  0  0  0  0  0  0  0  0
   19.2772   17.4803   22.2464 H   0  0  0  0  0  0  0  0  0  0  0  0
   19.1036   19.4720   21.4098 C   0  0  0  0  0  0  0  0  0  0  0  0
   19.6147   20.4422   21.4714 H   0  0  0  0  0  0  0  0  0  0  0  0
   18.0613   19.6412   21.7150 H   0  0  0  0  0  0  0  0  0  0  0  0
   19.1341   18.9807   19.9466 C   0  0  0  0  0  0  0  0  0  0  0  0
   18.5959   18.0302   19.8370 H   0  0  0  0  0  0  0  0  0  0  0  0
   20.1656   18.8311   19.6016 H   0  0  0  0  0  0  0  0  0  0  0  0
   18.6600   19.7140   19.2814 H   0  0  0  0  0  0  0  0  0  0  0  0
  1  2  1  0  0  0  0
  1  3  1  0  0  0  0
  1  4  1  0  0  0  0
  1  5  1  0  0  0  0
  5  6  1  0  0  0  0
  5  7  1  0  0  0  0
  7  8  1  0  0  0  0
  7  9  1  0  0  0  0
  7 10  1  0  0  0  0
  5 11  1  0  0  0  0
 11 12  1  0  0  0  0
 11 13  1  0  0  0  0
 11 14  1  0  0  0  0
 14 15  1  0  0  0  0
 14 16  1  0  0  0  0
 14 17  1  0  0  0  0
 17 18  1  0  0  0  0
 17 19  1  0  0  0  0
 17 20  1  0  0  0  0
M  END
> <VM2 Rank>
1

> <Conf_Id>
211

> <Probability>
40.79

> <Sum Probability>
40.79

> <Delta G>
0.000

> <G>
2.706

> <E>
-20.181

> <-TS>
22.887

> <U+W>
-36.277

> <U>
22.080

> <W>
-58.356

> <W(PB)>
-60.288

> <W(SA)>
1.932

> <Valence>
1.884

> <Coulomb>
19.559

> <VdW>
0.637

> <VdW6>
-4.482

> <VdW12>
5.119

> <Bond>
0.136

> <Angle>
0.867

> <Pdih>
0.882

> <Idih>
0.000

> <Tether>
0.000

$$$$
VeraChem MOL file


 20 19  0  0  0  0  0  0  0  0999 V2000     
   20.6729   20.0594   24.6125 N   0  3  0  0  0  0  0  0  0  0  0  0
   20.4990   19.9950   25.6191 H   0  0  0  0  0  0  0  0  0  0  0  0
   20.5583   21.0417   24.3484 H   0  0  0  0  0  0  0  0  0  0  0  0
   21.6536   19.8127   24.4571 H   0  0  0  0  0  0  0  0  0  0  0  0
   19.7478   19.1634   23.8354 C   0  0  2  0  0  0  0  0  0  0  0  0
   18.7310   19.4974   24.0644 H   0  0  0  0  0  0  0  0  0  0  0  0
   19.8977   17.7048   24.3053 C   0  0  0  0  0  0  0  0  0  0  0  0
   19.7835   17.6360   25.3941 H   0  0  0  0  0  0  0  0  0  0  0  0
   20.8831   17.3016   24.0409 H   0  0  0  0  0  0  0  0  0  0  0  0
   19.1315   17.0607   23.8589 H   0  0  0  0  0  0  0  0  0  0  0  0
   19.9739   19.3116   22.3128 C   0  0  0  0  0  0  0  0  0  0  0  0
   19.9615   20.3805   22.0621 H   0  0  0  0  0  0  0  0  0  0  0  0
   20.9743   18.9427   22.0499 H   0  0  0  0  0  0  0  0  0  0  0  0
   18.9090   18.5921   21.4494 C   0  0  0  0  0  0  0  0  0  0  0  0
   17.9039   18.9146   21.7555 H   0  0  0  0  0  0  0  0  0  0  0  0
   18.9581   17.5068   21.6096 H   0  0  0  0  0  0  0  0  0  0  0  0
   19.1036   18.8828   19.9456 C   0  0  0  0  0  0  0  0  0  0  0  0
   18.3432   18.3625   19.3486 H   0  0  0  0  0  0  0  0  0  0  0  0
   20.0901   18.5447   19.6025 H   0  0  0  0  0  0  0  0  0  0  0  0
   19.0184   19.9570   19.7357 H   0  0  0  0  0  0  0  0  0  0  0  0
  1  2  1  0  0  0  0
  1  3  1  0  0  0  0
  1  4  1  0  0  0  0
  1  5  1  0  0  0  0
  5  6  1  0  0  0  0
  5  7  1  0  0  0  0
  7  8  1  0  0  0  0
  7  9  1  0  0  0  0
  7 10  1  0  0  0  0
  5 11  1  0  0  0  0
 11 12  1  0  0  0  0
 11 13  1  0  0  0  0
 11 14  1  0  0  0  0
 14 15  1  0  0  0  0
 14 16  1  0  0  0  0
 14 17  1  0  0  0  0
 17 18  1  0  0  0  0
 17 19  1  0  0  0  0
 17 20  1  0  0  0  0
M  END
> <VM2 Rank>
2

> <Conf_Id>
304

> <Probability>
18.36

> <Sum Probability>
59.15

> <Delta G>
0.476

> <G>
3.182

> <E>
-19.721

> <-TS>
22.903

> <U+W>
-35.817

> <U>
22.495

> <W>
-58.312

> <W(PB)>
-60.259

> <W(SA)>
1.948

> <Valence>
2.419

> <Coulomb>
19.304

> <VdW>
0.772

> <VdW6>
-4.635

> <VdW12>
5.407

> <Bond>
0.149

> <Angle>
1.142

> <Pdih>
1.129

> <Idih>
0.000

> <Tether>
0.000

$$$$
VeraChem MOL file


 20 19  0  0  0  0  0  0  0  0999 V2000     
   20.2984   20.2326   24.2273 N   0  3  0  0  0  0  0  0  0  0  0  0
   19.6670   21.0310   24.1198 H   0  0  0  0  0  0  0  0  0  0  0  0
   21.0732   20.3632   23.5730 H   0  0  0  0  0  0  0  0  0  0  0  0
   20.6865   20.2777   25.1734 H   0  0  0  0  0  0  0  0  0  0  0  0
   19.5879   18.9286   23.9852 C   0  0  2  0  0  0  0  0  0  0  0  0
   18.7947   18.8720   24.7373 H   0  0  0  0  0  0  0  0  0  0  0  0
   20.5307   17.7341   24.2150 C   0  0  0  0  0  0  0  0  0  0  0  0
   20.0095   16.7855   24.0357 H   0  0  0  0  0  0  0  0  0  0  0  0
   20.8913   17.7239   25.2509 H   0  0  0  0  0  0  0  0  0  0  0  0
   21.4064   17.7752   23.5566 H   0  0  0  0  0  0  0  0  0  0  0  0
   18.9068   18.8736   22.5966 C   0  0  0  0  0  0  0  0  0  0  0  0
   18.3345   17.9394   22.5211 H   0  0  0  0  0  0  0  0  0  0  0  0
   18.1684   19.6841   22.5399 H   0  0  0  0  0  0  0  0  0  0  0  0
   19.8732   18.9807   21.3888 C   0  0  0  0  0  0  0  0  0  0  0  0
   20.5884   18.1474   21.3992 H   0  0  0  0  0  0  0  0  0  0  0  0
   20.4608   19.9062   21.4541 H   0  0  0  0  0  0  0  0  0  0  0  0
   19.1080   18.9645   20.0480 C   0  0  0  0  0  0  0  0  0  0  0  0
   18.5353   18.0352   19.9311 H   0  0  0  0  0  0  0  0  0  0  0  0
   19.8048   19.0387   19.2030 H   0  0  0  0  0  0  0  0  0  0  0  0
   18.4083   19.8078   19.9818 H   0  0  0  0  0  0  0  0  0  0  0  0
  1  2  1  0  0  0  0
  1  3  1  0  0  0  0
  1  4  1  0  0  0  0
  1  5  1  0  0  0  0
  5  6  1  0  0  0  0
  5  7  1  0  0  0  0
  7  8  1  0  0  0  0
  7  9  1  0  0  0  0
  7 10  1  0  0  0  0
  5 11  1  0  0  0  0
 11 12  1  0  0  0  0
 11 13  1  0  0  0  0
 11 14  1  0  0  0  0
 14 15  1  0  0  0  0
 14 16  1  0  0  0  0
 14 17  1  0  0  0  0
 17 18  1  0  0  0  0
 17 19  1  0  0  0  0
 17 20  1  0  0  0  0
M  END
> <VM2 Rank>
3

> <Conf_Id>
1

> <Probability>
15.83

> <Sum Probability>
74.98

> <Delta G>
0.564

> <G>
3.270

> <E>
-19.759

> <-TS>
23.029

> <U+W>
-35.856

> <U>
22.625

> <W>
-58.481

> <W(PB)>
-60.401

> <W(SA)>
1.920

> <Valence>
2.404

> <Coulomb>
19.464

> <VdW>
0.757

> <VdW6>
-5.074

> <VdW12>
5.830

> <Bond>
0.172

> <Angle>
1.207

> <Pdih>
1.025

> <Idih>
0.000

> <Tether>
0.000

$$$$
VeraChem MOL file


 20 19  0  0  0  0  0  0  0  0999 V2000     
   20.0485   20.2198   23.9724 N   0  3  0  0  0  0  0  0  0  0  0  0
   19.5919   20.5336   24.8330 H   0  0  0  0  0  0  0  0  0  0  0  0
   19.7980   20.8827   23.2344 H   0  0  0  0  0  0  0  0  0  0  0  0
   21.0584   20.2893   24.1192 H   0  0  0  0  0  0  0  0  0  0  0  0
   19.6393   18.8179   23.6100 C   0  0  2  0  0  0  0  0  0  0  0  0
   18.5536   18.8319   23.4749 H   0  0  0  0  0  0  0  0  0  0  0  0
   19.9663   17.8439   24.7537 C   0  0  0  0  0  0  0  0  0  0  0  0
   19.4769   18.1586   25.6836 H   0  0  0  0  0  0  0  0  0  0  0  0
   21.0469   17.7935   24.9363 H   0  0  0  0  0  0  0  0  0  0  0  0
   19.6122   16.8327   24.5176 H   0  0  0  0  0  0  0  0  0  0  0  0
   20.2855   18.3357   22.2913 C   0  0  0  0  0  0  0  0  0  0  0  0
   21.3763   18.2990   22.4123 H   0  0  0  0  0  0  0  0  0  0  0  0
   19.9644   17.3046   22.0923 H   0  0  0  0  0  0  0  0  0  0  0  0
   19.9415   19.2099   21.0587 C   0  0  0  0  0  0  0  0  0  0  0  0
   20.4477   18.7914   20.1774 H   0  0  0  0  0  0  0  0  0  0  0  0
   20.3465   20.2229   21.1862 H   0  0  0  0  0  0  0  0  0  0  0  0
   18.4240   19.2868   20.7749 C   0  0  0  0  0  0  0  0  0  0  0  0
   18.2331   19.8550   19.8552 H   0  0  0  0  0  0  0  0  0  0  0  0
   17.8843   19.7858   21.5896 H   0  0  0  0  0  0  0  0  0  0  0  0
   17.9960   18.2844   20.6435 H   0  0  0  0  0  0  0  0  0  0  0  0
  1  2  1  0  0  0  0
  1  3  1  0  0  0  0
  1  4  1  0  0  0  0
  1  5  1  0  0  0  0
  5  6  1  0  0  0  0
  5  7  1  0  0  0  0
  7  8  1  0  0  0  0
  7  9  1  0  0  0  0
  7 10  1  0  0  0  0
  5 11  1  0  0  0  0
 11 12  1  0  0  0  0
 11 13  1  0  0  0  0
 11 14  1  0  0  0  0
 14 15  1  0  0  0  0
 14 16  1  0  0  0  0
 14 17  1  0  0  0  0
 17 18  1  0  0  0  0
 17 19  1  0  0  0  0
 17 20  1  0  0  0  0
M  END
> <VM2 Rank>
4

> <Conf_Id>
280

> <Probability>
13.57

> <Sum Probability>
88.55

> <Delta G>
0.656

> <G>
3.362

> <E>
-19.713

> <-TS>
23.076

> <U+W>
-35.810

> <U>
22.370

> <W>
-58.179

> <W(PB)>
-60.102

> <W(SA)>
1.923

> <Valence>
2.168

> <Coulomb>
19.636

> <VdW>
0.566

> <VdW6>
-5.263

> <VdW12>
5.829

> <Bond>
0.162

> <Angle>
1.066

> <Pdih>
0.939

> <Idih>
0.000

> <Tether>
0.000

$$$$
VeraChem MOL file


 20 19  0  0  0  0  0  0  0  0999 V2000     
   20.3129   20.0924   24.6251 N   0  3  0  0  0  0  0  0  0  0  0  0
   20.3189   21.0661   24.3095 H   0  0  0  0  0  0  0  0  0  0  0  0
   21.2798   19.8327   24.8358 H   0  0  0  0  0  0  0  0  0  0  0  0
   19.7915   20.0631   25.5054 H   0  0  0  0  0  0  0  0  0  0  0  0
   19.7071   19.1784   23.5955 C   0  0  2  0  0  0  0  0  0  0  0  0
   18.6822   19.5284   23.4400 H   0  0  0  0  0  0  0  0  0  0  0  0
   19.6525   17.7346   24.1269 C   0  0  0  0  0  0  0  0  0  0  0  0
   19.1507   17.7000   25.1017 H   0  0  0  0  0  0  0  0  0  0  0  0
   20.6599   17.3175   24.2478 H   0  0  0  0  0  0  0  0  0  0  0  0
   19.0895   17.0824   23.4493 H   0  0  0  0  0  0  0  0  0  0  0  0
   20.4628   19.2736   22.2485 C   0  0  0  0  0  0  0  0  0  0  0  0
   20.5389   20.3309   21.9623 H   0  0  0  0  0  0  0  0  0  0  0  0
   21.4935   18.9201   22.3843 H   0  0  0  0  0  0  0  0  0  0  0  0
   19.8116   18.4968   21.0756 C   0  0  0  0  0  0  0  0  0  0  0  0
   19.8399   17.4164   21.2709 H   0  0  0  0  0  0  0  0  0  0  0  0
   20.4158   18.6539   20.1711 H   0  0  0  0  0  0  0  0  0  0  0  0
   18.3581   18.9382   20.7894 C   0  0  0  0  0  0  0  0  0  0  0  0
   17.9648   18.4175   19.9067 H   0  0  0  0  0  0  0  0  0  0  0  0
   18.3043   20.0170   20.5935 H   0  0  0  0  0  0  0  0  0  0  0  0
   17.6936   18.7084   21.6318 H   0  0  0  0  0  0  0  0  0  0  0  0
  1  2  1  0  0  0  0
  1  3  1  0  0  0  0
  1  4  1  0  0  0  0
  1  5  1  0  0  0  0
  5  6  1  0  0  0  0
  5  7  1  0  0  0  0
  7  8  1  0  0  0  0
  7  9  1  0  0  0  0
  7 10  1  0  0  0  0
  5 11  1  0  0  0  0
 11 12  1  0  0  0  0
 11 13  1  0  0  0  0
 11 14  1  0  0  0  0
 14 15  1  0  0  0  0
 14 16  1  0  0  0  0
 14 17  1  0  0  0  0
 17 18  1  0  0  0  0
 17 19  1  0  0  0  0
 17 20  1  0  0  0  0
M  END
> <VM2 Rank>
5

> <Conf_Id>
85

> <Probability>
10.33

> <Sum Probability>
98.88

> <Delta G>
0.819

> <G>
3.525

> <E>
-19.636

> <-TS>
23.161

> <U+W>
-35.732

> <U>
22.800

> <W>
-58.532

> <W(PB)>
-60.437

> <W(SA)>
1.905

> <Valence>
2.662

> <Coulomb>
19.484

> <VdW>
0.653

> <VdW6>
-5.459

> <VdW12>
6.112

> <Bond>
0.174

> <Angle>
1.379

> <Pdih>
1.109

> <Idih>
0.000

> <Tether>
0.000

$$$$
VeraChem MOL file


 20 19  0  0  0  0  0  0  0  0999 V2000     
   20.4416   20.1739   23.6450 N   0  3  0  0  0  0  0  0  0  0  0  0
   20.1632   20.7488   22.8468 H   0  0  0  0  0  0  0  0  0  0  0  0
   21.4469   20.0034   23.5635 H   0  0  0  0  0  0  0  0  0  0  0  0
   20.2928   20.7282   24.4924 H   0  0  0  0  0  0  0  0  0  0  0  0
   19.6681   18.8842   23.6853 C   0  0  2  0  0  0  0  0  0  0  0  0
   18.6139   19.1448   23.8213 H   0  0  0  0  0  0  0  0  0  0  0  0
   20.1157   18.0453   24.8943 C   0  0  0  0  0  0  0  0  0  0  0  0
   19.5056   17.1383   24.9885 H   0  0  0  0  0  0  0  0  0  0  0  0
   20.0059   18.6153   25.8251 H   0  0  0  0  0  0  0  0  0  0  0  0
   21.1661   17.7425   24.8005 H   0  0  0  0  0  0  0  0  0  0  0  0
   19.8015   18.0636   22.3803 C   0  0  0  0  0  0  0  0  0  0  0  0
   20.8563   18.0048   22.0811 H   0  0  0  0  0  0  0  0  0  0  0  0
   19.4895   17.0304   22.5831 H   0  0  0  0  0  0  0  0  0  0  0  0
   18.9387   18.5776   21.1979 C   0  0  0  0  0  0  0  0  0  0  0  0
   17.8792   18.5887   21.4901 H   0  0  0  0  0  0  0  0  0  0  0  0
   19.0178   17.8522   20.3760 H   0  0  0  0  0  0  0  0  0  0  0  0
   19.3396   19.9695   20.6583 C   0  0  0  0  0  0  0  0  0  0  0  0
   18.8252   20.1704   19.7094 H   0  0  0  0  0  0  0  0  0  0  0  0
   20.4194   20.0290   20.4694 H   0  0  0  0  0  0  0  0  0  0  0  0
   19.0541   20.7694   21.3512 H   0  0  0  0  0  0  0  0  0  0  0  0
  1  2  1  0  0  0  0
  1  3  1  0  0  0  0
  1  4  1  0  0  0  0
  1  5  1  0  0  0  0
  5  6  1  0  0  0  0
  5  7  1  0  0  0  0
  7  8  1  0  0  0  0
  7  9  1  0  0  0  0
  7 10  1  0  0  0  0
  5 11  1  0  0  0  0
 11 12  1  0  0  0  0
 11 13  1  0  0  0  0
 11 14  1  0  0  0  0
 14 15  1  0  0  0  0
 14 16  1  0  0  0  0
 14 17  1  0  0  0  0
 17 18  1  0  0  0  0
 17 19  1  0  0  0  0
 17 20  1  0  0  0  0
M  END
> <VM2 Rank>
6

> <Conf_Id>
305

> <Probability>
0.39

> <Sum Probability>
99.27

> <Delta G>
2.766

> <G>
5.472

> <E>
-17.433

> <-TS>
22.906

> <U+W>
-33.530

> <U>
24.337

> <W>
-57.867

> <W(PB)>
-59.768

> <W(SA)>
1.901

> <Valence>
3.593

> <Coulomb>
20.067

> <VdW>
0.677

> <VdW6>
-5.466

> <VdW12>
6.143

> <Bond>
0.191

> <Angle>
1.557

> <Pdih>
1.845

> <Idih>
0.000

> <Tether>
0.000

$$$$
VeraChem MOL file


 20 19  0  0  0  0  0  0  0  0999 V2000     
   20.3127   19.9500   24.7197 N   0  3  0  0  0  0  0  0  0  0  0  0
   21.3010   19.7331   24.8719 H   0  0  0  0  0  0  0  0  0  0  0  0
   19.8274   19.7973   25.6079 H   0  0  0  0  0  0  0  0  0  0  0  0
   20.2465   20.9493   24.5072 H   0  0  0  0  0  0  0  0  0  0  0  0
   19.7251   19.1084   23.6193 C   0  0  2  0  0  0  0  0  0  0  0  0
   18.6775   19.4122   23.5298 H   0  0  0  0  0  0  0  0  0  0  0  0
   19.7757   17.6196   24.0105 C   0  0  0  0  0  0  0  0  0  0  0  0
   19.3229   16.9852   23.2409 H   0  0  0  0  0  0  0  0  0  0  0  0
   19.2280   17.4470   24.9450 H   0  0  0  0  0  0  0  0  0  0  0  0
   20.8100   17.2845   24.1573 H   0  0  0  0  0  0  0  0  0  0  0  0
   20.4197   19.3673   22.2597 C   0  0  0  0  0  0  0  0  0  0  0  0
   20.9761   20.3123   22.3145 H   0  0  0  0  0  0  0  0  0  0  0  0
   21.1722   18.5928   22.0597 H   0  0  0  0  0  0  0  0  0  0  0  0
   19.4388   19.4784   21.0650 C   0  0  0  0  0  0  0  0  0  0  0  0
   20.0116   19.7386   20.1638 H   0  0  0  0  0  0  0  0  0  0  0  0
   18.7443   20.3129   21.2364 H   0  0  0  0  0  0  0  0  0  0  0  0
   18.6330   18.1902   20.7867 C   0  0  0  0  0  0  0  0  0  0  0  0
   19.2985   17.3275   20.6530 H   0  0  0  0  0  0  0  0  0  0  0  0
   18.0394   18.3000   19.8699 H   0  0  0  0  0  0  0  0  0  0  0  0
   17.9352   17.9693   21.6040 H   0  0  0  0  0  0  0  0  0  0  0  0
  1  2  1  0  0  0  0
  1  3  1  0  0  0  0
  1  4  1  0  0  0  0
  1  5  1  0  0  0  0
  5  6  1  0  0  0  0
  5  7  1  0  0  0  0
  7  8  1  0  0  0  0
  7  9  1  0  0  0  0
  7 10  1  0  0  0  0
  5 11  1  0  0  0  0
 11 12  1  0  0  0  0
 11 13  1  0  0  0  0
 11 14  1  0  0  0  0
 14 15  1  0  0  0  0
 14 16  1  0  0  0  0
 14 17  1  0  0  0  0
 17 18  1  0  0  0  0
 17 19  1  0  0  0  0
 17 20  1  0  0  0  0
M  END
> <VM2 Rank>
7

> <Conf_Id>
53

> <Probability>
0.18

> <Sum Probability>
99.45

> <Delta G>
3.225

> <G>
5.931

> <E>
-17.088

> <-TS>
23.018

> <U+W>
-33.184

> <U>
25.256

> <W>
-58.440

> <W(PB)>
-60.337

> <W(SA)>
1.898

> <Valence>
4.963

> <Coulomb>
19.511

> <VdW>
0.782

> <VdW6>
-5.429

> <VdW12>
6.211

> <Bond>
0.174

> <Angle>
1.376

> <Pdih>
3.413

> <Idih>
0.000

> <Tether>
0.000

$$$$
VeraChem MOL file


 20 19  0  0  0  0  0  0  0  0999 V2000     
   20.6495   19.8405   24.7413 N   0  3  0  0  0  0  0  0  0  0  0  0
   20.5502   19.4723   25.6911 H   0  0  0  0  0  0  0  0  0  0  0  0
   20.4668   20.8466   24.7865 H   0  0  0  0  0  0  0  0  0  0  0  0
   21.6281   19.7186   24.4688 H   0  0  0  0  0  0  0  0  0  0  0  0
   19.7192   19.1489   23.7826 C   0  0  2  0  0  0  0  0  0  0  0  0
   18.7062   19.3281   24.1559 H   0  0  0  0  0  0  0  0  0  0  0  0
   19.9723   17.6317   23.7962 C   0  0  0  0  0  0  0  0  0  0  0  0
   19.1816   17.0970   23.2577 H   0  0  0  0  0  0  0  0  0  0  0  0
   19.9764   17.2488   24.8240 H   0  0  0  0  0  0  0  0  0  0  0  0
   20.9372   17.3847   23.3365 H   0  0  0  0  0  0  0  0  0  0  0  0
   19.8243   19.7636   22.3654 C   0  0  0  0  0  0  0  0  0  0  0  0
   19.6664   20.8459   22.4634 H   0  0  0  0  0  0  0  0  0  0  0  0
   20.8437   19.6451   21.9750 H   0  0  0  0  0  0  0  0  0  0  0  0
   18.7909   19.2269   21.3398 C   0  0  0  0  0  0  0  0  0  0  0  0
   18.4774   20.0571   20.6913 H   0  0  0  0  0  0  0  0  0  0  0  0
   17.8814   18.8880   21.8553 H   0  0  0  0  0  0  0  0  0  0  0  0
   19.3488   18.1023   20.4358 C   0  0  0  0  0  0  0  0  0  0  0  0
   18.5855   17.7709   19.7200 H   0  0  0  0  0  0  0  0  0  0  0  0
   19.6646   17.2262   21.0131 H   0  0  0  0  0  0  0  0  0  0  0  0
   20.2135   18.4557   19.8591 H   0  0  0  0  0  0  0  0  0  0  0  0
  1  2  1  0  0  0  0
  1  3  1  0  0  0  0
  1  4  1  0  0  0  0
  1  5  1  0  0  0  0
  5  6  1  0  0  0  0
  5  7  1  0  0  0  0
  7  8  1  0  0  0  0
  7  9  1  0  0  0  0
  7 10  1  0  0  0  0
  5 11  1  0  0  0  0
 11 12  1  0  0  0  0
 11 13  1  0  0  0  0
 11 14  1  0  0  0  0
 14 15  1  0  0  0  0
 14 16  1  0  0  0  0
 14 17  1  0  0  0  0
 17 18  1  0  0  0  0
 17 19  1  0  0  0  0
 17 20  1  0  0  0  0
M  END
> <VM2 Rank>
8

> <Conf_Id>
230

> <Probability>
0.18

> <Sum Probability>
99.63

> <Delta G>
3.242

> <G>
5.948

> <E>
-17.185

> <-TS>
23.133

> <U+W>
-33.282

> <U>
25.224

> <W>
-58.506

> <W(PB)>
-60.411

> <W(SA)>
1.905

> <Valence>
4.945

> <Coulomb>
19.467

> <VdW>
0.812

> <VdW6>
-5.458

> <VdW12>
6.270

> <Bond>
0.200

> <Angle>
1.675

> <Pdih>
3.070

> <Idih>
0.000

> <Tether>
0.000

$$$$
VeraChem MOL file


 20 19  0  0  0  0  0  0  0  0999 V2000     
   20.4119   20.1134   24.3249 N   0  3  0  0  0  0  0  0  0  0  0  0
   21.0511   20.4133   23.5855 H   0  0  0  0  0  0  0  0  0  0  0  0
   20.9743   19.9352   25.1613 H   0  0  0  0  0  0  0  0  0  0  0  0
   19.7950   20.9023   24.5365 H   0  0  0  0  0  0  0  0  0  0  0  0
   19.6308   18.8935   23.9168 C   0  0  2  0  0  0  0  0  0  0  0  0
   18.9915   18.6482   24.7706 H   0  0  0  0  0  0  0  0  0  0  0  0
   20.5664   17.6959   23.6847 C   0  0  0  0  0  0  0  0  0  0  0  0
   21.3278   17.9217   22.9290 H   0  0  0  0  0  0  0  0  0  0  0  0
   20.0002   16.8148   23.3583 H   0  0  0  0  0  0  0  0  0  0  0  0
   21.0871   17.4313   24.6131 H   0  0  0  0  0  0  0  0  0  0  0  0
   18.6926   19.1692   22.7148 C   0  0  0  0  0  0  0  0  0  0  0  0
   18.0245   18.3101   22.5698 H   0  0  0  0  0  0  0  0  0  0  0  0
   18.0343   20.0014   22.9970 H   0  0  0  0  0  0  0  0  0  0  0  0
   19.3853   19.5306   21.3714 C   0  0  0  0  0  0  0  0  0  0  0  0
   20.3326   20.0569   21.5481 H   0  0  0  0  0  0  0  0  0  0  0  0
   18.7443   20.2419   20.8320 H   0  0  0  0  0  0  0  0  0  0  0  0
   19.6179   18.3114   20.4483 C   0  0  0  0  0  0  0  0  0  0  0  0
   20.2882   17.5722   20.9003 H   0  0  0  0  0  0  0  0  0  0  0  0
   20.0689   18.6296   19.4995 H   0  0  0  0  0  0  0  0  0  0  0  0
   18.6700   17.8100   20.2132 H   0  0  0  0  0  0  0  0  0  0  0  0
  1  2  1  0  0  0  0
  1  3  1  0  0  0  0
  1  4  1  0  0  0  0
  1  5  1  0  0  0  0
  5  6  1  0  0  0  0
  5  7  1  0  0  0  0
  7  8  1  0  0  0  0
  7  9  1  0  0  0  0
  7 10  1  0  0  0  0
  5 11  1  0  0  0  0
 11 12  1  0  0  0  0
 11 13  1  0  0  0  0
 11 14  1  0  0  0  0
 14 15  1  0  0  0  0
 14 16  1  0  0  0  0
 14 17  1  0  0  0  0
 17 18  1  0  0  0  0
 17 19  1  0  0  0  0
 17 20  1  0  0  0  0
M  END
> <VM2 Rank>
9

> <Conf_Id>
35

> <Probability>
0.16

> <Sum Probability>
99.79

> <Delta G>
3.298

> <G>
6.004

> <E>
-17.176

> <-TS>
23.180

> <U+W>
-33.272

> <U>
25.367

> <W>
-58.639

> <W(PB)>
-60.512

> <W(SA)>
1.873

> <Valence>
4.943

> <Coulomb>
19.661

> <VdW>
0.764

> <VdW6>
-5.871

> <VdW12>
6.636

> <Bond>
0.230

> <Angle>
1.857

> <Pdih>
2.855

> <Idih>
0.000

> <Tether>
0.000

$$$$
VeraChem MOL file


 20 19  0  0  0  0  0  0  0  0999 V2000     
   20.5527   20.2235   23.7204 N   0  3  0  0  0  0  0  0  0  0  0  0
   21.0541   20.1988   22.8305 H   0  0  0  0  0  0  0  0  0  0  0  0
   21.2493   20.2865   24.4677 H   0  0  0  0  0  0  0  0  0  0  0  0
   20.0058   21.0884   23.7401 H   0  0  0  0  0  0  0  0  0  0  0  0
   19.6751   19.0130   23.8846 C   0  0  2  0  0  0  0  0  0  0  0  0
   19.1700   19.1502   24.8458 H   0  0  0  0  0  0  0  0  0  0  0  0
   20.5096   17.7239   23.9856 C   0  0  0  0  0  0  0  0  0  0  0  0
   19.8603   16.8496   24.1179 H   0  0  0  0  0  0  0  0  0  0  0  0
   21.1851   17.7700   24.8485 H   0  0  0  0  0  0  0  0  0  0  0  0
   21.1211   17.5661   23.0892 H   0  0  0  0  0  0  0  0  0  0  0  0
   18.5662   18.9160   22.8055 C   0  0  0  0  0  0  0  0  0  0  0  0
   17.8063   18.2135   23.1722 H   0  0  0  0  0  0  0  0  0  0  0  0
   18.0553   19.8850   22.7329 H   0  0  0  0  0  0  0  0  0  0  0  0
   18.9931   18.4540   21.3840 C   0  0  0  0  0  0  0  0  0  0  0  0
   18.0898   18.3960   20.7607 H   0  0  0  0  0  0  0  0  0  0  0  0
   19.3921   17.4312   21.4196 H   0  0  0  0  0  0  0  0  0  0  0  0
   20.0082   19.3836   20.6809 C   0  0  0  0  0  0  0  0  0  0  0  0
   21.0016   19.3170   21.1393 H   0  0  0  0  0  0  0  0  0  0  0  0
   19.6747   20.4292   20.7061 H   0  0  0  0  0  0  0  0  0  0  0  0
   20.1204   19.0959   19.6275 H   0  0  0  0  0  0  0  0  0  0  0  0
  1  2  1  0  0  0  0
  1  3  1  0  0  0  0
  1  4  1  0  0  0  0
  1  5  1  0  0  0  0
  5  6  1  0  0  0  0
  5  7  1  0  0  0  0
  7  8  1  0  0  0  0
  7  9  1  0  0  0  0
  7 10  1  0  0  0  0
  5 11  1  0  0  0  0
 11 12  1  0  0  0  0
 11 13  1  0  0  0  0
 11 14  1  0  0  0  0
 14 15  1  0  0  0  0
 14 16  1  0  0  0  0
 14 17  1  0  0  0  0
 17 18  1  0  0  0  0
 17 19  1  0  0  0  0
 17 20  1  0  0  0  0
M  END
> <VM2 Rank>
10

> <Conf_Id>
266

> <Probability>
0.16

> <Sum Probability>
99.95

> <Delta G>
3.320

> <G>
6.026

> <E>
-17.418

> <-TS>
23.445

> <U+W>
-33.515

> <U>
24.552

> <W>
-58.067

> <W(PB)>
-59.936

> <W(SA)>
1.869

> <Valence>
3.726

> <Coulomb>
20.219

> <VdW>
0.606

> <VdW6>
-6.395

> <VdW12>
7.002

> <Bond>
0.241

> <Angle>
2.098

> <Pdih>
1.387

> <Idih>
0.000

> <Tether>
0.000

$$$$
VeraChem MOL file


 20 19  0  0  0  0  0  0  0  0999 V2000     
   20.4703   20.1804   23.8701 N   0  3  0  0  0  0  0  0  0  0  0  0
   19.8615   20.9959   23.9789 H   0  0  0  0  0  0  0  0  0  0  0  0
   20.9775   20.2903   22.9891 H   0  0  0  0  0  0  0  0  0  0  0  0
   21.1568   20.2084   24.6287 H   0  0  0  0  0  0  0  0  0  0  0  0
   19.6817   18.8991   23.8852 C   0  0  2  0  0  0  0  0  0  0  0  0
   19.1717   18.8761   24.8534 H   0  0  0  0  0  0  0  0  0  0  0  0
   20.6027   17.6650   23.8520 C   0  0  0  0  0  0  0  0  0  0  0  0
   20.0159   16.7400   23.9095 H   0  0  0  0  0  0  0  0  0  0  0  0
   21.2842   17.6747   24.7112 H   0  0  0  0  0  0  0  0  0  0  0  0
   21.2134   17.6234   22.9454 H   0  0  0  0  0  0  0  0  0  0  0  0
   18.5739   18.8488   22.8005 C   0  0  0  0  0  0  0  0  0  0  0  0
   18.2112   17.8179   22.6944 H   0  0  0  0  0  0  0  0  0  0  0  0
   17.7169   19.4166   23.1856 H   0  0  0  0  0  0  0  0  0  0  0  0
   18.9191   19.4265   21.3987 C   0  0  0  0  0  0  0  0  0  0  0  0
   19.1566   20.4962   21.4757 H   0  0  0  0  0  0  0  0  0  0  0  0
   18.0133   19.3712   20.7787 H   0  0  0  0  0  0  0  0  0  0  0  0
   20.0574   18.6943   20.6545 C   0  0  0  0  0  0  0  0  0  0  0  0
   21.0335   18.8970   21.1097 H   0  0  0  0  0  0  0  0  0  0  0  0
   20.1110   19.0331   19.6117 H   0  0  0  0  0  0  0  0  0  0  0  0
   19.8922   17.6091   20.6447 H   0  0  0  0  0  0  0  0  0  0  0  0
  1  2  1  0  0  0  0
  1  3  1  0  0  0  0
  1  4  1  0  0  0  0
  1  5  1  0  0  0  0
  5  6  1  0  0  0  0
  5  7  1  0  0  0  0
  7  8  1  0  0  0  0
  7  9  1  0  0  0  0
  7 10  1  0  0  0  0
  5 11  1  0  0  0  0
 11 12  1  0  0  0  0
 11 13  1  0  0  0  0
 11 14  1  0  0  0  0
 14 15  1  0  0  0  0
 14 16  1  0  0  0  0
 14 17  1  0  0  0  0
 17 18  1  0  0  0  0
 17 19  1  0  0  0  0
 17 20  1  0  0  0  0
M  END
> <VM2 Rank>
11

> <Conf_Id>
267

> <Probability>
0.05

> <Sum Probability>
100.00

> <Delta G>
3.986

> <G>
6.692

> <E>
-16.652

> <-TS>
23.344

> <U+W>
-32.748

> <U>
25.522

> <W>
-58.270

> <W(PB)>
-60.155

> <W(SA)>
1.885

> <Valence>
4.931

> <Coulomb>
19.829

> <VdW>
0.762

> <VdW6>
-6.200

> <VdW12>
6.963

> <Bond>
0.247

> <Angle>
2.332

> <Pdih>
2.352

> <Idih>
0.000

> <Tether>
0.000

$$$$
