VeraChem MOL file


 17 16  0  0  0  0  0  0  0  0999 V2000     
   20.1084   19.0221   25.2603 C   0  0  0  0  0  0  0  0  0  0  0  0
   21.1954   19.0023   25.8036 O   0  5  0  0  0  0  0  0  0  0  0  0
   19.1730   18.3262   25.6033 O   0  0  0  0  0  0  0  0  0  0  0  0
   19.9082   19.9754   24.0895 C   0  0  0  0  0  0  0  0  0  0  0  0
   20.4026   20.9212   24.3394 H   0  0  0  0  0  0  0  0  0  0  0  0
   18.8361   20.1878   23.9995 H   0  0  0  0  0  0  0  0  0  0  0  0
   20.4642   19.4245   22.7903 C   0  0  0  0  0  0  0  0  0  0  0  0
   21.5496   19.3378   22.7486 H   0  0  0  0  0  0  0  0  0  0  0  0
   19.7131   19.0571   21.7477 C   0  0  0  0  0  0  0  0  0  0  0  0
   18.6277   19.1412   21.7912 H   0  0  0  0  0  0  0  0  0  0  0  0
   20.2690   18.5045   20.4543 C   0  0  0  0  0  0  0  0  0  0  0  0
   21.3205   18.2122   20.5817 H   0  0  0  0  0  0  0  0  0  0  0  0
   19.7208   17.5949   20.1739 H   0  0  0  0  0  0  0  0  0  0  0  0
   20.1616   19.5400   19.3180 C   0  0  0  0  0  0  0  0  0  0  0  0
   20.7244   20.4498   19.5652 H   0  0  0  0  0  0  0  0  0  0  0  0
   20.5660   19.1331   18.3821 H   0  0  0  0  0  0  0  0  0  0  0  0
   19.1151   19.8221   19.1428 H   0  0  0  0  0  0  0  0  0  0  0  0
  1  2  1  0  0  0  0
  1  3  2  0  0  0  0
  1  4  1  0  0  0  0
  4  5  1  0  0  0  0
  4  6  1  0  0  0  0
  4  7  1  0  0  0  0
  7  8  1  0  0  0  0
  7  9  2  0  0  0  0
  9 10  1  0  0  0  0
  9 11  1  0  0  0  0
 11 12  1  0  0  0  0
 11 13  1  0  0  0  0
 11 14  1  0  0  0  0
 14 15  1  0  0  0  0
 14 16  1  0  0  0  0
 14 17  1  0  0  0  0
M  END
> <VConfSearch Rank>
1

> <Conf_Id>
38

> <Delta U+W>
0.000

> <U+W>
-49.427

> <U>
13.666

> <W>
-63.093

> <W(PB)>
-65.225

> <W(SA)>
2.132

> <Valence>
15.226

> <Coulomb>
-1.822

> <VdW>
0.261

> <VdW6>
-4.165

> <VdW12>
4.426

> <Bond>
0.044

> <Angle>
2.229

> <Pdih>
12.953

> <Idih>
0.000

> <Tether>
0.000

$$$$
VeraChem MOL file


 17 16  0  0  0  0  0  0  0  0999 V2000     
   20.1186   19.0246   25.2604 C   0  0  0  0  0  0  0  0  0  0  0  0
   21.2631   18.8611   25.6347 O   0  5  0  0  0  0  0  0  0  0  0  0
   19.1599   18.4813   25.7729 O   0  0  0  0  0  0  0  0  0  0  0  0
   19.8693   19.9655   24.0890 C   0  0  0  0  0  0  0  0  0  0  0  0
   20.7099   20.6672   24.0276 H   0  0  0  0  0  0  0  0  0  0  0  0
   18.9748   20.5561   24.3182 H   0  0  0  0  0  0  0  0  0  0  0  0
   19.6827   19.2248   22.7786 C   0  0  0  0  0  0  0  0  0  0  0  0
   18.7737   18.6282   22.7069 H   0  0  0  0  0  0  0  0  0  0  0  0
   20.5471   19.2704   21.7603 C   0  0  0  0  0  0  0  0  0  0  0  0
   21.4573   19.8647   21.8338 H   0  0  0  0  0  0  0  0  0  0  0  0
   20.3612   18.5280   20.4558 C   0  0  0  0  0  0  0  0  0  0  0  0
   21.2862   17.9948   20.1977 H   0  0  0  0  0  0  0  0  0  0  0  0
   19.5756   17.7664   20.5555 H   0  0  0  0  0  0  0  0  0  0  0  0
   19.9911   19.4962   19.3153 C   0  0  0  0  0  0  0  0  0  0  0  0
   20.7786   20.2469   19.1678 H   0  0  0  0  0  0  0  0  0  0  0  0
   19.8583   18.9519   18.3713 H   0  0  0  0  0  0  0  0  0  0  0  0
   19.0542   20.0229   19.5397 H   0  0  0  0  0  0  0  0  0  0  0  0
  1  2  1  0  0  0  0
  1  3  2  0  0  0  0
  1  4  1  0  0  0  0
  4  5  1  0  0  0  0
  4  6  1  0  0  0  0
  4  7  1  0  0  0  0
  7  8  1  0  0  0  0
  7  9  2  0  0  0  0
  9 10  1  0  0  0  0
  9 11  1  0  0  0  0
 11 12  1  0  0  0  0
 11 13  1  0  0  0  0
 11 14  1  0  0  0  0
 14 15  1  0  0  0  0
 14 16  1  0  0  0  0
 14 17  1  0  0  0  0
M  END
> <VConfSearch Rank>
2

> <Conf_Id>
35

> <Delta U+W>
-0.102

> <U+W>
-49.529

> <U>
13.666

> <W>
-63.195

> <W(PB)>
-65.299

> <W(SA)>
2.103

> <Valence>
15.226

> <Coulomb>
-1.822

> <VdW>
0.261

> <VdW6>
-4.165

> <VdW12>
4.426

> <Bond>
0.044

> <Angle>
2.229

> <Pdih>
12.953

> <Idih>
0.000

> <Tether>
0.000

$$$$
VeraChem MOL file


 17 16  0  0  0  0  0  0  0  0999 V2000     
   20.0899   19.1610   25.1504 C   0  0  0  0  0  0  0  0  0  0  0  0
   20.6118   20.1768   25.5661 O   0  5  0  0  0  0  0  0  0  0  0  0
   19.0247   18.7386   25.5551 O   0  0  0  0  0  0  0  0  0  0  0  0
   20.8167   18.3707   24.0701 C   0  0  0  0  0  0  0  0  0  0  0  0
   20.4743   17.3300   24.1176 H   0  0  0  0  0  0  0  0  0  0  0  0
   21.8844   18.3684   24.3181 H   0  0  0  0  0  0  0  0  0  0  0  0
   20.6054   18.9516   22.6847 C   0  0  0  0  0  0  0  0  0  0  0  0
   21.0650   19.9255   22.5255 H   0  0  0  0  0  0  0  0  0  0  0  0
   19.9096   18.3416   21.7169 C   0  0  0  0  0  0  0  0  0  0  0  0
   19.4601   17.3691   21.9147 H   0  0  0  0  0  0  0  0  0  0  0  0
   19.6562   18.8654   20.3134 C   0  0  0  0  0  0  0  0  0  0  0  0
   20.0354   18.1348   19.5861 H   0  0  0  0  0  0  0  0  0  0  0  0
   18.5724   18.9166   20.1424 H   0  0  0  0  0  0  0  0  0  0  0  0
   20.2785   20.2463   20.0104 C   0  0  0  0  0  0  0  0  0  0  0  0
   21.3707   20.2186   20.1187 H   0  0  0  0  0  0  0  0  0  0  0  0
   20.0506   20.5538   18.9815 H   0  0  0  0  0  0  0  0  0  0  0  0
   19.8809   21.0144   20.6866 H   0  0  0  0  0  0  0  0  0  0  0  0
  1  2  1  0  0  0  0
  1  3  2  0  0  0  0
  1  4  1  0  0  0  0
  4  5  1  0  0  0  0
  4  6  1  0  0  0  0
  4  7  1  0  0  0  0
  7  8  1  0  0  0  0
  7  9  2  0  0  0  0
  9 10  1  0  0  0  0
  9 11  1  0  0  0  0
 11 12  1  0  0  0  0
 11 13  1  0  0  0  0
 11 14  1  0  0  0  0
 14 15  1  0  0  0  0
 14 16  1  0  0  0  0
 14 17  1  0  0  0  0
M  END
> <VConfSearch Rank>
3

> <Conf_Id>
19

> <Delta U+W>
-0.496

> <U+W>
-49.923

> <U>
13.863

> <W>
-63.786

> <W(PB)>
-65.856

> <W(SA)>
2.070

> <Valence>
14.117

> <Coulomb>
-1.228

> <VdW>
0.974

> <VdW6>
-4.885

> <VdW12>
5.859

> <Bond>
0.094

> <Angle>
2.818

> <Pdih>
11.205

> <Idih>
0.000

> <Tether>
0.000

$$$$
VeraChem MOL file


 17 16  0  0  0  0  0  0  0  0999 V2000     
   20.1172   19.2202   25.1433 C   0  0  0  0  0  0  0  0  0  0  0  0
   21.0284   19.9905   25.3737 O   0  5  0  0  0  0  0  0  0  0  0  0
   19.0230   19.2979   25.6666 O   0  0  0  0  0  0  0  0  0  0  0  0
   20.3606   18.0886   24.1534 C   0  0  0  0  0  0  0  0  0  0  0  0
   19.9015   17.1813   24.5628 H   0  0  0  0  0  0  0  0  0  0  0  0
   21.4406   17.9057   24.0999 H   0  0  0  0  0  0  0  0  0  0  0  0
   19.7909   18.3862   22.7794 C   0  0  0  0  0  0  0  0  0  0  0  0
   18.7035   18.4277   22.7259 H   0  0  0  0  0  0  0  0  0  0  0  0
   20.5331   18.5969   21.6881 C   0  0  0  0  0  0  0  0  0  0  0  0
   21.6206   18.5603   21.7432 H   0  0  0  0  0  0  0  0  0  0  0  0
   19.9631   18.8964   20.3196 C   0  0  0  0  0  0  0  0  0  0  0  0
   20.4435   18.2543   19.5690 H   0  0  0  0  0  0  0  0  0  0  0  0
   18.8893   18.6656   20.2915 H   0  0  0  0  0  0  0  0  0  0  0  0
   20.1766   20.3754   19.9429 C   0  0  0  0  0  0  0  0  0  0  0  0
   21.2457   20.6247   19.9252 H   0  0  0  0  0  0  0  0  0  0  0  0
   19.7608   20.5874   18.9493 H   0  0  0  0  0  0  0  0  0  0  0  0
   19.6833   21.0371   20.6671 H   0  0  0  0  0  0  0  0  0  0  0  0
  1  2  1  0  0  0  0
  1  3  2  0  0  0  0
  1  4  1  0  0  0  0
  4  5  1  0  0  0  0
  4  6  1  0  0  0  0
  4  7  1  0  0  0  0
  7  8  1  0  0  0  0
  7  9  2  0  0  0  0
  9 10  1  0  0  0  0
  9 11  1  0  0  0  0
 11 12  1  0  0  0  0
 11 13  1  0  0  0  0
 11 14  1  0  0  0  0
 14 15  1  0  0  0  0
 14 16  1  0  0  0  0
 14 17  1  0  0  0  0
M  END
> <VConfSearch Rank>
4

> <Conf_Id>
7

> <Delta U+W>
-0.041

> <U+W>
-49.468

> <U>
14.121

> <W>
-63.589

> <W(PB)>
-65.660

> <W(SA)>
2.071

> <Valence>
15.230

> <Coulomb>
-1.333

> <VdW>
0.224

> <VdW6>
-4.212

> <VdW12>
4.436

> <Bond>
0.044

> <Angle>
2.230

> <Pdih>
12.956

> <Idih>
0.000

> <Tether>
0.000

$$$$
VeraChem MOL file


 17 16  0  0  0  0  0  0  0  0999 V2000     
   20.2210   18.9398   25.0062 C   0  0  0  0  0  0  0  0  0  0  0  0
   21.4127   18.7755   25.1787 O   0  5  0  0  0  0  0  0  0  0  0  0
   19.3723   18.1654   25.4024 O   0  0  0  0  0  0  0  0  0  0  0  0
   19.7641   20.1999   24.2774 C   0  0  0  0  0  0  0  0  0  0  0  0
   20.4769   20.9998   24.5095 H   0  0  0  0  0  0  0  0  0  0  0  0
   18.8082   20.5121   24.7138 H   0  0  0  0  0  0  0  0  0  0  0  0
   19.6175   20.0693   22.7680 C   0  0  0  0  0  0  0  0  0  0  0  0
   19.2904   20.9800   22.2678 H   0  0  0  0  0  0  0  0  0  0  0  0
   19.8535   18.9667   22.0472 C   0  0  0  0  0  0  0  0  0  0  0  0
   20.1823   18.0433   22.5225 H   0  0  0  0  0  0  0  0  0  0  0  0
   19.6908   18.8891   20.5454 C   0  0  0  0  0  0  0  0  0  0  0  0
   19.1153   17.9916   20.2811 H   0  0  0  0  0  0  0  0  0  0  0  0
   19.1185   19.7507   20.1749 H   0  0  0  0  0  0  0  0  0  0  0  0
   21.0611   18.8463   19.8416 C   0  0  0  0  0  0  0  0  0  0  0  0
   20.9370   18.7886   18.7524 H   0  0  0  0  0  0  0  0  0  0  0  0
   21.6453   19.7473   20.0709 H   0  0  0  0  0  0  0  0  0  0  0  0
   21.6405   17.9717   20.1654 H   0  0  0  0  0  0  0  0  0  0  0  0
  1  2  1  0  0  0  0
  1  3  2  0  0  0  0
  1  4  1  0  0  0  0
  4  5  1  0  0  0  0
  4  6  1  0  0  0  0
  4  7  1  0  0  0  0
  7  8  1  0  0  0  0
  7  9  2  0  0  0  0
  9 10  1  0  0  0  0
  9 11  1  0  0  0  0
 11 12  1  0  0  0  0
 11 13  1  0  0  0  0
 11 14  1  0  0  0  0
 14 15  1  0  0  0  0
 14 16  1  0  0  0  0
 14 17  1  0  0  0  0
M  END
> <VConfSearch Rank>
5

> <Conf_Id>
39

> <Delta U+W>
-0.422

> <U+W>
-49.849

> <U>
14.465

> <W>
-64.314

> <W(PB)>
-66.406

> <W(SA)>
2.093

> <Valence>
14.072

> <Coulomb>
-0.199

> <VdW>
0.592

> <VdW6>
-5.019

> <VdW12>
5.611

> <Bond>
0.085

> <Angle>
2.748

> <Pdih>
11.238

> <Idih>
0.001

> <Tether>
0.000

$$$$
VeraChem MOL file


 17 16  0  0  0  0  0  0  0  0999 V2000     
   22.8410   19.7437   20.5779 C   0  0  0  0  0  0  0  0  0  0  0  0
   22.7608   20.1355   19.4303 O   0  5  0  0  0  0  0  0  0  0  0  0
   23.6521   18.9194   20.9514 O   0  0  0  0  0  0  0  0  0  0  0  0
   21.8749   20.3224   21.6032 C   0  0  0  0  0  0  0  0  0  0  0  0
   21.7813   21.3966   21.4063 H   0  0  0  0  0  0  0  0  0  0  0  0
   22.3257   20.2166   22.5973 H   0  0  0  0  0  0  0  0  0  0  0  0
   20.5100   19.6627   21.5523 C   0  0  0  0  0  0  0  0  0  0  0  0
   19.9312   19.8604   20.6505 H   0  0  0  0  0  0  0  0  0  0  0  0
   20.0148   18.8853   22.5201 C   0  0  0  0  0  0  0  0  0  0  0  0
   20.5953   18.6856   23.4203 H   0  0  0  0  0  0  0  0  0  0  0  0
   18.6552   18.2253   22.4659 C   0  0  0  0  0  0  0  0  0  0  0  0
   18.2519   18.2591   21.4444 H   0  0  0  0  0  0  0  0  0  0  0  0
   18.7474   17.1639   22.7335 H   0  0  0  0  0  0  0  0  0  0  0  0
   17.6667   18.9135   23.4274 C   0  0  0  0  0  0  0  0  0  0  0  0
   17.5385   19.9715   23.1632 H   0  0  0  0  0  0  0  0  0  0  0  0
   16.6822   18.4298   23.3841 H   0  0  0  0  0  0  0  0  0  0  0  0
   18.0269   18.8608   24.4632 H   0  0  0  0  0  0  0  0  0  0  0  0
  1  2  1  0  0  0  0
  1  3  2  0  0  0  0
  1  4  1  0  0  0  0
  4  5  1  0  0  0  0
  4  6  1  0  0  0  0
  4  7  1  0  0  0  0
  7  8  1  0  0  0  0
  7  9  2  0  0  0  0
  9 10  1  0  0  0  0
  9 11  1  0  0  0  0
 11 12  1  0  0  0  0
 11 13  1  0  0  0  0
 11 14  1  0  0  0  0
 14 15  1  0  0  0  0
 14 16  1  0  0  0  0
 14 17  1  0  0  0  0
M  END
> <VConfSearch Rank>
6

> <Conf_Id>
38

> <Delta U+W>
0.000

> <U+W>
-49.427

> <U>
13.666

> <W>
-63.093

> <W(PB)>
-65.225

> <W(SA)>
2.132

> <Valence>
15.226

> <Coulomb>
-1.822

> <VdW>
0.261

> <VdW6>
-4.165

> <VdW12>
4.426

> <Bond>
0.044

> <Angle>
2.229

> <Pdih>
12.953

> <Idih>
0.000

> <Tether>
0.000

$$$$
VeraChem MOL file


 17 16  0  0  0  0  0  0  0  0999 V2000     
   17.2281   18.0292   22.6667 C   0  0  0  0  0  0  0  0  0  0  0  0
   17.3149   16.8171   22.6753 O   0  5  0  0  0  0  0  0  0  0  0  0
   16.2763   18.6316   22.2104 O   0  0  0  0  0  0  0  0  0  0  0  0
   18.3708   18.8393   23.2647 C   0  0  0  0  0  0  0  0  0  0  0  0
   18.9052   18.2026   23.9800 H   0  0  0  0  0  0  0  0  0  0  0  0
   17.9324   19.6656   23.8361 H   0  0  0  0  0  0  0  0  0  0  0  0
   19.3146   19.3803   22.2077 C   0  0  0  0  0  0  0  0  0  0  0  0
   18.8937   20.1454   21.5560 H   0  0  0  0  0  0  0  0  0  0  0  0
   20.5781   18.9740   22.0500 C   0  0  0  0  0  0  0  0  0  0  0  0
   20.9974   18.2066   22.6999 H   0  0  0  0  0  0  0  0  0  0  0  0
   21.5165   19.5117   20.9929 C   0  0  0  0  0  0  0  0  0  0  0  0
   22.0047   18.6773   20.4715 H   0  0  0  0  0  0  0  0  0  0  0  0
   20.9573   20.0746   20.2328 H   0  0  0  0  0  0  0  0  0  0  0  0
   22.5892   20.4252   21.6175 C   0  0  0  0  0  0  0  0  0  0  0  0
   23.1896   19.8768   22.3551 H   0  0  0  0  0  0  0  0  0  0  0  0
   23.2675   20.8118   20.8457 H   0  0  0  0  0  0  0  0  0  0  0  0
   22.1250   21.2821   22.1233 H   0  0  0  0  0  0  0  0  0  0  0  0
  1  2  1  0  0  0  0
  1  3  2  0  0  0  0
  1  4  1  0  0  0  0
  4  5  1  0  0  0  0
  4  6  1  0  0  0  0
  4  7  1  0  0  0  0
  7  8  1  0  0  0  0
  7  9  2  0  0  0  0
  9 10  1  0  0  0  0
  9 11  1  0  0  0  0
 11 12  1  0  0  0  0
 11 13  1  0  0  0  0
 11 14  1  0  0  0  0
 14 15  1  0  0  0  0
 14 16  1  0  0  0  0
 14 17  1  0  0  0  0
M  END
> <VConfSearch Rank>
7

> <Conf_Id>
35

> <Delta U+W>
-0.102

> <U+W>
-49.529

> <U>
13.666

> <W>
-63.195

> <W(PB)>
-65.299

> <W(SA)>
2.103

> <Valence>
15.226

> <Coulomb>
-1.822

> <VdW>
0.261

> <VdW6>
-4.165

> <VdW12>
4.426

> <Bond>
0.044

> <Angle>
2.229

> <Pdih>
12.953

> <Idih>
0.000

> <Tether>
0.000

$$$$
VeraChem MOL file


 17 16  0  0  0  0  0  0  0  0999 V2000     
   21.9165   17.7040   20.2308 C   0  0  0  0  0  0  0  0  0  0  0  0
   22.8889   18.3837   19.9673 O   0  5  0  0  0  0  0  0  0  0  0  0
   21.9718   16.5116   20.4584 O   0  0  0  0  0  0  0  0  0  0  0  0
   20.5541   18.3839   20.2679 C   0  0  0  0  0  0  0  0  0  0  0  0
   19.7860   17.6229   20.0852 H   0  0  0  0  0  0  0  0  0  0  0  0
   20.5099   19.0909   19.4314 H   0  0  0  0  0  0  0  0  0  0  0  0
   20.3028   19.1093   21.5763 C   0  0  0  0  0  0  0  0  0  0  0  0
   20.9352   19.9798   21.7419 H   0  0  0  0  0  0  0  0  0  0  0  0
   19.3879   18.7297   22.4772 C   0  0  0  0  0  0  0  0  0  0  0  0
   18.7761   17.8503   22.2787 H   0  0  0  0  0  0  0  0  0  0  0  0
   19.0869   19.4047   23.8048 C   0  0  0  0  0  0  0  0  0  0  0  0
   18.0256   19.6869   23.8290 H   0  0  0  0  0  0  0  0  0  0  0  0
   19.2162   18.6731   24.6138 H   0  0  0  0  0  0  0  0  0  0  0  0
   19.9460   20.6511   24.1122 C   0  0  0  0  0  0  0  0  0  0  0  0
   19.8001   21.4279   23.3502 H   0  0  0  0  0  0  0  0  0  0  0  0
   19.6699   21.0785   25.0849 H   0  0  0  0  0  0  0  0  0  0  0  0
   21.0130   20.3948   24.1484 H   0  0  0  0  0  0  0  0  0  0  0  0
  1  2  1  0  0  0  0
  1  3  2  0  0  0  0
  1  4  1  0  0  0  0
  4  5  1  0  0  0  0
  4  6  1  0  0  0  0
  4  7  1  0  0  0  0
  7  8  1  0  0  0  0
  7  9  2  0  0  0  0
  9 10  1  0  0  0  0
  9 11  1  0  0  0  0
 11 12  1  0  0  0  0
 11 13  1  0  0  0  0
 11 14  1  0  0  0  0
 14 15  1  0  0  0  0
 14 16  1  0  0  0  0
 14 17  1  0  0  0  0
M  END
> <VConfSearch Rank>
8

> <Conf_Id>
19

> <Delta U+W>
-0.496

> <U+W>
-49.923

> <U>
13.863

> <W>
-63.786

> <W(PB)>
-65.856

> <W(SA)>
2.070

> <Valence>
14.117

> <Coulomb>
-1.228

> <VdW>
0.974

> <VdW6>
-4.885

> <VdW12>
5.859

> <Bond>
0.094

> <Angle>
2.818

> <Pdih>
11.205

> <Idih>
0.000

> <Tether>
0.000

$$$$
VeraChem MOL file


 17 16  0  0  0  0  0  0  0  0999 V2000     
   18.1604   17.1264   23.1469 C   0  0  0  0  0  0  0  0  0  0  0  0
   18.2071   17.2689   24.3529 O   0  5  0  0  0  0  0  0  0  0  0  0
   17.1229   17.0709   22.5165 O   0  0  0  0  0  0  0  0  0  0  0  0
   19.4720   16.9996   22.3831 C   0  0  0  0  0  0  0  0  0  0  0  0
   19.3474   16.2101   21.6330 H   0  0  0  0  0  0  0  0  0  0  0  0
   20.2449   16.6587   23.0825 H   0  0  0  0  0  0  0  0  0  0  0  0
   19.8807   18.2967   21.7113 C   0  0  0  0  0  0  0  0  0  0  0  0
   19.2379   18.6190   20.8927 H   0  0  0  0  0  0  0  0  0  0  0  0
   20.9404   19.0274   22.0708 C   0  0  0  0  0  0  0  0  0  0  0  0
   21.5798   18.7073   22.8928 H   0  0  0  0  0  0  0  0  0  0  0  0
   21.3445   20.3221   21.4014 C   0  0  0  0  0  0  0  0  0  0  0  0
   22.4184   20.3015   21.1717 H   0  0  0  0  0  0  0  0  0  0  0  0
   20.8192   20.4399   20.4436 H   0  0  0  0  0  0  0  0  0  0  0  0
   21.0353   21.5319   22.3045 C   0  0  0  0  0  0  0  0  0  0  0  0
   21.5789   21.4597   23.2557 H   0  0  0  0  0  0  0  0  0  0  0  0
   21.3300   22.4686   21.8138 H   0  0  0  0  0  0  0  0  0  0  0  0
   19.9616   21.5872   22.5278 H   0  0  0  0  0  0  0  0  0  0  0  0
  1  2  1  0  0  0  0
  1  3  2  0  0  0  0
  1  4  1  0  0  0  0
  4  5  1  0  0  0  0
  4  6  1  0  0  0  0
  4  7  1  0  0  0  0
  7  8  1  0  0  0  0
  7  9  2  0  0  0  0
  9 10  1  0  0  0  0
  9 11  1  0  0  0  0
 11 12  1  0  0  0  0
 11 13  1  0  0  0  0
 11 14  1  0  0  0  0
 14 15  1  0  0  0  0
 14 16  1  0  0  0  0
 14 17  1  0  0  0  0
M  END
> <VConfSearch Rank>
9

> <Conf_Id>
7

> <Delta U+W>
-0.041

> <U+W>
-49.468

> <U>
14.121

> <W>
-63.589

> <W(PB)>
-65.660

> <W(SA)>
2.071

> <Valence>
15.230

> <Coulomb>
-1.333

> <VdW>
0.224

> <VdW6>
-4.212

> <VdW12>
4.436

> <Bond>
0.044

> <Angle>
2.230

> <Pdih>
12.956

> <Idih>
0.000

> <Tether>
0.000

$$$$
VeraChem MOL file


 17 16  0  0  0  0  0  0  0  0999 V2000     
   18.9247   17.2855   20.7745 C   0  0  0  0  0  0  0  0  0  0  0  0
   19.8968   16.6710   20.3814 O   0  5  0  0  0  0  0  0  0  0  0  0
   18.0643   17.7240   20.0366 O   0  0  0  0  0  0  0  0  0  0  0  0
   18.7613   17.4936   22.2770 C   0  0  0  0  0  0  0  0  0  0  0  0
   19.1994   16.6271   22.7861 H   0  0  0  0  0  0  0  0  0  0  0  0
   17.6894   17.4669   22.5050 H   0  0  0  0  0  0  0  0  0  0  0  0
   19.3697   18.7733   22.8331 C   0  0  0  0  0  0  0  0  0  0  0  0
   19.2416   18.9020   23.9071 H   0  0  0  0  0  0  0  0  0  0  0  0
   20.0216   19.7054   22.1281 C   0  0  0  0  0  0  0  0  0  0  0  0
   20.1642   19.6007   21.0532 H   0  0  0  0  0  0  0  0  0  0  0  0
   20.6073   20.9633   22.7304 C   0  0  0  0  0  0  0  0  0  0  0  0
   20.3135   21.8338   22.1284 H   0  0  0  0  0  0  0  0  0  0  0  0
   20.2076   21.1291   23.7402 H   0  0  0  0  0  0  0  0  0  0  0  0
   22.1447   20.8807   22.7978 C   0  0  0  0  0  0  0  0  0  0  0  0
   22.5644   21.7964   23.2342 H   0  0  0  0  0  0  0  0  0  0  0  0
   22.4627   20.0313   23.4167 H   0  0  0  0  0  0  0  0  0  0  0  0
   22.5743   20.7530   21.7955 H   0  0  0  0  0  0  0  0  0  0  0  0
  1  2  1  0  0  0  0
  1  3  2  0  0  0  0
  1  4  1  0  0  0  0
  4  5  1  0  0  0  0
  4  6  1  0  0  0  0
  4  7  1  0  0  0  0
  7  8  1  0  0  0  0
  7  9  2  0  0  0  0
  9 10  1  0  0  0  0
  9 11  1  0  0  0  0
 11 12  1  0  0  0  0
 11 13  1  0  0  0  0
 11 14  1  0  0  0  0
 14 15  1  0  0  0  0
 14 16  1  0  0  0  0
 14 17  1  0  0  0  0
M  END
> <VConfSearch Rank>
10

> <Conf_Id>
39

> <Delta U+W>
-0.422

> <U+W>
-49.849

> <U>
14.465

> <W>
-64.314

> <W(PB)>
-66.406

> <W(SA)>
2.093

> <Valence>
14.072

> <Coulomb>
-0.199

> <VdW>
0.592

> <VdW6>
-5.019

> <VdW12>
5.611

> <Bond>
0.085

> <Angle>
2.748

> <Pdih>
11.238

> <Idih>
0.001

> <Tether>
0.000

$$$$
VeraChem MOL file


 17 16  0  0  0  0  0  0  0  0999 V2000     
   17.1003   18.6017   22.8213 C   0  0  0  0  0  0  0  0  0  0  0  0
   16.4669   19.4759   23.3793 O   0  5  0  0  0  0  0  0  0  0  0  0
   17.0129   17.4232   23.1047 O   0  0  0  0  0  0  0  0  0  0  0  0
   18.0510   19.0068   21.7024 C   0  0  0  0  0  0  0  0  0  0  0  0
   17.5533   19.7777   21.1028 H   0  0  0  0  0  0  0  0  0  0  0  0
   18.2011   18.1392   21.0488 H   0  0  0  0  0  0  0  0  0  0  0  0
   19.3755   19.5287   22.2260 C   0  0  0  0  0  0  0  0  0  0  0  0
   19.3246   20.4814   22.7522 H   0  0  0  0  0  0  0  0  0  0  0  0
   20.5435   18.8965   22.0772 C   0  0  0  0  0  0  0  0  0  0  0  0
   20.5932   17.9424   21.5535 H   0  0  0  0  0  0  0  0  0  0  0  0
   21.8627   19.4165   22.6033 C   0  0  0  0  0  0  0  0  0  0  0  0
   21.6956   20.2275   23.3255 H   0  0  0  0  0  0  0  0  0  0  0  0
   22.3876   18.6168   23.1432 H   0  0  0  0  0  0  0  0  0  0  0  0
   22.7526   19.9313   21.4552 C   0  0  0  0  0  0  0  0  0  0  0  0
   22.2585   20.7502   20.9160 H   0  0  0  0  0  0  0  0  0  0  0  0
   23.7085   20.3067   21.8430 H   0  0  0  0  0  0  0  0  0  0  0  0
   22.9678   19.1295   20.7367 H   0  0  0  0  0  0  0  0  0  0  0  0
  1  2  1  0  0  0  0
  1  3  2  0  0  0  0
  1  4  1  0  0  0  0
  4  5  1  0  0  0  0
  4  6  1  0  0  0  0
  4  7  1  0  0  0  0
  7  8  1  0  0  0  0
  7  9  2  0  0  0  0
  9 10  1  0  0  0  0
  9 11  1  0  0  0  0
 11 12  1  0  0  0  0
 11 13  1  0  0  0  0
 11 14  1  0  0  0  0
 14 15  1  0  0  0  0
 14 16  1  0  0  0  0
 14 17  1  0  0  0  0
M  END
> <VConfSearch Rank>
11

> <Conf_Id>
38

> <Delta U+W>
0.000

> <U+W>
-49.427

> <U>
13.666

> <W>
-63.093

> <W(PB)>
-65.225

> <W(SA)>
2.132

> <Valence>
15.226

> <Coulomb>
-1.822

> <VdW>
0.261

> <VdW6>
-4.165

> <VdW12>
4.426

> <Bond>
0.044

> <Angle>
2.229

> <Pdih>
12.953

> <Idih>
0.000

> <Tether>
0.000

$$$$
VeraChem MOL file


 17 16  0  0  0  0  0  0  0  0999 V2000     
   22.6214   20.9808   22.9135 C   0  0  0  0  0  0  0  0  0  0  0  0
   22.2642   22.1040   23.2097 O   0  5  0  0  0  0  0  0  0  0  0  0
   23.6524   20.7388   22.3175 O   0  0  0  0  0  0  0  0  0  0  0  0
   21.7326   19.8110   23.3148 C   0  0  0  0  0  0  0  0  0  0  0  0
   21.1165   20.1244   24.1662 H   0  0  0  0  0  0  0  0  0  0  0  0
   22.3826   19.0029   23.6698 H   0  0  0  0  0  0  0  0  0  0  0  0
   20.8678   19.3189   22.1699 C   0  0  0  0  0  0  0  0  0  0  0  0
   21.4068   18.8430   21.3512 H   0  0  0  0  0  0  0  0  0  0  0  0
   19.5378   19.4423   22.1264 C   0  0  0  0  0  0  0  0  0  0  0  0
   18.9998   19.9212   22.9439 H   0  0  0  0  0  0  0  0  0  0  0  0
   18.6775   18.9547   20.9820 C   0  0  0  0  0  0  0  0  0  0  0  0
   17.9806   19.7474   20.6782 H   0  0  0  0  0  0  0  0  0  0  0  0
   19.2982   18.7271   20.1044 H   0  0  0  0  0  0  0  0  0  0  0  0
   17.8819   17.6975   21.3839 C   0  0  0  0  0  0  0  0  0  0  0  0
   17.2229   17.9069   22.2368 H   0  0  0  0  0  0  0  0  0  0  0  0
   17.2591   17.3487   20.5499 H   0  0  0  0  0  0  0  0  0  0  0  0
   18.5595   16.8814   21.6676 H   0  0  0  0  0  0  0  0  0  0  0  0
  1  2  1  0  0  0  0
  1  3  2  0  0  0  0
  1  4  1  0  0  0  0
  4  5  1  0  0  0  0
  4  6  1  0  0  0  0
  4  7  1  0  0  0  0
  7  8  1  0  0  0  0
  7  9  2  0  0  0  0
  9 10  1  0  0  0  0
  9 11  1  0  0  0  0
 11 12  1  0  0  0  0
 11 13  1  0  0  0  0
 11 14  1  0  0  0  0
 14 15  1  0  0  0  0
 14 16  1  0  0  0  0
 14 17  1  0  0  0  0
M  END
> <VConfSearch Rank>
12

> <Conf_Id>
35

> <Delta U+W>
-0.102

> <U+W>
-49.529

> <U>
13.666

> <W>
-63.195

> <W(PB)>
-65.299

> <W(SA)>
2.103

> <Valence>
15.226

> <Coulomb>
-1.822

> <VdW>
0.261

> <VdW6>
-4.165

> <VdW12>
4.426

> <Bond>
0.044

> <Angle>
2.229

> <Pdih>
12.953

> <Idih>
0.000

> <Tether>
0.000

$$$$
VeraChem MOL file


 17 16  0  0  0  0  0  0  0  0999 V2000     
   18.9730   16.5630   23.0478 C   0  0  0  0  0  0  0  0  0  0  0  0
   17.8231   16.7621   23.3871 O   0  5  0  0  0  0  0  0  0  0  0  0
   19.3125   15.6416   22.3320 O   0  0  0  0  0  0  0  0  0  0  0  0
   20.0468   17.5160   23.5564 C   0  0  0  0  0  0  0  0  0  0  0  0
   21.0084   16.9890   23.5404 H   0  0  0  0  0  0  0  0  0  0  0  0
   19.8234   17.7430   24.6052 H   0  0  0  0  0  0  0  0  0  0  0  0
   20.1143   18.7986   22.7491 C   0  0  0  0  0  0  0  0  0  0  0  0
   19.2453   19.4462   22.8518 H   0  0  0  0  0  0  0  0  0  0  0  0
   21.1437   19.1317   21.9604 C   0  0  0  0  0  0  0  0  0  0  0  0
   21.9945   18.4559   21.8793 H   0  0  0  0  0  0  0  0  0  0  0  0
   21.2752   20.3934   21.1242 C   0  0  0  0  0  0  0  0  0  0  0  0
   22.1905   20.9237   21.4200 H   0  0  0  0  0  0  0  0  0  0  0  0
   21.4247   20.1105   20.0734 H   0  0  0  0  0  0  0  0  0  0  0  0
   20.0783   21.3653   21.2176 C   0  0  0  0  0  0  0  0  0  0  0  0
   19.9323   21.7126   22.2488 H   0  0  0  0  0  0  0  0  0  0  0  0
   20.2487   22.2474   20.5868 H   0  0  0  0  0  0  0  0  0  0  0  0
   19.1521   20.8832   20.8780 H   0  0  0  0  0  0  0  0  0  0  0  0
  1  2  1  0  0  0  0
  1  3  2  0  0  0  0
  1  4  1  0  0  0  0
  4  5  1  0  0  0  0
  4  6  1  0  0  0  0
  4  7  1  0  0  0  0
  7  8  1  0  0  0  0
  7  9  2  0  0  0  0
  9 10  1  0  0  0  0
  9 11  1  0  0  0  0
 11 12  1  0  0  0  0
 11 13  1  0  0  0  0
 11 14  1  0  0  0  0
 14 15  1  0  0  0  0
 14 16  1  0  0  0  0
 14 17  1  0  0  0  0
M  END
> <VConfSearch Rank>
13

> <Conf_Id>
19

> <Delta U+W>
-0.496

> <U+W>
-49.923

> <U>
13.863

> <W>
-63.786

> <W(PB)>
-65.856

> <W(SA)>
2.070

> <Valence>
14.117

> <Coulomb>
-1.228

> <VdW>
0.974

> <VdW6>
-4.885

> <VdW12>
5.859

> <Bond>
0.094

> <Angle>
2.818

> <Pdih>
11.205

> <Idih>
0.000

> <Tether>
0.000

$$$$
VeraChem MOL file


 17 16  0  0  0  0  0  0  0  0999 V2000     
   20.4776   17.8972   24.8867 C   0  0  0  0  0  0  0  0  0  0  0  0
   19.8747   16.8471   24.7840 O   0  5  0  0  0  0  0  0  0  0  0  0
   21.5789   17.9933   25.3915 O   0  0  0  0  0  0  0  0  0  0  0  0
   19.8143   19.1651   24.3647 C   0  0  0  0  0  0  0  0  0  0  0  0
   19.9971   19.9629   25.0938 H   0  0  0  0  0  0  0  0  0  0  0  0
   18.7307   18.9986   24.3361 H   0  0  0  0  0  0  0  0  0  0  0  0
   20.3375   19.5754   23.0014 C   0  0  0  0  0  0  0  0  0  0  0  0
   21.3754   19.9064   22.9820 H   0  0  0  0  0  0  0  0  0  0  0  0
   19.6145   19.5412   21.8779 C   0  0  0  0  0  0  0  0  0  0  0  0
   18.5783   19.2052   21.8970 H   0  0  0  0  0  0  0  0  0  0  0  0
   20.1391   19.9479   20.5189 C   0  0  0  0  0  0  0  0  0  0  0  0
   19.4238   20.6250   20.0326 H   0  0  0  0  0  0  0  0  0  0  0  0
   21.0808   20.5046   20.6213 H   0  0  0  0  0  0  0  0  0  0  0  0
   20.3704   18.7153   19.6234 C   0  0  0  0  0  0  0  0  0  0  0  0
   19.4353   18.1602   19.4719 H   0  0  0  0  0  0  0  0  0  0  0  0
   20.7514   19.0161   18.6388 H   0  0  0  0  0  0  0  0  0  0  0  0
   21.1020   18.0347   20.0787 H   0  0  0  0  0  0  0  0  0  0  0  0
  1  2  1  0  0  0  0
  1  3  2  0  0  0  0
  1  4  1  0  0  0  0
  4  5  1  0  0  0  0
  4  6  1  0  0  0  0
  4  7  1  0  0  0  0
  7  8  1  0  0  0  0
  7  9  2  0  0  0  0
  9 10  1  0  0  0  0
  9 11  1  0  0  0  0
 11 12  1  0  0  0  0
 11 13  1  0  0  0  0
 11 14  1  0  0  0  0
 14 15  1  0  0  0  0
 14 16  1  0  0  0  0
 14 17  1  0  0  0  0
M  END
> <VConfSearch Rank>
14

> <Conf_Id>
7

> <Delta U+W>
-0.041

> <U+W>
-49.468

> <U>
14.121

> <W>
-63.589

> <W(PB)>
-65.660

> <W(SA)>
2.071

> <Valence>
15.230

> <Coulomb>
-1.333

> <VdW>
0.224

> <VdW6>
-4.212

> <VdW12>
4.436

> <Bond>
0.044

> <Angle>
2.230

> <Pdih>
12.956

> <Idih>
0.000

> <Tether>
0.000

$$$$
VeraChem MOL file


 17 16  0  0  0  0  0  0  0  0999 V2000     
   20.3775   16.5224   22.2950 C   0  0  0  0  0  0  0  0  0  0  0  0
   21.5727   16.3968   22.1143 O   0  5  0  0  0  0  0  0  0  0  0  0
   19.5341   15.9789   21.6090 O   0  0  0  0  0  0  0  0  0  0  0  0
   19.9107   17.3863   23.4626 C   0  0  0  0  0  0  0  0  0  0  0  0
   20.6571   17.3038   24.2613 H   0  0  0  0  0  0  0  0  0  0  0  0
   18.9915   16.9424   23.8622 H   0  0  0  0  0  0  0  0  0  0  0  0
   19.6699   18.8540   23.1390 C   0  0  0  0  0  0  0  0  0  0  0  0
   19.3373   19.4523   23.9863 H   0  0  0  0  0  0  0  0  0  0  0  0
   19.8328   19.4329   21.9435 C   0  0  0  0  0  0  0  0  0  0  0  0
   20.1653   18.8577   21.0802 H   0  0  0  0  0  0  0  0  0  0  0  0
   19.5777   20.8993   21.6739 C   0  0  0  0  0  0  0  0  0  0  0  0
   18.9639   21.0083   20.7695 H   0  0  0  0  0  0  0  0  0  0  0  0
   19.0071   21.3489   22.4981 H   0  0  0  0  0  0  0  0  0  0  0  0
   20.9015   21.6671   21.4918 C   0  0  0  0  0  0  0  0  0  0  0  0
   20.7104   22.7301   21.2951 H   0  0  0  0  0  0  0  0  0  0  0  0
   21.5220   21.5937   22.3947 H   0  0  0  0  0  0  0  0  0  0  0  0
   21.4760   21.2623   20.6484 H   0  0  0  0  0  0  0  0  0  0  0  0
  1  2  1  0  0  0  0
  1  3  2  0  0  0  0
  1  4  1  0  0  0  0
  4  5  1  0  0  0  0
  4  6  1  0  0  0  0
  4  7  1  0  0  0  0
  7  8  1  0  0  0  0
  7  9  2  0  0  0  0
  9 10  1  0  0  0  0
  9 11  1  0  0  0  0
 11 12  1  0  0  0  0
 11 13  1  0  0  0  0
 11 14  1  0  0  0  0
 14 15  1  0  0  0  0
 14 16  1  0  0  0  0
 14 17  1  0  0  0  0
M  END
> <VConfSearch Rank>
15

> <Conf_Id>
39

> <Delta U+W>
-0.422

> <U+W>
-49.849

> <U>
14.465

> <W>
-64.314

> <W(PB)>
-66.406

> <W(SA)>
2.093

> <Valence>
14.072

> <Coulomb>
-0.199

> <VdW>
0.592

> <VdW6>
-5.019

> <VdW12>
5.611

> <Bond>
0.085

> <Angle>
2.748

> <Pdih>
11.238

> <Idih>
0.001

> <Tether>
0.000

$$$$
VeraChem MOL file


 17 16  0  0  0  0  0  0  0  0999 V2000     
   19.0742   17.0566   24.1130 C   0  0  0  0  0  0  0  0  0  0  0  0
   19.7295   16.0353   24.1788 O   0  5  0  0  0  0  0  0  0  0  0  0
   17.8594   17.0783   24.1372 O   0  0  0  0  0  0  0  0  0  0  0  0
   19.8180   18.3808   23.9995 C   0  0  0  0  0  0  0  0  0  0  0  0
   20.6825   18.3381   24.6720 H   0  0  0  0  0  0  0  0  0  0  0  0
   19.1612   19.1763   24.3716 H   0  0  0  0  0  0  0  0  0  0  0  0
   20.2743   18.6711   22.5824 C   0  0  0  0  0  0  0  0  0  0  0  0
   21.0528   18.0115   22.2002 H   0  0  0  0  0  0  0  0  0  0  0  0
   19.7822   19.6532   21.8211 C   0  0  0  0  0  0  0  0  0  0  0  0
   19.0017   20.3105   22.2029 H   0  0  0  0  0  0  0  0  0  0  0  0
   20.2358   19.9387   20.4069 C   0  0  0  0  0  0  0  0  0  0  0  0
   20.8192   19.0953   20.0126 H   0  0  0  0  0  0  0  0  0  0  0  0
   19.3608   20.0502   19.7523 H   0  0  0  0  0  0  0  0  0  0  0  0
   21.0888   21.2209   20.3471 C   0  0  0  0  0  0  0  0  0  0  0  0
   21.9842   21.1231   20.9749 H   0  0  0  0  0  0  0  0  0  0  0  0
   21.4144   21.4233   19.3185 H   0  0  0  0  0  0  0  0  0  0  0  0
   20.5166   22.0889   20.7002 H   0  0  0  0  0  0  0  0  0  0  0  0
  1  2  1  0  0  0  0
  1  3  2  0  0  0  0
  1  4  1  0  0  0  0
  4  5  1  0  0  0  0
  4  6  1  0  0  0  0
  4  7  1  0  0  0  0
  7  8  1  0  0  0  0
  7  9  2  0  0  0  0
  9 10  1  0  0  0  0
  9 11  1  0  0  0  0
 11 12  1  0  0  0  0
 11 13  1  0  0  0  0
 11 14  1  0  0  0  0
 14 15  1  0  0  0  0
 14 16  1  0  0  0  0
 14 17  1  0  0  0  0
M  END
> <VConfSearch Rank>
16

> <Conf_Id>
38

> <Delta U+W>
0.000

> <U+W>
-49.427

> <U>
13.666

> <W>
-63.093

> <W(PB)>
-65.225

> <W(SA)>
2.132

> <Valence>
15.226

> <Coulomb>
-1.822

> <VdW>
0.261

> <VdW6>
-4.165

> <VdW12>
4.426

> <Bond>
0.044

> <Angle>
2.229

> <Pdih>
12.953

> <Idih>
0.000

> <Tether>
0.000

$$$$
VeraChem MOL file


 17 16  0  0  0  0  0  0  0  0999 V2000     
   17.8596   20.4427   24.0232 C   0  0  0  0  0  0  0  0  0  0  0  0
   18.2589   21.4849   24.5042 O   0  5  0  0  0  0  0  0  0  0  0  0
   17.1876   19.6348   24.6337 O   0  0  0  0  0  0  0  0  0  0  0  0
   18.2149   20.1328   22.5750 C   0  0  0  0  0  0  0  0  0  0  0  0
   18.4249   21.0797   22.0630 H   0  0  0  0  0  0  0  0  0  0  0  0
   17.3281   19.7001   22.0977 H   0  0  0  0  0  0  0  0  0  0  0  0
   19.3881   19.1788   22.4561 C   0  0  0  0  0  0  0  0  0  0  0  0
   19.1978   18.1625   22.8001 H   0  0  0  0  0  0  0  0  0  0  0  0
   20.5869   19.5189   21.9729 C   0  0  0  0  0  0  0  0  0  0  0  0
   20.7774   20.5361   21.6321 H   0  0  0  0  0  0  0  0  0  0  0  0
   21.7568   18.5672   21.8588 C   0  0  0  0  0  0  0  0  0  0  0  0
   22.6581   19.0360   22.2765 H   0  0  0  0  0  0  0  0  0  0  0  0
   21.5720   17.6585   22.4482 H   0  0  0  0  0  0  0  0  0  0  0  0
   22.0136   18.1788   20.3897 C   0  0  0  0  0  0  0  0  0  0  0  0
   22.2393   19.0661   19.7837 H   0  0  0  0  0  0  0  0  0  0  0  0
   22.8639   17.4888   20.3132 H   0  0  0  0  0  0  0  0  0  0  0  0
   21.1336   17.6843   19.9576 H   0  0  0  0  0  0  0  0  0  0  0  0
  1  2  1  0  0  0  0
  1  3  2  0  0  0  0
  1  4  1  0  0  0  0
  4  5  1  0  0  0  0
  4  6  1  0  0  0  0
  4  7  1  0  0  0  0
  7  8  1  0  0  0  0
  7  9  2  0  0  0  0
  9 10  1  0  0  0  0
  9 11  1  0  0  0  0
 11 12  1  0  0  0  0
 11 13  1  0  0  0  0
 11 14  1  0  0  0  0
 14 15  1  0  0  0  0
 14 16  1  0  0  0  0
 14 17  1  0  0  0  0
M  END
> <VConfSearch Rank>
17

> <Conf_Id>
35

> <Delta U+W>
-0.102

> <U+W>
-49.529

> <U>
13.666

> <W>
-63.195

> <W(PB)>
-65.299

> <W(SA)>
2.103

> <Valence>
15.226

> <Coulomb>
-1.822

> <VdW>
0.261

> <VdW6>
-4.165

> <VdW12>
4.426

> <Bond>
0.044

> <Angle>
2.229

> <Pdih>
12.953

> <Idih>
0.000

> <Tether>
0.000

$$$$
VeraChem MOL file


 17 16  0  0  0  0  0  0  0  0999 V2000     
   17.8085   17.8448   21.0613 C   0  0  0  0  0  0  0  0  0  0  0  0
   17.9503   17.6901   19.8643 O   0  5  0  0  0  0  0  0  0  0  0  0
   17.3605   16.9908   21.8009 O   0  0  0  0  0  0  0  0  0  0  0  0
   18.2056   19.1860   21.6640 C   0  0  0  0  0  0  0  0  0  0  0  0
   17.6435   19.3233   22.5955 H   0  0  0  0  0  0  0  0  0  0  0  0
   17.8793   19.9727   20.9740 H   0  0  0  0  0  0  0  0  0  0  0  0
   19.6991   19.2936   21.9073 C   0  0  0  0  0  0  0  0  0  0  0  0
   20.3056   19.3235   21.0038 H   0  0  0  0  0  0  0  0  0  0  0  0
   20.2561   19.3440   23.1239 C   0  0  0  0  0  0  0  0  0  0  0  0
   19.6170   19.3072   24.0055 H   0  0  0  0  0  0  0  0  0  0  0  0
   21.7387   19.4478   23.4396 C   0  0  0  0  0  0  0  0  0  0  0  0
   21.9113   20.3435   24.0515 H   0  0  0  0  0  0  0  0  0  0  0  0
   22.0287   18.5979   24.0722 H   0  0  0  0  0  0  0  0  0  0  0  0
   22.6665   19.4953   22.2055 C   0  0  0  0  0  0  0  0  0  0  0  0
   22.4406   20.3659   21.5760 H   0  0  0  0  0  0  0  0  0  0  0  0
   23.7168   19.5687   22.5162 H   0  0  0  0  0  0  0  0  0  0  0  0
   22.5588   18.5879   21.5967 H   0  0  0  0  0  0  0  0  0  0  0  0
  1  2  1  0  0  0  0
  1  3  2  0  0  0  0
  1  4  1  0  0  0  0
  4  5  1  0  0  0  0
  4  6  1  0  0  0  0
  4  7  1  0  0  0  0
  7  8  1  0  0  0  0
  7  9  2  0  0  0  0
  9 10  1  0  0  0  0
  9 11  1  0  0  0  0
 11 12  1  0  0  0  0
 11 13  1  0  0  0  0
 11 14  1  0  0  0  0
 14 15  1  0  0  0  0
 14 16  1  0  0  0  0
 14 17  1  0  0  0  0
M  END
> <VConfSearch Rank>
18

> <Conf_Id>
19

> <Delta U+W>
-0.496

> <U+W>
-49.923

> <U>
13.863

> <W>
-63.786

> <W(PB)>
-65.856

> <W(SA)>
2.070

> <Valence>
14.117

> <Coulomb>
-1.228

> <VdW>
0.974

> <VdW6>
-4.885

> <VdW12>
5.859

> <Bond>
0.094

> <Angle>
2.818

> <Pdih>
11.205

> <Idih>
0.000

> <Tether>
0.000

$$$$
VeraChem MOL file


 17 16  0  0  0  0  0  0  0  0999 V2000     
   19.1225   21.7713   22.6822 C   0  0  0  0  0  0  0  0  0  0  0  0
   20.0183   22.2823   23.3251 O   0  5  0  0  0  0  0  0  0  0  0  0
   18.5766   22.3136   21.7415 O   0  0  0  0  0  0  0  0  0  0  0  0
   18.6492   20.3799   23.0821 C   0  0  0  0  0  0  0  0  0  0  0  0
   17.5547   20.3693   23.0244 H   0  0  0  0  0  0  0  0  0  0  0  0
   18.9169   20.2151   24.1327 H   0  0  0  0  0  0  0  0  0  0  0  0
   19.2280   19.2927   22.1966 C   0  0  0  0  0  0  0  0  0  0  0  0
   18.8806   19.3001   21.1640 H   0  0  0  0  0  0  0  0  0  0  0  0
   20.1091   18.3769   22.6102 C   0  0  0  0  0  0  0  0  0  0  0  0
   20.4601   18.3732   23.6416 H   0  0  0  0  0  0  0  0  0  0  0  0
   20.6872   17.2955   21.7249 C   0  0  0  0  0  0  0  0  0  0  0  0
   20.6198   16.3242   22.2335 H   0  0  0  0  0  0  0  0  0  0  0  0
   20.1057   17.2067   20.7969 H   0  0  0  0  0  0  0  0  0  0  0  0
   22.1590   17.5927   21.3777 C   0  0  0  0  0  0  0  0  0  0  0  0
   22.7723   17.6484   22.2867 H   0  0  0  0  0  0  0  0  0  0  0  0
   22.5733   16.8052   20.7349 H   0  0  0  0  0  0  0  0  0  0  0  0
   22.2484   18.5491   20.8458 H   0  0  0  0  0  0  0  0  0  0  0  0
  1  2  1  0  0  0  0
  1  3  2  0  0  0  0
  1  4  1  0  0  0  0
  4  5  1  0  0  0  0
  4  6  1  0  0  0  0
  4  7  1  0  0  0  0
  7  8  1  0  0  0  0
  7  9  2  0  0  0  0
  9 10  1  0  0  0  0
  9 11  1  0  0  0  0
 11 12  1  0  0  0  0
 11 13  1  0  0  0  0
 11 14  1  0  0  0  0
 14 15  1  0  0  0  0
 14 16  1  0  0  0  0
 14 17  1  0  0  0  0
M  END
> <VConfSearch Rank>
19

> <Conf_Id>
7

> <Delta U+W>
-0.041

> <U+W>
-49.468

> <U>
14.121

> <W>
-63.589

> <W(PB)>
-65.660

> <W(SA)>
2.071

> <Valence>
15.230

> <Coulomb>
-1.333

> <VdW>
0.224

> <VdW6>
-4.212

> <VdW12>
4.436

> <Bond>
0.044

> <Angle>
2.230

> <Pdih>
12.956

> <Idih>
0.000

> <Tether>
0.000

$$$$
VeraChem MOL file


 17 16  0  0  0  0  0  0  0  0999 V2000     
   22.6624   18.1804   22.1262 C   0  0  0  0  0  0  0  0  0  0  0  0
   23.0487   18.6297   21.0651 O   0  5  0  0  0  0  0  0  0  0  0  0
   22.6659   16.9950   22.3944 O   0  0  0  0  0  0  0  0  0  0  0  0
   22.1728   19.1592   23.1891 C   0  0  0  0  0  0  0  0  0  0  0  0
   22.7398   20.0905   23.0754 H   0  0  0  0  0  0  0  0  0  0  0  0
   22.4497   18.7557   24.1700 H   0  0  0  0  0  0  0  0  0  0  0  0
   20.6817   19.4637   23.1650 C   0  0  0  0  0  0  0  0  0  0  0  0
   20.3535   20.1642   23.9319 H   0  0  0  0  0  0  0  0  0  0  0  0
   19.7890   18.9563   22.3067 C   0  0  0  0  0  0  0  0  0  0  0  0
   20.0908   18.2547   21.5300 H   0  0  0  0  0  0  0  0  0  0  0  0
   18.3140   19.2912   22.3265 C   0  0  0  0  0  0  0  0  0  0  0  0
   17.7235   18.3667   22.2704 H   0  0  0  0  0  0  0  0  0  0  0  0
   18.0430   19.7814   23.2717 H   0  0  0  0  0  0  0  0  0  0  0  0
   17.9396   20.2121   21.1489 C   0  0  0  0  0  0  0  0  0  0  0  0
   16.8682   20.4507   21.1674 H   0  0  0  0  0  0  0  0  0  0  0  0
   18.4998   21.1552   21.1982 H   0  0  0  0  0  0  0  0  0  0  0  0
   18.1650   19.7305   20.1883 H   0  0  0  0  0  0  0  0  0  0  0  0
  1  2  1  0  0  0  0
  1  3  2  0  0  0  0
  1  4  1  0  0  0  0
  4  5  1  0  0  0  0
  4  6  1  0  0  0  0
  4  7  1  0  0  0  0
  7  8  1  0  0  0  0
  7  9  2  0  0  0  0
  9 10  1  0  0  0  0
  9 11  1  0  0  0  0
 11 12  1  0  0  0  0
 11 13  1  0  0  0  0
 11 14  1  0  0  0  0
 14 15  1  0  0  0  0
 14 16  1  0  0  0  0
 14 17  1  0  0  0  0
M  END
> <VConfSearch Rank>
20

> <Conf_Id>
39

> <Delta U+W>
-0.422

> <U+W>
-49.849

> <U>
14.465

> <W>
-64.314

> <W(PB)>
-66.406

> <W(SA)>
2.093

> <Valence>
14.072

> <Coulomb>
-0.199

> <VdW>
0.592

> <VdW6>
-5.019

> <VdW12>
5.611

> <Bond>
0.085

> <Angle>
2.748

> <Pdih>
11.238

> <Idih>
0.001

> <Tether>
0.000

$$$$
VeraChem MOL file


 17 16  0  0  0  0  0  0  0  0999 V2000     
   19.4003   19.6212   25.1703 C   0  0  0  0  0  0  0  0  0  0  0  0
   20.2710   19.3273   25.9656 O   0  5  0  0  0  0  0  0  0  0  0  0
   18.2238   19.3667   25.3375 O   0  0  0  0  0  0  0  0  0  0  0  0
   19.8072   20.3529   23.8980 C   0  0  0  0  0  0  0  0  0  0  0  0
   20.5639   21.0986   24.1680 H   0  0  0  0  0  0  0  0  0  0  0  0
   18.9347   20.9021   23.5241 H   0  0  0  0  0  0  0  0  0  0  0  0
   20.3545   19.4155   22.8386 C   0  0  0  0  0  0  0  0  0  0  0  0
   21.3121   18.9533   23.0764 H   0  0  0  0  0  0  0  0  0  0  0  0
   19.7383   19.1455   21.6838 C   0  0  0  0  0  0  0  0  0  0  0  0
   18.7793   19.6057   21.4479 H   0  0  0  0  0  0  0  0  0  0  0  0
   20.2837   18.2076   20.6302 C   0  0  0  0  0  0  0  0  0  0  0  0
   21.1000   17.5989   21.0429 H   0  0  0  0  0  0  0  0  0  0  0  0
   19.4979   17.5083   20.3138 H   0  0  0  0  0  0  0  0  0  0  0  0
   20.7990   18.9893   19.4060 C   0  0  0  0  0  0  0  0  0  0  0  0
   21.6045   19.6777   19.6939 H   0  0  0  0  0  0  0  0  0  0  0  0
   21.1929   18.3034   18.6448 H   0  0  0  0  0  0  0  0  0  0  0  0
   19.9927   19.5782   18.9495 H   0  0  0  0  0  0  0  0  0  0  0  0
  1  2  1  0  0  0  0
  1  3  2  0  0  0  0
  1  4  1  0  0  0  0
  4  5  1  0  0  0  0
  4  6  1  0  0  0  0
  4  7  1  0  0  0  0
  7  8  1  0  0  0  0
  7  9  2  0  0  0  0
  9 10  1  0  0  0  0
  9 11  1  0  0  0  0
 11 12  1  0  0  0  0
 11 13  1  0  0  0  0
 11 14  1  0  0  0  0
 14 15  1  0  0  0  0
 14 16  1  0  0  0  0
 14 17  1  0  0  0  0
M  END
> <VConfSearch Rank>
21

> <Conf_Id>
38

> <Delta U+W>
0.000

> <U+W>
-49.427

> <U>
13.666

> <W>
-63.093

> <W(PB)>
-65.225

> <W(SA)>
2.132

> <Valence>
15.226

> <Coulomb>
-1.822

> <VdW>
0.261

> <VdW6>
-4.165

> <VdW12>
4.426

> <Bond>
0.044

> <Angle>
2.229

> <Pdih>
12.953

> <Idih>
0.000

> <Tether>
0.000

$$$$
VeraChem MOL file


 17 16  0  0  0  0  0  0  0  0999 V2000     
   22.3305   18.7445   24.2741 C   0  0  0  0  0  0  0  0  0  0  0  0
   22.6671   19.8055   24.7618 O   0  5  0  0  0  0  0  0  0  0  0  0
   23.1029   17.8341   24.0472 O   0  0  0  0  0  0  0  0  0  0  0  0
   20.8602   18.5405   23.9331 C   0  0  0  0  0  0  0  0  0  0  0  0
   20.2660   19.2195   24.5564 H   0  0  0  0  0  0  0  0  0  0  0  0
   20.5880   17.5189   24.2222 H   0  0  0  0  0  0  0  0  0  0  0  0
   20.5696   18.7600   22.4606 C   0  0  0  0  0  0  0  0  0  0  0  0
   20.9993   18.0197   21.7864 H   0  0  0  0  0  0  0  0  0  0  0  0
   19.8459   19.7761   21.9812 C   0  0  0  0  0  0  0  0  0  0  0  0
   19.4192   20.5178   22.6557 H   0  0  0  0  0  0  0  0  0  0  0  0
   19.5605   19.9956   20.5123 C   0  0  0  0  0  0  0  0  0  0  0  0
   19.7697   21.0405   20.2461 H   0  0  0  0  0  0  0  0  0  0  0  0
   20.2236   19.3741   19.8948 H   0  0  0  0  0  0  0  0  0  0  0  0
   18.0931   19.6641   20.1776 C   0  0  0  0  0  0  0  0  0  0  0  0
   17.4069   20.2987   20.7538 H   0  0  0  0  0  0  0  0  0  0  0  0
   17.8918   19.8259   19.1107 H   0  0  0  0  0  0  0  0  0  0  0  0
   17.8671   18.6154   20.4118 H   0  0  0  0  0  0  0  0  0  0  0  0
  1  2  1  0  0  0  0
  1  3  2  0  0  0  0
  1  4  1  0  0  0  0
  4  5  1  0  0  0  0
  4  6  1  0  0  0  0
  4  7  1  0  0  0  0
  7  8  1  0  0  0  0
  7  9  2  0  0  0  0
  9 10  1  0  0  0  0
  9 11  1  0  0  0  0
 11 12  1  0  0  0  0
 11 13  1  0  0  0  0
 11 14  1  0  0  0  0
 14 15  1  0  0  0  0
 14 16  1  0  0  0  0
 14 17  1  0  0  0  0
M  END
> <VConfSearch Rank>
22

> <Conf_Id>
35

> <Delta U+W>
-0.102

> <U+W>
-49.529

> <U>
13.666

> <W>
-63.195

> <W(PB)>
-65.299

> <W(SA)>
2.103

> <Valence>
15.226

> <Coulomb>
-1.822

> <VdW>
0.261

> <VdW6>
-4.165

> <VdW12>
4.426

> <Bond>
0.044

> <Angle>
2.229

> <Pdih>
12.953

> <Idih>
0.000

> <Tether>
0.000

$$$$
VeraChem MOL file


 17 16  0  0  0  0  0  0  0  0999 V2000     
   19.2787   21.4869   20.7500 C   0  0  0  0  0  0  0  0  0  0  0  0
   19.7007   22.4916   21.2879 O   0  5  0  0  0  0  0  0  0  0  0  0
   19.2969   21.3102   19.5478 O   0  0  0  0  0  0  0  0  0  0  0  0
   18.6864   20.3952   21.6315 C   0  0  0  0  0  0  0  0  0  0  0  0
   17.9933   19.8017   21.0233 H   0  0  0  0  0  0  0  0  0  0  0  0
   18.0911   20.8819   22.4126 H   0  0  0  0  0  0  0  0  0  0  0  0
   19.7507   19.5158   22.2603 C   0  0  0  0  0  0  0  0  0  0  0  0
   20.3746   20.0155   22.9992 H   0  0  0  0  0  0  0  0  0  0  0  0
   19.9355   18.2271   21.9475 C   0  0  0  0  0  0  0  0  0  0  0  0
   19.2940   17.7620   21.1996 H   0  0  0  0  0  0  0  0  0  0  0  0
   20.9802   17.2919   22.5329 C   0  0  0  0  0  0  0  0  0  0  0  0
   20.4736   16.4243   22.9769 H   0  0  0  0  0  0  0  0  0  0  0  0
   21.5948   16.8888   21.7167 H   0  0  0  0  0  0  0  0  0  0  0  0
   21.9064   17.9298   23.5917 C   0  0  0  0  0  0  0  0  0  0  0  0
   21.3291   18.2966   24.4506 H   0  0  0  0  0  0  0  0  0  0  0  0
   22.6306   17.1934   23.9634 H   0  0  0  0  0  0  0  0  0  0  0  0
   22.4702   18.7706   23.1665 H   0  0  0  0  0  0  0  0  0  0  0  0
  1  2  1  0  0  0  0
  1  3  2  0  0  0  0
  1  4  1  0  0  0  0
  4  5  1  0  0  0  0
  4  6  1  0  0  0  0
  4  7  1  0  0  0  0
  7  8  1  0  0  0  0
  7  9  2  0  0  0  0
  9 10  1  0  0  0  0
  9 11  1  0  0  0  0
 11 12  1  0  0  0  0
 11 13  1  0  0  0  0
 11 14  1  0  0  0  0
 14 15  1  0  0  0  0
 14 16  1  0  0  0  0
 14 17  1  0  0  0  0
M  END
> <VConfSearch Rank>
23

> <Conf_Id>
19

> <Delta U+W>
-0.496

> <U+W>
-49.923

> <U>
13.863

> <W>
-63.786

> <W(PB)>
-65.856

> <W(SA)>
2.070

> <Valence>
14.117

> <Coulomb>
-1.228

> <VdW>
0.974

> <VdW6>
-4.885

> <VdW12>
5.859

> <Bond>
0.094

> <Angle>
2.818

> <Pdih>
11.205

> <Idih>
0.000

> <Tether>
0.000

$$$$
VeraChem MOL file


 17 16  0  0  0  0  0  0  0  0999 V2000     
   17.7040   18.1363   20.8937 C   0  0  0  0  0  0  0  0  0  0  0  0
   17.8854   16.9366   20.8256 O   0  5  0  0  0  0  0  0  0  0  0  0
   16.6634   18.6383   21.2708 O   0  0  0  0  0  0  0  0  0  0  0  0
   18.8373   19.0633   20.4741 C   0  0  0  0  0  0  0  0  0  0  0  0
   18.4009   19.8830   19.8918 H   0  0  0  0  0  0  0  0  0  0  0  0
   19.5021   18.5094   19.8003 H   0  0  0  0  0  0  0  0  0  0  0  0
   19.6040   19.6172   21.6599 C   0  0  0  0  0  0  0  0  0  0  0  0
   19.0464   20.3066   22.2932 H   0  0  0  0  0  0  0  0  0  0  0  0
   20.8704   19.3029   21.9489 C   0  0  0  0  0  0  0  0  0  0  0  0
   21.4258   18.6094   21.3182 H   0  0  0  0  0  0  0  0  0  0  0  0
   21.6321   19.8541   23.1335 C   0  0  0  0  0  0  0  0  0  0  0  0
   22.6173   20.2132   22.8066 H   0  0  0  0  0  0  0  0  0  0  0  0
   21.1063   20.7197   23.5596 H   0  0  0  0  0  0  0  0  0  0  0  0
   21.8124   18.7800   24.2238 C   0  0  0  0  0  0  0  0  0  0  0  0
   22.3701   17.9176   23.8356 H   0  0  0  0  0  0  0  0  0  0  0  0
   22.3652   19.1854   25.0812 H   0  0  0  0  0  0  0  0  0  0  0  0
   20.8385   18.4231   24.5841 H   0  0  0  0  0  0  0  0  0  0  0  0
  1  2  1  0  0  0  0
  1  3  2  0  0  0  0
  1  4  1  0  0  0  0
  4  5  1  0  0  0  0
  4  6  1  0  0  0  0
  4  7  1  0  0  0  0
  7  8  1  0  0  0  0
  7  9  2  0  0  0  0
  9 10  1  0  0  0  0
  9 11  1  0  0  0  0
 11 12  1  0  0  0  0
 11 13  1  0  0  0  0
 11 14  1  0  0  0  0
 14 15  1  0  0  0  0
 14 16  1  0  0  0  0
 14 17  1  0  0  0  0
M  END
> <VConfSearch Rank>
24

> <Conf_Id>
7

> <Delta U+W>
-0.041

> <U+W>
-49.468

> <U>
14.121

> <W>
-63.589

> <W(PB)>
-65.660

> <W(SA)>
2.071

> <Valence>
15.230

> <Coulomb>
-1.333

> <VdW>
0.224

> <VdW6>
-4.212

> <VdW12>
4.436

> <Bond>
0.044

> <Angle>
2.230

> <Pdih>
12.956

> <Idih>
0.000

> <Tether>
0.000

$$$$
VeraChem MOL file


 17 16  0  0  0  0  0  0  0  0999 V2000     
   18.4004   21.2261   21.3605 C   0  0  0  0  0  0  0  0  0  0  0  0
   19.1645   21.9424   20.7439 O   0  5  0  0  0  0  0  0  0  0  0  0
   17.6637   21.6294   22.2390 O   0  0  0  0  0  0  0  0  0  0  0  0
   18.3428   19.7465   20.9932 C   0  0  0  0  0  0  0  0  0  0  0  0
   18.5528   19.6577   19.9210 H   0  0  0  0  0  0  0  0  0  0  0  0
   17.3089   19.4074   21.1270 H   0  0  0  0  0  0  0  0  0  0  0  0
   19.2825   18.8386   21.7739 C   0  0  0  0  0  0  0  0  0  0  0  0
   19.2252   17.7869   21.4962 H   0  0  0  0  0  0  0  0  0  0  0  0
   20.1350   19.2247   22.7306 C   0  0  0  0  0  0  0  0  0  0  0  0
   20.2127   20.2702   23.0267 H   0  0  0  0  0  0  0  0  0  0  0  0
   21.0486   18.2796   23.4789 C   0  0  0  0  0  0  0  0  0  0  0  0
   20.9760   18.4709   24.5581 H   0  0  0  0  0  0  0  0  0  0  0  0
   20.7371   17.2377   23.3220 H   0  0  0  0  0  0  0  0  0  0  0  0
   22.5116   18.4482   23.0247 C   0  0  0  0  0  0  0  0  0  0  0  0
   23.1701   17.7611   23.5718 H   0  0  0  0  0  0  0  0  0  0  0  0
   22.6136   18.2366   21.9521 H   0  0  0  0  0  0  0  0  0  0  0  0
   22.8621   19.4729   23.2057 H   0  0  0  0  0  0  0  0  0  0  0  0
  1  2  1  0  0  0  0
  1  3  2  0  0  0  0
  1  4  1  0  0  0  0
  4  5  1  0  0  0  0
  4  6  1  0  0  0  0
  4  7  1  0  0  0  0
  7  8  1  0  0  0  0
  7  9  2  0  0  0  0
  9 10  1  0  0  0  0
  9 11  1  0  0  0  0
 11 12  1  0  0  0  0
 11 13  1  0  0  0  0
 11 14  1  0  0  0  0
 14 15  1  0  0  0  0
 14 16  1  0  0  0  0
 14 17  1  0  0  0  0
M  END
> <VConfSearch Rank>
25

> <Conf_Id>
39

> <Delta U+W>
-0.422

> <U+W>
-49.849

> <U>
14.465

> <W>
-64.314

> <W(PB)>
-66.406

> <W(SA)>
2.093

> <Valence>
14.072

> <Coulomb>
-0.199

> <VdW>
0.592

> <VdW6>
-5.019

> <VdW12>
5.611

> <Bond>
0.085

> <Angle>
2.748

> <Pdih>
11.238

> <Idih>
0.001

> <Tether>
0.000

$$$$
VeraChem MOL file


 17 16  0  0  0  0  0  0  0  0999 V2000     
   18.6522   21.7990   23.3371 C   0  0  0  0  0  0  0  0  0  0  0  0
   17.9203   21.5945   24.2855 O   0  5  0  0  0  0  0  0  0  0  0  0
   18.3934   22.5828   22.4452 O   0  0  0  0  0  0  0  0  0  0  0  0
   19.9675   21.0342   23.2673 C   0  0  0  0  0  0  0  0  0  0  0  0
   20.3912   21.0036   24.2777 H   0  0  0  0  0  0  0  0  0  0  0  0
   20.6648   21.6071   22.6442 H   0  0  0  0  0  0  0  0  0  0  0  0
   19.7926   19.6254   22.7330 C   0  0  0  0  0  0  0  0  0  0  0  0
   19.2415   18.9466   23.3832 H   0  0  0  0  0  0  0  0  0  0  0  0
   20.2620   19.2054   21.5543 C   0  0  0  0  0  0  0  0  0  0  0  0
   20.8104   19.8856   20.9033 H   0  0  0  0  0  0  0  0  0  0  0  0
   20.0834   17.8013   21.0215 C   0  0  0  0  0  0  0  0  0  0  0  0
   19.3173   17.2657   21.5989 H   0  0  0  0  0  0  0  0  0  0  0  0
   19.7254   17.8413   19.9838 H   0  0  0  0  0  0  0  0  0  0  0  0
   21.4075   17.0148   21.0783 C   0  0  0  0  0  0  0  0  0  0  0  0
   21.7722   16.9394   22.1111 H   0  0  0  0  0  0  0  0  0  0  0  0
   21.2717   15.9970   20.6898 H   0  0  0  0  0  0  0  0  0  0  0  0
   22.1823   17.5083   20.4770 H   0  0  0  0  0  0  0  0  0  0  0  0
  1  2  1  0  0  0  0
  1  3  2  0  0  0  0
  1  4  1  0  0  0  0
  4  5  1  0  0  0  0
  4  6  1  0  0  0  0
  4  7  1  0  0  0  0
  7  8  1  0  0  0  0
  7  9  2  0  0  0  0
  9 10  1  0  0  0  0
  9 11  1  0  0  0  0
 11 12  1  0  0  0  0
 11 13  1  0  0  0  0
 11 14  1  0  0  0  0
 14 15  1  0  0  0  0
 14 16  1  0  0  0  0
 14 17  1  0  0  0  0
M  END
> <VConfSearch Rank>
26

> <Conf_Id>
38

> <Delta U+W>
0.000

> <U+W>
-49.427

> <U>
13.666

> <W>
-63.093

> <W(PB)>
-65.225

> <W(SA)>
2.132

> <Valence>
15.226

> <Coulomb>
-1.822

> <VdW>
0.261

> <VdW6>
-4.165

> <VdW12>
4.426

> <Bond>
0.044

> <Angle>
2.229

> <Pdih>
12.953

> <Idih>
0.000

> <Tether>
0.000

$$$$
VeraChem MOL file


 17 16  0  0  0  0  0  0  0  0999 V2000     
   17.8693   18.7307   24.2993 C   0  0  0  0  0  0  0  0  0  0  0  0
   18.4080   18.3835   25.3318 O   0  5  0  0  0  0  0  0  0  0  0  0
   16.8147   18.2735   23.9048 O   0  0  0  0  0  0  0  0  0  0  0  0
   18.5485   19.8009   23.4549 C   0  0  0  0  0  0  0  0  0  0  0  0
   19.2050   20.3881   24.1082 H   0  0  0  0  0  0  0  0  0  0  0  0
   17.7713   20.4805   23.0869 H   0  0  0  0  0  0  0  0  0  0  0  0
   19.3234   19.2161   22.2894 C   0  0  0  0  0  0  0  0  0  0  0  0
   18.7157   18.7540   21.5120 H   0  0  0  0  0  0  0  0  0  0  0  0
   20.6556   19.2415   22.1848 C   0  0  0  0  0  0  0  0  0  0  0  0
   21.2628   19.7010   22.9640 H   0  0  0  0  0  0  0  0  0  0  0  0
   21.4267   18.6544   21.0238 C   0  0  0  0  0  0  0  0  0  0  0  0
   22.2475   18.0300   21.4019 H   0  0  0  0  0  0  0  0  0  0  0  0
   20.7802   17.9972   20.4260 H   0  0  0  0  0  0  0  0  0  0  0  0
   21.9995   19.7646   20.1213 C   0  0  0  0  0  0  0  0  0  0  0  0
   22.6808   20.4152   20.6851 H   0  0  0  0  0  0  0  0  0  0  0  0
   22.5585   19.3325   19.2811 H   0  0  0  0  0  0  0  0  0  0  0  0
   21.1939   20.3873   19.7103 H   0  0  0  0  0  0  0  0  0  0  0  0
  1  2  1  0  0  0  0
  1  3  2  0  0  0  0
  1  4  1  0  0  0  0
  4  5  1  0  0  0  0
  4  6  1  0  0  0  0
  4  7  1  0  0  0  0
  7  8  1  0  0  0  0
  7  9  2  0  0  0  0
  9 10  1  0  0  0  0
  9 11  1  0  0  0  0
 11 12  1  0  0  0  0
 11 13  1  0  0  0  0
 11 14  1  0  0  0  0
 14 15  1  0  0  0  0
 14 16  1  0  0  0  0
 14 17  1  0  0  0  0
M  END
> <VConfSearch Rank>
27

> <Conf_Id>
35

> <Delta U+W>
-0.102

> <U+W>
-49.529

> <U>
13.666

> <W>
-63.195

> <W(PB)>
-65.299

> <W(SA)>
2.103

> <Valence>
15.226

> <Coulomb>
-1.822

> <VdW>
0.261

> <VdW6>
-4.165

> <VdW12>
4.426

> <Bond>
0.044

> <Angle>
2.229

> <Pdih>
12.953

> <Idih>
0.000

> <Tether>
0.000

$$$$
VeraChem MOL file


 17 16  0  0  0  0  0  0  0  0999 V2000     
   17.8537   20.8280   22.5259 C   0  0  0  0  0  0  0  0  0  0  0  0
   17.5949   20.9581   23.7062 O   0  5  0  0  0  0  0  0  0  0  0  0
   17.8674   21.7509   21.7353 O   0  0  0  0  0  0  0  0  0  0  0  0
   18.1684   19.4301   22.0098 C   0  0  0  0  0  0  0  0  0  0  0  0
   17.9525   19.4048   20.9349 H   0  0  0  0  0  0  0  0  0  0  0  0
   17.4754   18.7312   22.4923 H   0  0  0  0  0  0  0  0  0  0  0  0
   19.6015   19.0176   22.2880 C   0  0  0  0  0  0  0  0  0  0  0  0
   19.8355   18.8700   23.3409 H   0  0  0  0  0  0  0  0  0  0  0  0
   20.5278   18.8465   21.3365 C   0  0  0  0  0  0  0  0  0  0  0  0
   20.2577   19.0076   20.2934 H   0  0  0  0  0  0  0  0  0  0  0  0
   21.9770   18.4394   21.5435 C   0  0  0  0  0  0  0  0  0  0  0  0
   22.1756   17.5235   20.9707 H   0  0  0  0  0  0  0  0  0  0  0  0
   22.6289   19.2079   21.1064 H   0  0  0  0  0  0  0  0  0  0  0  0
   22.3864   18.2111   23.0153 C   0  0  0  0  0  0  0  0  0  0  0  0
   21.7902   17.4091   23.4702 H   0  0  0  0  0  0  0  0  0  0  0  0
   23.4434   17.9222   23.0804 H   0  0  0  0  0  0  0  0  0  0  0  0
   22.2506   19.1251   23.6083 H   0  0  0  0  0  0  0  0  0  0  0  0
  1  2  1  0  0  0  0
  1  3  2  0  0  0  0
  1  4  1  0  0  0  0
  4  5  1  0  0  0  0
  4  6  1  0  0  0  0
  4  7  1  0  0  0  0
  7  8  1  0  0  0  0
  7  9  2  0  0  0  0
  9 10  1  0  0  0  0
  9 11  1  0  0  0  0
 11 12  1  0  0  0  0
 11 13  1  0  0  0  0
 11 14  1  0  0  0  0
 14 15  1  0  0  0  0
 14 16  1  0  0  0  0
 14 17  1  0  0  0  0
M  END
> <VConfSearch Rank>
28

> <Conf_Id>
19

> <Delta U+W>
-0.496

> <U+W>
-49.923

> <U>
13.863

> <W>
-63.786

> <W(PB)>
-65.856

> <W(SA)>
2.070

> <Valence>
14.117

> <Coulomb>
-1.228

> <VdW>
0.974

> <VdW6>
-4.885

> <VdW12>
5.859

> <Bond>
0.094

> <Angle>
2.818

> <Pdih>
11.205

> <Idih>
0.000

> <Tether>
0.000

$$$$
VeraChem MOL file


 17 16  0  0  0  0  0  0  0  0999 V2000     
   20.3022   16.6811   20.5035 C   0  0  0  0  0  0  0  0  0  0  0  0
   19.1323   16.4769   20.2456 O   0  5  0  0  0  0  0  0  0  0  0  0
   21.1868   16.6646   19.6703 O   0  0  0  0  0  0  0  0  0  0  0  0
   20.6844   16.9627   21.9507 C   0  0  0  0  0  0  0  0  0  0  0  0
   21.6074   16.4120   22.1662 H   0  0  0  0  0  0  0  0  0  0  0  0
   19.9038   16.5467   22.5990 H   0  0  0  0  0  0  0  0  0  0  0  0
   20.8849   18.4416   22.2213 C   0  0  0  0  0  0  0  0  0  0  0  0
   21.7454   18.8922   21.7277 H   0  0  0  0  0  0  0  0  0  0  0  0
   20.0835   19.1789   22.9962 C   0  0  0  0  0  0  0  0  0  0  0  0
   19.2202   18.7289   23.4854 H   0  0  0  0  0  0  0  0  0  0  0  0
   20.2835   20.6542   23.2624 C   0  0  0  0  0  0  0  0  0  0  0  0
   20.2080   20.8502   24.3405 H   0  0  0  0  0  0  0  0  0  0  0  0
   21.2907   20.9672   22.9546 H   0  0  0  0  0  0  0  0  0  0  0  0
   19.2356   21.4989   22.5119 C   0  0  0  0  0  0  0  0  0  0  0  0
   18.2185   21.2336   22.8291 H   0  0  0  0  0  0  0  0  0  0  0  0
   19.3856   22.5685   22.7082 H   0  0  0  0  0  0  0  0  0  0  0  0
   19.3087   21.3377   21.4282 H   0  0  0  0  0  0  0  0  0  0  0  0
  1  2  1  0  0  0  0
  1  3  2  0  0  0  0
  1  4  1  0  0  0  0
  4  5  1  0  0  0  0
  4  6  1  0  0  0  0
  4  7  1  0  0  0  0
  7  8  1  0  0  0  0
  7  9  2  0  0  0  0
  9 10  1  0  0  0  0
  9 11  1  0  0  0  0
 11 12  1  0  0  0  0
 11 13  1  0  0  0  0
 11 14  1  0  0  0  0
 14 15  1  0  0  0  0
 14 16  1  0  0  0  0
 14 17  1  0  0  0  0
M  END
> <VConfSearch Rank>
29

> <Conf_Id>
7

> <Delta U+W>
-0.041

> <U+W>
-49.468

> <U>
14.121

> <W>
-63.589

> <W(PB)>
-65.660

> <W(SA)>
2.071

> <Valence>
15.230

> <Coulomb>
-1.333

> <VdW>
0.224

> <VdW6>
-4.212

> <VdW12>
4.436

> <Bond>
0.044

> <Angle>
2.230

> <Pdih>
12.956

> <Idih>
0.000

> <Tether>
0.000

$$$$
VeraChem MOL file


 17 16  0  0  0  0  0  0  0  0999 V2000     
   18.2548   21.2083   21.6621 C   0  0  0  0  0  0  0  0  0  0  0  0
   18.2645   21.1672   20.4475 O   0  5  0  0  0  0  0  0  0  0  0  0
   18.4265   22.2280   22.3006 O   0  0  0  0  0  0  0  0  0  0  0  0
   17.9851   19.9155   22.4260 C   0  0  0  0  0  0  0  0  0  0  0  0
   17.3132   19.2992   21.8174 H   0  0  0  0  0  0  0  0  0  0  0  0
   17.4221   20.1716   23.3310 H   0  0  0  0  0  0  0  0  0  0  0  0
   19.2177   19.1062   22.8037 C   0  0  0  0  0  0  0  0  0  0  0  0
   19.0026   18.1876   23.3483 H   0  0  0  0  0  0  0  0  0  0  0  0
   20.4863   19.4283   22.5246 C   0  0  0  0  0  0  0  0  0  0  0  0
   20.7286   20.3405   21.9806 H   0  0  0  0  0  0  0  0  0  0  0  0
   21.6784   18.5878   22.9250 C   0  0  0  0  0  0  0  0  0  0  0  0
   22.4419   19.2258   23.3903 H   0  0  0  0  0  0  0  0  0  0  0  0
   21.3886   17.8426   23.6786 H   0  0  0  0  0  0  0  0  0  0  0  0
   22.2842   17.8690   21.7038 C   0  0  0  0  0  0  0  0  0  0  0  0
   23.1494   17.2618   21.9999 H   0  0  0  0  0  0  0  0  0  0  0  0
   21.5453   17.2046   21.2366 H   0  0  0  0  0  0  0  0  0  0  0  0
   22.6181   18.5932   20.9492 H   0  0  0  0  0  0  0  0  0  0  0  0
  1  2  1  0  0  0  0
  1  3  2  0  0  0  0
  1  4  1  0  0  0  0
  4  5  1  0  0  0  0
  4  6  1  0  0  0  0
  4  7  1  0  0  0  0
  7  8  1  0  0  0  0
  7  9  2  0  0  0  0
  9 10  1  0  0  0  0
  9 11  1  0  0  0  0
 11 12  1  0  0  0  0
 11 13  1  0  0  0  0
 11 14  1  0  0  0  0
 14 15  1  0  0  0  0
 14 16  1  0  0  0  0
 14 17  1  0  0  0  0
M  END
> <VConfSearch Rank>
30

> <Conf_Id>
39

> <Delta U+W>
-0.422

> <U+W>
-49.849

> <U>
14.465

> <W>
-64.314

> <W(PB)>
-66.406

> <W(SA)>
2.093

> <Valence>
14.072

> <Coulomb>
-0.199

> <VdW>
0.592

> <VdW6>
-5.019

> <VdW12>
5.611

> <Bond>
0.085

> <Angle>
2.748

> <Pdih>
11.238

> <Idih>
0.001

> <Tether>
0.000

$$$$
VeraChem MOL file


 17 16  0  0  0  0  0  0  0  0999 V2000     
   21.2063   19.7340   25.0382 C   0  0  0  0  0  0  0  0  0  0  0  0
   21.8324   20.7580   25.2291 O   0  5  0  0  0  0  0  0  0  0  0  0
   21.5090   18.6612   25.5222 O   0  0  0  0  0  0  0  0  0  0  0  0
   19.9725   19.8023   24.1478 C   0  0  0  0  0  0  0  0  0  0  0  0
   19.4339   20.7252   24.3920 H   0  0  0  0  0  0  0  0  0  0  0  0
   19.3129   18.9667   24.4110 H   0  0  0  0  0  0  0  0  0  0  0  0
   20.3195   19.7769   22.6714 C   0  0  0  0  0  0  0  0  0  0  0  0
   20.8394   20.6597   22.3006 H   0  0  0  0  0  0  0  0  0  0  0  0
   20.0296   18.7641   21.8490 C   0  0  0  0  0  0  0  0  0  0  0  0
   19.5123   17.8803   22.2211 H   0  0  0  0  0  0  0  0  0  0  0  0
   20.3797   18.7389   20.3779 C   0  0  0  0  0  0  0  0  0  0  0  0
   21.1100   19.5255   20.1431 H   0  0  0  0  0  0  0  0  0  0  0  0
   20.8558   17.7815   20.1266 H   0  0  0  0  0  0  0  0  0  0  0  0
   19.1236   18.9325   19.5063 C   0  0  0  0  0  0  0  0  0  0  0  0
   18.6441   19.8964   19.7221 H   0  0  0  0  0  0  0  0  0  0  0  0
   19.3838   18.9127   18.4400 H   0  0  0  0  0  0  0  0  0  0  0  0
   18.3908   18.1365   19.6929 H   0  0  0  0  0  0  0  0  0  0  0  0
  1  2  1  0  0  0  0
  1  3  2  0  0  0  0
  1  4  1  0  0  0  0
  4  5  1  0  0  0  0
  4  6  1  0  0  0  0
  4  7  1  0  0  0  0
  7  8  1  0  0  0  0
  7  9  2  0  0  0  0
  9 10  1  0  0  0  0
  9 11  1  0  0  0  0
 11 12  1  0  0  0  0
 11 13  1  0  0  0  0
 11 14  1  0  0  0  0
 14 15  1  0  0  0  0
 14 16  1  0  0  0  0
 14 17  1  0  0  0  0
M  END
> <VConfSearch Rank>
31

> <Conf_Id>
38

> <Delta U+W>
0.000

> <U+W>
-49.427

> <U>
13.666

> <W>
-63.093

> <W(PB)>
-65.225

> <W(SA)>
2.132

> <Valence>
15.226

> <Coulomb>
-1.822

> <VdW>
0.261

> <VdW6>
-4.165

> <VdW12>
4.426

> <Bond>
0.044

> <Angle>
2.229

> <Pdih>
12.953

> <Idih>
0.000

> <Tether>
0.000

$$$$
VeraChem MOL file


 17 16  0  0  0  0  0  0  0  0999 V2000     
   19.6637   17.6881   24.8149 C   0  0  0  0  0  0  0  0  0  0  0  0
   20.6167   17.8854   25.5427 O   0  5  0  0  0  0  0  0  0  0  0  0
   19.0872   16.6211   24.7369 O   0  0  0  0  0  0  0  0  0  0  0  0
   19.1593   18.8409   23.9569 C   0  0  0  0  0  0  0  0  0  0  0  0
   19.4692   19.7811   24.4289 H   0  0  0  0  0  0  0  0  0  0  0  0
   18.0636   18.8184   23.9761 H   0  0  0  0  0  0  0  0  0  0  0  0
   19.6568   18.7611   22.5261 C   0  0  0  0  0  0  0  0  0  0  0  0
   19.2580   17.9333   21.9406 H   0  0  0  0  0  0  0  0  0  0  0  0
   20.5236   19.6214   21.9833 C   0  0  0  0  0  0  0  0  0  0  0  0
   20.9245   20.4471   22.5703 H   0  0  0  0  0  0  0  0  0  0  0  0
   21.0216   19.5380   20.5576 C   0  0  0  0  0  0  0  0  0  0  0  0
   22.1159   19.6315   20.5411 H   0  0  0  0  0  0  0  0  0  0  0  0
   20.7824   18.5573   20.1237 H   0  0  0  0  0  0  0  0  0  0  0  0
   20.3981   20.6466   19.6874 C   0  0  0  0  0  0  0  0  0  0  0  0
   20.6536   21.6407   20.0770 H   0  0  0  0  0  0  0  0  0  0  0  0
   20.7636   20.5813   18.6544 H   0  0  0  0  0  0  0  0  0  0  0  0
   19.3038   20.5578   19.6678 H   0  0  0  0  0  0  0  0  0  0  0  0
  1  2  1  0  0  0  0
  1  3  2  0  0  0  0
  1  4  1  0  0  0  0
  4  5  1  0  0  0  0
  4  6  1  0  0  0  0
  4  7  1  0  0  0  0
  7  8  1  0  0  0  0
  7  9  2  0  0  0  0
  9 10  1  0  0  0  0
  9 11  1  0  0  0  0
 11 12  1  0  0  0  0
 11 13  1  0  0  0  0
 11 14  1  0  0  0  0
 14 15  1  0  0  0  0
 14 16  1  0  0  0  0
 14 17  1  0  0  0  0
M  END
> <VConfSearch Rank>
32

> <Conf_Id>
35

> <Delta U+W>
-0.102

> <U+W>
-49.529

> <U>
13.666

> <W>
-63.195

> <W(PB)>
-65.299

> <W(SA)>
2.103

> <Valence>
15.226

> <Coulomb>
-1.822

> <VdW>
0.261

> <VdW6>
-4.165

> <VdW12>
4.426

> <Bond>
0.044

> <Angle>
2.229

> <Pdih>
12.953

> <Idih>
0.000

> <Tether>
0.000

$$$$
VeraChem MOL file


 17 16  0  0  0  0  0  0  0  0999 V2000     
   23.1607   19.2335   21.9656 C   0  0  0  0  0  0  0  0  0  0  0  0
   23.4995   18.9108   20.8439 O   0  5  0  0  0  0  0  0  0  0  0  0
   23.6091   20.1993   22.5513 O   0  0  0  0  0  0  0  0  0  0  0  0
   22.1245   18.3740   22.6778 C   0  0  0  0  0  0  0  0  0  0  0  0
   22.2468   18.5145   23.7585 H   0  0  0  0  0  0  0  0  0  0  0  0
   22.3557   17.3242   22.4631 H   0  0  0  0  0  0  0  0  0  0  0  0
   20.7068   18.6942   22.2432 C   0  0  0  0  0  0  0  0  0  0  0  0
   20.4758   18.4263   21.2136 H   0  0  0  0  0  0  0  0  0  0  0  0
   19.7929   19.2654   23.0376 C   0  0  0  0  0  0  0  0  0  0  0  0
   20.0621   19.5237   24.0613 H   0  0  0  0  0  0  0  0  0  0  0  0
   18.3615   19.6164   22.6681 C   0  0  0  0  0  0  0  0  0  0  0  0
   17.6789   19.1086   23.3628 H   0  0  0  0  0  0  0  0  0  0  0  0
   18.2043   20.6910   22.8327 H   0  0  0  0  0  0  0  0  0  0  0  0
   17.9573   19.2655   21.2191 C   0  0  0  0  0  0  0  0  0  0  0  0
   18.0504   18.1873   21.0342 H   0  0  0  0  0  0  0  0  0  0  0  0
   16.9138   19.5498   21.0310 H   0  0  0  0  0  0  0  0  0  0  0  0
   18.5868   19.7987   20.4945 H   0  0  0  0  0  0  0  0  0  0  0  0
  1  2  1  0  0  0  0
  1  3  2  0  0  0  0
  1  4  1  0  0  0  0
  4  5  1  0  0  0  0
  4  6  1  0  0  0  0
  4  7  1  0  0  0  0
  7  8  1  0  0  0  0
  7  9  2  0  0  0  0
  9 10  1  0  0  0  0
  9 11  1  0  0  0  0
 11 12  1  0  0  0  0
 11 13  1  0  0  0  0
 11 14  1  0  0  0  0
 14 15  1  0  0  0  0
 14 16  1  0  0  0  0
 14 17  1  0  0  0  0
M  END
> <VConfSearch Rank>
33

> <Conf_Id>
19

> <Delta U+W>
-0.496

> <U+W>
-49.923

> <U>
13.863

> <W>
-63.786

> <W(PB)>
-65.856

> <W(SA)>
2.070

> <Valence>
14.117

> <Coulomb>
-1.228

> <VdW>
0.974

> <VdW6>
-4.885

> <VdW12>
5.859

> <Bond>
0.094

> <Angle>
2.818

> <Pdih>
11.205

> <Idih>
0.000

> <Tether>
0.000

$$$$
VeraChem MOL file


 17 16  0  0  0  0  0  0  0  0999 V2000     
   21.7789   16.8724   21.1226 C   0  0  0  0  0  0  0  0  0  0  0  0
   22.9114   17.2761   21.2996 O   0  5  0  0  0  0  0  0  0  0  0  0
   21.4174   15.7444   21.3945 O   0  0  0  0  0  0  0  0  0  0  0  0
   20.7580   17.8270   20.5173 C   0  0  0  0  0  0  0  0  0  0  0  0
   20.1697   17.2656   19.7822 H   0  0  0  0  0  0  0  0  0  0  0  0
   21.3002   18.6056   19.9673 H   0  0  0  0  0  0  0  0  0  0  0  0
   19.8422   18.4365   21.5615 C   0  0  0  0  0  0  0  0  0  0  0  0
   19.1577   17.7392   22.0437 H   0  0  0  0  0  0  0  0  0  0  0  0
   19.8467   19.7288   21.9023 C   0  0  0  0  0  0  0  0  0  0  0  0
   20.5350   20.4246   21.4236 H   0  0  0  0  0  0  0  0  0  0  0  0
   18.9347   20.3340   22.9460 C   0  0  0  0  0  0  0  0  0  0  0  0
   18.4690   21.2457   22.5479 H   0  0  0  0  0  0  0  0  0  0  0  0
   18.1164   19.6422   23.1892 H   0  0  0  0  0  0  0  0  0  0  0  0
   19.7137   20.6741   24.2315 C   0  0  0  0  0  0  0  0  0  0  0  0
   20.5152   21.3954   24.0245 H   0  0  0  0  0  0  0  0  0  0  0  0
   19.0471   21.1125   24.9855 H   0  0  0  0  0  0  0  0  0  0  0  0
   20.1684   19.7719   24.6617 H   0  0  0  0  0  0  0  0  0  0  0  0
  1  2  1  0  0  0  0
  1  3  2  0  0  0  0
  1  4  1  0  0  0  0
  4  5  1  0  0  0  0
  4  6  1  0  0  0  0
  4  7  1  0  0  0  0
  7  8  1  0  0  0  0
  7  9  2  0  0  0  0
  9 10  1  0  0  0  0
  9 11  1  0  0  0  0
 11 12  1  0  0  0  0
 11 13  1  0  0  0  0
 11 14  1  0  0  0  0
 14 15  1  0  0  0  0
 14 16  1  0  0  0  0
 14 17  1  0  0  0  0
M  END
> <VConfSearch Rank>
34

> <Conf_Id>
7

> <Delta U+W>
-0.041

> <U+W>
-49.468

> <U>
14.121

> <W>
-63.589

> <W(PB)>
-65.660

> <W(SA)>
2.071

> <Valence>
15.230

> <Coulomb>
-1.333

> <VdW>
0.224

> <VdW6>
-4.212

> <VdW12>
4.436

> <Bond>
0.044

> <Angle>
2.230

> <Pdih>
12.956

> <Idih>
0.000

> <Tether>
0.000

$$$$
VeraChem MOL file


 17 16  0  0  0  0  0  0  0  0999 V2000     
   20.8593   21.9362   22.2326 C   0  0  0  0  0  0  0  0  0  0  0  0
   22.0709   21.8434   22.2505 O   0  5  0  0  0  0  0  0  0  0  0  0
   20.2246   22.5954   23.0324 O   0  0  0  0  0  0  0  0  0  0  0  0
   20.0958   21.2085   21.1303 C   0  0  0  0  0  0  0  0  0  0  0  0
   20.7329   21.1859   20.2385 H   0  0  0  0  0  0  0  0  0  0  0  0
   19.2261   21.8205   20.8640 H   0  0  0  0  0  0  0  0  0  0  0  0
   19.6412   19.7957   21.4683 C   0  0  0  0  0  0  0  0  0  0  0  0
   19.0982   19.2947   20.6679 H   0  0  0  0  0  0  0  0  0  0  0  0
   19.8541   19.1563   22.6246 C   0  0  0  0  0  0  0  0  0  0  0  0
   20.3950   19.6341   23.4406 H   0  0  0  0  0  0  0  0  0  0  0  0
   19.3788   17.7492   22.9111 C   0  0  0  0  0  0  0  0  0  0  0  0
   18.8801   17.7187   23.8893 H   0  0  0  0  0  0  0  0  0  0  0  0
   18.6333   17.4355   22.1674 H   0  0  0  0  0  0  0  0  0  0  0  0
   20.5562   16.7548   22.9036 C   0  0  0  0  0  0  0  0  0  0  0  0
   20.2057   15.7359   23.1133 H   0  0  0  0  0  0  0  0  0  0  0  0
   21.0552   16.7491   21.9255 H   0  0  0  0  0  0  0  0  0  0  0  0
   21.3000   17.0231   23.6653 H   0  0  0  0  0  0  0  0  0  0  0  0
  1  2  1  0  0  0  0
  1  3  2  0  0  0  0
  1  4  1  0  0  0  0
  4  5  1  0  0  0  0
  4  6  1  0  0  0  0
  4  7  1  0  0  0  0
  7  8  1  0  0  0  0
  7  9  2  0  0  0  0
  9 10  1  0  0  0  0
  9 11  1  0  0  0  0
 11 12  1  0  0  0  0
 11 13  1  0  0  0  0
 11 14  1  0  0  0  0
 14 15  1  0  0  0  0
 14 16  1  0  0  0  0
 14 17  1  0  0  0  0
M  END
> <VConfSearch Rank>
35

> <Conf_Id>
39

> <Delta U+W>
-0.422

> <U+W>
-49.849

> <U>
14.465

> <W>
-64.314

> <W(PB)>
-66.406

> <W(SA)>
2.093

> <Valence>
14.072

> <Coulomb>
-0.199

> <VdW>
0.592

> <VdW6>
-5.019

> <VdW12>
5.611

> <Bond>
0.085

> <Angle>
2.748

> <Pdih>
11.238

> <Idih>
0.001

> <Tether>
0.000

$$$$
VeraChem MOL file


 17 16  0  0  0  0  0  0  0  0999 V2000     
   16.9633   19.0073   22.3282 C   0  0  0  0  0  0  0  0  0  0  0  0
   16.3636   18.7768   21.2966 O   0  5  0  0  0  0  0  0  0  0  0  0
   16.5596   19.7694   23.1844 O   0  0  0  0  0  0  0  0  0  0  0  0
   18.2903   18.2970   22.5611 C   0  0  0  0  0  0  0  0  0  0  0  0
   18.1793   17.2603   22.2228 H   0  0  0  0  0  0  0  0  0  0  0  0
   18.4767   18.2637   23.6413 H   0  0  0  0  0  0  0  0  0  0  0  0
   19.4413   18.9626   21.8311 C   0  0  0  0  0  0  0  0  0  0  0  0
   19.4054   18.8927   20.7444 H   0  0  0  0  0  0  0  0  0  0  0  0
   20.4462   19.6018   22.4377 C   0  0  0  0  0  0  0  0  0  0  0  0
   20.4800   19.6739   23.5243 H   0  0  0  0  0  0  0  0  0  0  0  0
   21.5911   20.2682   21.7080 C   0  0  0  0  0  0  0  0  0  0  0  0
   21.3554   20.3764   20.6403 H   0  0  0  0  0  0  0  0  0  0  0  0
   21.7416   21.2824   22.1019 H   0  0  0  0  0  0  0  0  0  0  0  0
   22.8931   19.4583   21.8634 C   0  0  0  0  0  0  0  0  0  0  0  0
   22.7746   18.4471   21.4524 H   0  0  0  0  0  0  0  0  0  0  0  0
   23.7203   19.9471   21.3324 H   0  0  0  0  0  0  0  0  0  0  0  0
   23.1738   19.3671   22.9209 H   0  0  0  0  0  0  0  0  0  0  0  0
  1  2  1  0  0  0  0
  1  3  2  0  0  0  0
  1  4  1  0  0  0  0
  4  5  1  0  0  0  0
  4  6  1  0  0  0  0
  4  7  1  0  0  0  0
  7  8  1  0  0  0  0
  7  9  2  0  0  0  0
  9 10  1  0  0  0  0
  9 11  1  0  0  0  0
 11 12  1  0  0  0  0
 11 13  1  0  0  0  0
 11 14  1  0  0  0  0
 14 15  1  0  0  0  0
 14 16  1  0  0  0  0
 14 17  1  0  0  0  0
M  END
> <VConfSearch Rank>
36

> <Conf_Id>
38

> <Delta U+W>
0.000

> <U+W>
-49.427

> <U>
13.666

> <W>
-63.093

> <W(PB)>
-65.225

> <W(SA)>
2.132

> <Valence>
15.226

> <Coulomb>
-1.822

> <VdW>
0.261

> <VdW6>
-4.165

> <VdW12>
4.426

> <Bond>
0.044

> <Angle>
2.229

> <Pdih>
12.953

> <Idih>
0.000

> <Tether>
0.000

$$$$
VeraChem MOL file


 17 16  0  0  0  0  0  0  0  0999 V2000     
   21.3583   18.0903   24.7529 C   0  0  0  0  0  0  0  0  0  0  0  0
   22.5261   17.8234   24.5483 O   0  5  0  0  0  0  0  0  0  0  0  0
   20.6280   17.4173   25.4533 O   0  0  0  0  0  0  0  0  0  0  0  0
   20.7779   19.3387   24.1016 C   0  0  0  0  0  0  0  0  0  0  0  0
   21.6031   20.0275   23.8842 H   0  0  0  0  0  0  0  0  0  0  0  0
   20.1339   19.8324   24.8385 H   0  0  0  0  0  0  0  0  0  0  0  0
   19.9869   19.0245   22.8461 C   0  0  0  0  0  0  0  0  0  0  0  0
   19.0592   18.4757   23.0060 H   0  0  0  0  0  0  0  0  0  0  0  0
   20.3651   19.3742   21.6128 C   0  0  0  0  0  0  0  0  0  0  0  0
   21.2943   19.9201   21.4533 H   0  0  0  0  0  0  0  0  0  0  0  0
   19.5770   19.0565   20.3617 C   0  0  0  0  0  0  0  0  0  0  0  0
   20.2441   18.6262   19.6026 H   0  0  0  0  0  0  0  0  0  0  0  0
   18.8095   18.2991   20.5728 H   0  0  0  0  0  0  0  0  0  0  0  0
   18.9030   20.3216   19.7956 C   0  0  0  0  0  0  0  0  0  0  0  0
   19.6514   21.0829   19.5394 H   0  0  0  0  0  0  0  0  0  0  0  0
   18.3332   20.0850   18.8876 H   0  0  0  0  0  0  0  0  0  0  0  0
   18.2105   20.7557   20.5289 H   0  0  0  0  0  0  0  0  0  0  0  0
  1  2  1  0  0  0  0
  1  3  2  0  0  0  0
  1  4  1  0  0  0  0
  4  5  1  0  0  0  0
  4  6  1  0  0  0  0
  4  7  1  0  0  0  0
  7  8  1  0  0  0  0
  7  9  2  0  0  0  0
  9 10  1  0  0  0  0
  9 11  1  0  0  0  0
 11 12  1  0  0  0  0
 11 13  1  0  0  0  0
 11 14  1  0  0  0  0
 14 15  1  0  0  0  0
 14 16  1  0  0  0  0
 14 17  1  0  0  0  0
M  END
> <VConfSearch Rank>
37

> <Conf_Id>
35

> <Delta U+W>
-0.102

> <U+W>
-49.529

> <U>
13.666

> <W>
-63.195

> <W(PB)>
-65.299

> <W(SA)>
2.103

> <Valence>
15.226

> <Coulomb>
-1.822

> <VdW>
0.261

> <VdW6>
-4.165

> <VdW12>
4.426

> <Bond>
0.044

> <Angle>
2.229

> <Pdih>
12.953

> <Idih>
0.000

> <Tether>
0.000

$$$$
VeraChem MOL file


 17 16  0  0  0  0  0  0  0  0999 V2000     
   18.6754   16.6209   22.6170 C   0  0  0  0  0  0  0  0  0  0  0  0
   17.9627   16.4136   21.6548 O   0  5  0  0  0  0  0  0  0  0  0  0
   19.3484   15.7622   23.1523 O   0  0  0  0  0  0  0  0  0  0  0  0
   18.7189   18.0325   23.1875 C   0  0  0  0  0  0  0  0  0  0  0  0
   19.0244   17.9683   24.2387 H   0  0  0  0  0  0  0  0  0  0  0  0
   17.6976   18.4303   23.1745 H   0  0  0  0  0  0  0  0  0  0  0  0
   19.6435   18.9464   22.4056 C   0  0  0  0  0  0  0  0  0  0  0  0
   19.3068   19.1777   21.3965 H   0  0  0  0  0  0  0  0  0  0  0  0
   20.7905   19.4396   22.8890 C   0  0  0  0  0  0  0  0  0  0  0  0
   21.0971   19.1824   23.9023 H   0  0  0  0  0  0  0  0  0  0  0  0
   21.7628   20.3538   22.1627 C   0  0  0  0  0  0  0  0  0  0  0  0
   21.8924   21.2740   22.7482 H   0  0  0  0  0  0  0  0  0  0  0  0
   22.7519   19.8764   22.1406 H   0  0  0  0  0  0  0  0  0  0  0  0
   21.3531   20.7281   20.7212 C   0  0  0  0  0  0  0  0  0  0  0  0
   20.3912   21.2573   20.7098 H   0  0  0  0  0  0  0  0  0  0  0  0
   22.1044   21.3867   20.2663 H   0  0  0  0  0  0  0  0  0  0  0  0
   21.2656   19.8329   20.0915 H   0  0  0  0  0  0  0  0  0  0  0  0
  1  2  1  0  0  0  0
  1  3  2  0  0  0  0
  1  4  1  0  0  0  0
  4  5  1  0  0  0  0
  4  6  1  0  0  0  0
  4  7  1  0  0  0  0
  7  8  1  0  0  0  0
  7  9  2  0  0  0  0
  9 10  1  0  0  0  0
  9 11  1  0  0  0  0
 11 12  1  0  0  0  0
 11 13  1  0  0  0  0
 11 14  1  0  0  0  0
 14 15  1  0  0  0  0
 14 16  1  0  0  0  0
 14 17  1  0  0  0  0
M  END
> <VConfSearch Rank>
38

> <Conf_Id>
19

> <Delta U+W>
-0.496

> <U+W>
-49.923

> <U>
13.863

> <W>
-63.786

> <W(PB)>
-65.856

> <W(SA)>
2.070

> <Valence>
14.117

> <Coulomb>
-1.228

> <VdW>
0.974

> <VdW6>
-4.885

> <VdW12>
5.859

> <Bond>
0.094

> <Angle>
2.818

> <Pdih>
11.205

> <Idih>
0.000

> <Tether>
0.000

$$$$
VeraChem MOL file


 17 16  0  0  0  0  0  0  0  0999 V2000     
   20.7558   21.7030   21.0715 C   0  0  0  0  0  0  0  0  0  0  0  0
   19.8910   21.8209   20.2259 O   0  5  0  0  0  0  0  0  0  0  0  0
   21.0486   22.5802   21.8600 O   0  0  0  0  0  0  0  0  0  0  0  0
   21.5230   20.3891   21.1419 C   0  0  0  0  0  0  0  0  0  0  0  0
   22.5806   20.6275   21.3032 H   0  0  0  0  0  0  0  0  0  0  0  0
   21.4504   19.8965   20.1648 H   0  0  0  0  0  0  0  0  0  0  0  0
   21.0192   19.4809   22.2474 C   0  0  0  0  0  0  0  0  0  0  0  0
   21.2000   19.8376   23.2609 H   0  0  0  0  0  0  0  0  0  0  0  0
   20.3870   18.3221   22.0380 C   0  0  0  0  0  0  0  0  0  0  0  0
   20.2019   17.9684   21.0243 H   0  0  0  0  0  0  0  0  0  0  0  0
   19.8829   17.4194   23.1418 C   0  0  0  0  0  0  0  0  0  0  0  0
   20.1974   16.3850   22.9477 H   0  0  0  0  0  0  0  0  0  0  0  0
   20.3242   17.7076   24.1058 H   0  0  0  0  0  0  0  0  0  0  0  0
   18.3465   17.4783   23.2465 C   0  0  0  0  0  0  0  0  0  0  0  0
   17.8773   17.1573   22.3072 H   0  0  0  0  0  0  0  0  0  0  0  0
   17.9861   16.8218   24.0491 H   0  0  0  0  0  0  0  0  0  0  0  0
   18.0098   18.5004   23.4649 H   0  0  0  0  0  0  0  0  0  0  0  0
  1  2  1  0  0  0  0
  1  3  2  0  0  0  0
  1  4  1  0  0  0  0
  4  5  1  0  0  0  0
  4  6  1  0  0  0  0
  4  7  1  0  0  0  0
  7  8  1  0  0  0  0
  7  9  2  0  0  0  0
  9 10  1  0  0  0  0
  9 11  1  0  0  0  0
 11 12  1  0  0  0  0
 11 13  1  0  0  0  0
 11 14  1  0  0  0  0
 14 15  1  0  0  0  0
 14 16  1  0  0  0  0
 14 17  1  0  0  0  0
M  END
> <VConfSearch Rank>
39

> <Conf_Id>
7

> <Delta U+W>
-0.041

> <U+W>
-49.468

> <U>
14.121

> <W>
-63.589

> <W(PB)>
-65.660

> <W(SA)>
2.071

> <Valence>
15.230

> <Coulomb>
-1.333

> <VdW>
0.224

> <VdW6>
-4.212

> <VdW12>
4.436

> <Bond>
0.044

> <Angle>
2.230

> <Pdih>
12.956

> <Idih>
0.000

> <Tether>
0.000

$$$$
VeraChem MOL file


 17 16  0  0  0  0  0  0  0  0999 V2000     
   21.8251   20.1009   20.2495 C   0  0  0  0  0  0  0  0  0  0  0  0
   21.0286   20.5495   19.4487 O   0  5  0  0  0  0  0  0  0  0  0  0
   22.6535   19.2562   19.9711 O   0  0  0  0  0  0  0  0  0  0  0  0
   21.8025   20.6474   21.6737 C   0  0  0  0  0  0  0  0  0  0  0  0
   21.4896   21.6970   21.6262 H   0  0  0  0  0  0  0  0  0  0  0  0
   22.8335   20.6568   22.0461 H   0  0  0  0  0  0  0  0  0  0  0  0
   20.9133   19.8938   22.6526 C   0  0  0  0  0  0  0  0  0  0  0  0
   20.9119   20.3004   23.6632 H   0  0  0  0  0  0  0  0  0  0  0  0
   20.1671   18.8192   22.3708 C   0  0  0  0  0  0  0  0  0  0  0  0
   20.1497   18.3934   21.3682 H   0  0  0  0  0  0  0  0  0  0  0  0
   19.2996   18.1047   23.3831 C   0  0  0  0  0  0  0  0  0  0  0  0
   19.4796   17.0226   23.3271 H   0  0  0  0  0  0  0  0  0  0  0  0
   19.5629   18.4155   24.4036 H   0  0  0  0  0  0  0  0  0  0  0  0
   17.8062   18.3907   23.1324 C   0  0  0  0  0  0  0  0  0  0  0  0
   17.1815   17.8687   23.8689 H   0  0  0  0  0  0  0  0  0  0  0  0
   17.5970   19.4658   23.2088 H   0  0  0  0  0  0  0  0  0  0  0  0
   17.5059   18.0544   22.1313 H   0  0  0  0  0  0  0  0  0  0  0  0
  1  2  1  0  0  0  0
  1  3  2  0  0  0  0
  1  4  1  0  0  0  0
  4  5  1  0  0  0  0
  4  6  1  0  0  0  0
  4  7  1  0  0  0  0
  7  8  1  0  0  0  0
  7  9  2  0  0  0  0
  9 10  1  0  0  0  0
  9 11  1  0  0  0  0
 11 12  1  0  0  0  0
 11 13  1  0  0  0  0
 11 14  1  0  0  0  0
 14 15  1  0  0  0  0
 14 16  1  0  0  0  0
 14 17  1  0  0  0  0
M  END
> <VConfSearch Rank>
40

> <Conf_Id>
39

> <Delta U+W>
-0.422

> <U+W>
-49.849

> <U>
14.465

> <W>
-64.314

> <W(PB)>
-66.406

> <W(SA)>
2.093

> <Valence>
14.072

> <Coulomb>
-0.199

> <VdW>
0.592

> <VdW6>
-5.019

> <VdW12>
5.611

> <Bond>
0.085

> <Angle>
2.748

> <Pdih>
11.238

> <Idih>
0.001

> <Tether>
0.000

$$$$
VeraChem MOL file


 17 16  0  0  0  0  0  0  0  0999 V2000     
   21.4422   19.3583   19.2361 C   0  0  0  0  0  0  0  0  0  0  0  0
   21.5687   20.4553   18.7284 O   0  5  0  0  0  0  0  0  0  0  0  0
   21.1161   18.3649   18.6168 O   0  0  0  0  0  0  0  0  0  0  0  0
   21.7129   19.2226   20.7287 C   0  0  0  0  0  0  0  0  0  0  0  0
   22.5963   19.8268   20.9653 H   0  0  0  0  0  0  0  0  0  0  0  0
   21.9738   18.1779   20.9364 H   0  0  0  0  0  0  0  0  0  0  0  0
   20.5356   19.6675   21.5753 C   0  0  0  0  0  0  0  0  0  0  0  0
   20.3170   20.7345   21.5438 H   0  0  0  0  0  0  0  0  0  0  0  0
   19.7914   18.8435   22.3193 C   0  0  0  0  0  0  0  0  0  0  0  0
   20.0087   17.7763   22.3480 H   0  0  0  0  0  0  0  0  0  0  0  0
   18.6155   19.2885   23.1599 C   0  0  0  0  0  0  0  0  0  0  0  0
   18.3063   20.3052   22.8808 H   0  0  0  0  0  0  0  0  0  0  0  0
   17.7545   18.6336   22.9690 H   0  0  0  0  0  0  0  0  0  0  0  0
   18.9636   19.2551   24.6608 C   0  0  0  0  0  0  0  0  0  0  0  0
   19.8068   19.9233   24.8804 H   0  0  0  0  0  0  0  0  0  0  0  0
   18.1064   19.5784   25.2657 H   0  0  0  0  0  0  0  0  0  0  0  0
   19.2399   18.2405   24.9764 H   0  0  0  0  0  0  0  0  0  0  0  0
  1  2  1  0  0  0  0
  1  3  2  0  0  0  0
  1  4  1  0  0  0  0
  4  5  1  0  0  0  0
  4  6  1  0  0  0  0
  4  7  1  0  0  0  0
  7  8  1  0  0  0  0
  7  9  2  0  0  0  0
  9 10  1  0  0  0  0
  9 11  1  0  0  0  0
 11 12  1  0  0  0  0
 11 13  1  0  0  0  0
 11 14  1  0  0  0  0
 14 15  1  0  0  0  0
 14 16  1  0  0  0  0
 14 17  1  0  0  0  0
M  END
> <VConfSearch Rank>
41

> <Conf_Id>
38

> <Delta U+W>
0.000

> <U+W>
-49.427

> <U>
13.666

> <W>
-63.093

> <W(PB)>
-65.225

> <W(SA)>
2.132

> <Valence>
15.226

> <Coulomb>
-1.822

> <VdW>
0.261

> <VdW6>
-4.165

> <VdW12>
4.426

> <Bond>
0.044

> <Angle>
2.229

> <Pdih>
12.953

> <Idih>
0.000

> <Tether>
0.000

$$$$
VeraChem MOL file


 17 16  0  0  0  0  0  0  0  0999 V2000     
   16.9612   19.0863   21.6364 C   0  0  0  0  0  0  0  0  0  0  0  0
   16.3928   19.1780   22.7066 O   0  5  0  0  0  0  0  0  0  0  0  0
   16.5886   18.3578   20.7378 O   0  0  0  0  0  0  0  0  0  0  0  0
   18.2055   19.9334   21.4046 C   0  0  0  0  0  0  0  0  0  0  0  0
   18.1621   20.7981   22.0777 H   0  0  0  0  0  0  0  0  0  0  0  0
   18.1603   20.3217   20.3806 H   0  0  0  0  0  0  0  0  0  0  0  0
   19.4881   19.1497   21.6083 C   0  0  0  0  0  0  0  0  0  0  0  0
   19.6793   18.3709   20.8707 H   0  0  0  0  0  0  0  0  0  0  0  0
   20.3485   19.3640   22.6083 C   0  0  0  0  0  0  0  0  0  0  0  0
   20.1550   20.1408   23.3474 H   0  0  0  0  0  0  0  0  0  0  0  0
   21.6249   18.5789   22.8121 C   0  0  0  0  0  0  0  0  0  0  0  0
   21.6964   18.2527   23.8586 H   0  0  0  0  0  0  0  0  0  0  0  0
   21.6182   17.6680   22.1977 H   0  0  0  0  0  0  0  0  0  0  0  0
   22.8603   19.4273   22.4530 C   0  0  0  0  0  0  0  0  0  0  0  0
   22.9133   20.3271   23.0798 H   0  0  0  0  0  0  0  0  0  0  0  0
   23.7834   18.8525   22.6035 H   0  0  0  0  0  0  0  0  0  0  0  0
   22.8237   19.7440   21.4023 H   0  0  0  0  0  0  0  0  0  0  0  0
  1  2  1  0  0  0  0
  1  3  2  0  0  0  0
  1  4  1  0  0  0  0
  4  5  1  0  0  0  0
  4  6  1  0  0  0  0
  4  7  1  0  0  0  0
  7  8  1  0  0  0  0
  7  9  2  0  0  0  0
  9 10  1  0  0  0  0
  9 11  1  0  0  0  0
 11 12  1  0  0  0  0
 11 13  1  0  0  0  0
 11 14  1  0  0  0  0
 14 15  1  0  0  0  0
 14 16  1  0  0  0  0
 14 17  1  0  0  0  0
M  END
> <VConfSearch Rank>
42

> <Conf_Id>
35

> <Delta U+W>
-0.102

> <U+W>
-49.529

> <U>
13.666

> <W>
-63.195

> <W(PB)>
-65.299

> <W(SA)>
2.103

> <Valence>
15.226

> <Coulomb>
-1.822

> <VdW>
0.261

> <VdW6>
-4.165

> <VdW12>
4.426

> <Bond>
0.044

> <Angle>
2.229

> <Pdih>
12.953

> <Idih>
0.000

> <Tether>
0.000

$$$$
VeraChem MOL file


 17 16  0  0  0  0  0  0  0  0999 V2000     
   18.8020   20.8216   20.2746 C   0  0  0  0  0  0  0  0  0  0  0  0
   19.2809   20.6830   19.1663 O   0  5  0  0  0  0  0  0  0  0  0  0
   17.6066   20.8392   20.4927 O   0  0  0  0  0  0  0  0  0  0  0  0
   19.7534   20.9917   21.4517 C   0  0  0  0  0  0  0  0  0  0  0  0
   19.2183   21.5168   22.2520 H   0  0  0  0  0  0  0  0  0  0  0  0
   20.5709   21.6469   21.1294 H   0  0  0  0  0  0  0  0  0  0  0  0
   20.3098   19.6691   21.9442 C   0  0  0  0  0  0  0  0  0  0  0  0
   20.9830   19.1719   21.2479 H   0  0  0  0  0  0  0  0  0  0  0  0
   20.0107   19.1287   23.1321 C   0  0  0  0  0  0  0  0  0  0  0  0
   19.3293   19.6535   23.8010 H   0  0  0  0  0  0  0  0  0  0  0  0
   20.5267   17.8111   23.6856 C   0  0  0  0  0  0  0  0  0  0  0  0
   21.0302   17.9992   24.6435 H   0  0  0  0  0  0  0  0  0  0  0  0
   19.6709   17.1652   23.9240 H   0  0  0  0  0  0  0  0  0  0  0  0
   21.4903   17.0446   22.7527 C   0  0  0  0  0  0  0  0  0  0  0  0
   22.3863   17.6409   22.5359 H   0  0  0  0  0  0  0  0  0  0  0  0
   21.8159   16.1072   23.2221 H   0  0  0  0  0  0  0  0  0  0  0  0
   21.0013   16.7926   21.8025 H   0  0  0  0  0  0  0  0  0  0  0  0
  1  2  1  0  0  0  0
  1  3  2  0  0  0  0
  1  4  1  0  0  0  0
  4  5  1  0  0  0  0
  4  6  1  0  0  0  0
  4  7  1  0  0  0  0
  7  8  1  0  0  0  0
  7  9  2  0  0  0  0
  9 10  1  0  0  0  0
  9 11  1  0  0  0  0
 11 12  1  0  0  0  0
 11 13  1  0  0  0  0
 11 14  1  0  0  0  0
 14 15  1  0  0  0  0
 14 16  1  0  0  0  0
 14 17  1  0  0  0  0
M  END
> <VConfSearch Rank>
43

> <Conf_Id>
19

> <Delta U+W>
-0.496

> <U+W>
-49.923

> <U>
13.863

> <W>
-63.786

> <W(PB)>
-65.856

> <W(SA)>
2.070

> <Valence>
14.117

> <Coulomb>
-1.228

> <VdW>
0.974

> <VdW6>
-4.885

> <VdW12>
5.859

> <Bond>
0.094

> <Angle>
2.818

> <Pdih>
11.205

> <Idih>
0.000

> <Tether>
0.000

$$$$
VeraChem MOL file


 17 16  0  0  0  0  0  0  0  0999 V2000     
   18.2901   16.9003   22.8811 C   0  0  0  0  0  0  0  0  0  0  0  0
   17.7761   17.3097   23.9034 O   0  5  0  0  0  0  0  0  0  0  0  0
   17.6612   16.4225   21.9574 O   0  0  0  0  0  0  0  0  0  0  0  0
   19.8057   16.9796   22.7526 C   0  0  0  0  0  0  0  0  0  0  0  0
   20.1527   16.0427   22.3016 H   0  0  0  0  0  0  0  0  0  0  0  0
   20.2335   17.0280   23.7612 H   0  0  0  0  0  0  0  0  0  0  0  0
   20.2565   18.1600   21.9135 C   0  0  0  0  0  0  0  0  0  0  0  0
   19.9991   18.1043   20.8562 H   0  0  0  0  0  0  0  0  0  0  0  0
   20.9170   19.2166   22.3969 C   0  0  0  0  0  0  0  0  0  0  0  0
   21.1696   19.2742   23.4551 H   0  0  0  0  0  0  0  0  0  0  0  0
   21.3631   20.3940   21.5590 C   0  0  0  0  0  0  0  0  0  0  0  0
   22.4160   20.6231   21.7718 H   0  0  0  0  0  0  0  0  0  0  0  0
   21.3035   20.1493   20.4895 H   0  0  0  0  0  0  0  0  0  0  0  0
   20.4985   21.6369   21.8464 C   0  0  0  0  0  0  0  0  0  0  0  0
   20.5699   21.9280   22.9026 H   0  0  0  0  0  0  0  0  0  0  0  0
   20.8261   22.4881   21.2355 H   0  0  0  0  0  0  0  0  0  0  0  0
   19.4431   21.4389   21.6171 H   0  0  0  0  0  0  0  0  0  0  0  0
  1  2  1  0  0  0  0
  1  3  2  0  0  0  0
  1  4  1  0  0  0  0
  4  5  1  0  0  0  0
  4  6  1  0  0  0  0
  4  7  1  0  0  0  0
  7  8  1  0  0  0  0
  7  9  2  0  0  0  0
  9 10  1  0  0  0  0
  9 11  1  0  0  0  0
 11 12  1  0  0  0  0
 11 13  1  0  0  0  0
 11 14  1  0  0  0  0
 14 15  1  0  0  0  0
 14 16  1  0  0  0  0
 14 17  1  0  0  0  0
M  END
> <VConfSearch Rank>
44

> <Conf_Id>
7

> <Delta U+W>
-0.041

> <U+W>
-49.468

> <U>
14.121

> <W>
-63.589

> <W(PB)>
-65.660

> <W(SA)>
2.071

> <Valence>
15.230

> <Coulomb>
-1.333

> <VdW>
0.224

> <VdW6>
-4.212

> <VdW12>
4.436

> <Bond>
0.044

> <Angle>
2.230

> <Pdih>
12.956

> <Idih>
0.000

> <Tether>
0.000

$$$$
VeraChem MOL file


 17 16  0  0  0  0  0  0  0  0999 V2000     
   20.5620   20.7738   19.9887 C   0  0  0  0  0  0  0  0  0  0  0  0
   19.6274   20.4185   19.2979 O   0  5  0  0  0  0  0  0  0  0  0  0
   21.7207   20.7308   19.6243 O   0  0  0  0  0  0  0  0  0  0  0  0
   20.2627   21.3297   21.3776 C   0  0  0  0  0  0  0  0  0  0  0  0
   19.2908   21.8349   21.3353 H   0  0  0  0  0  0  0  0  0  0  0  0
   21.0000   22.1122   21.5920 H   0  0  0  0  0  0  0  0  0  0  0  0
   20.2585   20.3092   22.5069 C   0  0  0  0  0  0  0  0  0  0  0  0
   20.0429   20.7272   23.4895 H   0  0  0  0  0  0  0  0  0  0  0  0
   20.4882   18.9967   22.3821 C   0  0  0  0  0  0  0  0  0  0  0  0
   20.7052   18.5533   21.4110 H   0  0  0  0  0  0  0  0  0  0  0  0
   20.4736   18.0233   23.5397 C   0  0  0  0  0  0  0  0  0  0  0  0
   21.3688   17.3880   23.5007 H   0  0  0  0  0  0  0  0  0  0  0  0
   20.5111   18.5620   24.4965 H   0  0  0  0  0  0  0  0  0  0  0  0
   19.2131   17.1375   23.5023 C   0  0  0  0  0  0  0  0  0  0  0  0
   19.2085   16.4323   24.3436 H   0  0  0  0  0  0  0  0  0  0  0  0
   18.3042   17.7502   23.5661 H   0  0  0  0  0  0  0  0  0  0  0  0
   19.1697   16.5575   22.5711 H   0  0  0  0  0  0  0  0  0  0  0  0
  1  2  1  0  0  0  0
  1  3  2  0  0  0  0
  1  4  1  0  0  0  0
  4  5  1  0  0  0  0
  4  6  1  0  0  0  0
  4  7  1  0  0  0  0
  7  8  1  0  0  0  0
  7  9  2  0  0  0  0
  9 10  1  0  0  0  0
  9 11  1  0  0  0  0
 11 12  1  0  0  0  0
 11 13  1  0  0  0  0
 11 14  1  0  0  0  0
 14 15  1  0  0  0  0
 14 16  1  0  0  0  0
 14 17  1  0  0  0  0
M  END
> <VConfSearch Rank>
45

> <Conf_Id>
39

> <Delta U+W>
-0.422

> <U+W>
-49.849

> <U>
14.465

> <W>
-64.314

> <W(PB)>
-66.406

> <W(SA)>
2.093

> <Valence>
14.072

> <Coulomb>
-0.199

> <VdW>
0.592

> <VdW6>
-5.019

> <VdW12>
5.611

> <Bond>
0.085

> <Angle>
2.748

> <Pdih>
11.238

> <Idih>
0.001

> <Tether>
0.000

$$$$
VeraChem MOL file


 17 16  0  0  0  0  0  0  0  0999 V2000     
   20.3127   16.1165   22.1944 C   0  0  0  0  0  0  0  0  0  0  0  0
   20.2207   15.5972   23.2893 O   0  5  0  0  0  0  0  0  0  0  0  0
   21.0893   15.7440   21.3371 O   0  0  0  0  0  0  0  0  0  0  0  0
   19.4003   17.2947   21.8797 C   0  0  0  0  0  0  0  0  0  0  0  0
   18.4081   17.0680   22.2865 H   0  0  0  0  0  0  0  0  0  0  0  0
   19.2923   17.3637   20.7905 H   0  0  0  0  0  0  0  0  0  0  0  0
   19.9150   18.5988   22.4586 C   0  0  0  0  0  0  0  0  0  0  0  0
   19.8985   18.6634   23.5462 H   0  0  0  0  0  0  0  0  0  0  0  0
   20.3677   19.6197   21.7244 C   0  0  0  0  0  0  0  0  0  0  0  0
   20.3867   19.5532   20.6371 H   0  0  0  0  0  0  0  0  0  0  0  0
   20.8841   20.9178   22.3036 C   0  0  0  0  0  0  0  0  0  0  0  0
   21.0730   20.8100   23.3806 H   0  0  0  0  0  0  0  0  0  0  0  0
   21.8459   21.1744   21.8390 H   0  0  0  0  0  0  0  0  0  0  0  0
   19.8806   22.0647   22.0741 C   0  0  0  0  0  0  0  0  0  0  0  0
   18.9177   21.8417   22.5524 H   0  0  0  0  0  0  0  0  0  0  0  0
   20.2610   23.0041   22.4959 H   0  0  0  0  0  0  0  0  0  0  0  0
   19.7020   22.2203   21.0020 H   0  0  0  0  0  0  0  0  0  0  0  0
  1  2  1  0  0  0  0
  1  3  2  0  0  0  0
  1  4  1  0  0  0  0
  4  5  1  0  0  0  0
  4  6  1  0  0  0  0
  4  7  1  0  0  0  0
  7  8  1  0  0  0  0
  7  9  2  0  0  0  0
  9 10  1  0  0  0  0
  9 11  1  0  0  0  0
 11 12  1  0  0  0  0
 11 13  1  0  0  0  0
 11 14  1  0  0  0  0
 14 15  1  0  0  0  0
 14 16  1  0  0  0  0
 14 17  1  0  0  0  0
M  END
> <VConfSearch Rank>
46

> <Conf_Id>
38

> <Delta U+W>
0.000

> <U+W>
-49.427

> <U>
13.666

> <W>
-63.093

> <W(PB)>
-65.225

> <W(SA)>
2.132

> <Valence>
15.226

> <Coulomb>
-1.822

> <VdW>
0.261

> <VdW6>
-4.165

> <VdW12>
4.426

> <Bond>
0.044

> <Angle>
2.229

> <Pdih>
12.953

> <Idih>
0.000

> <Tether>
0.000

$$$$
VeraChem MOL file


 17 16  0  0  0  0  0  0  0  0999 V2000     
   20.1221   21.6077   19.9744 C   0  0  0  0  0  0  0  0  0  0  0  0
   21.0903   21.4731   19.2524 O   0  5  0  0  0  0  0  0  0  0  0  0
   19.7065   22.6873   20.3468 O   0  0  0  0  0  0  0  0  0  0  0  0
   19.3846   20.3570   20.4343 C   0  0  0  0  0  0  0  0  0  0  0  0
   19.5879   19.5548   19.7147 H   0  0  0  0  0  0  0  0  0  0  0  0
   18.3095   20.5655   20.3867 H   0  0  0  0  0  0  0  0  0  0  0  0
   19.7721   19.9379   21.8396 C   0  0  0  0  0  0  0  0  0  0  0  0
   19.4553   20.6163   22.6312 H   0  0  0  0  0  0  0  0  0  0  0  0
   20.4549   18.8265   22.1305 C   0  0  0  0  0  0  0  0  0  0  0  0
   20.7741   18.1502   21.3382 H   0  0  0  0  0  0  0  0  0  0  0  0
   20.8439   18.4122   23.5321 C   0  0  0  0  0  0  0  0  0  0  0  0
   21.9072   18.1377   23.5559 H   0  0  0  0  0  0  0  0  0  0  0  0
   20.7193   19.2519   24.2297 H   0  0  0  0  0  0  0  0  0  0  0  0
   19.9946   17.2195   24.0129 C   0  0  0  0  0  0  0  0  0  0  0  0
   20.1297   16.3516   23.3542 H   0  0  0  0  0  0  0  0  0  0  0  0
   20.2818   16.9230   25.0301 H   0  0  0  0  0  0  0  0  0  0  0  0
   18.9278   17.4791   24.0221 H   0  0  0  0  0  0  0  0  0  0  0  0
  1  2  1  0  0  0  0
  1  3  2  0  0  0  0
  1  4  1  0  0  0  0
  4  5  1  0  0  0  0
  4  6  1  0  0  0  0
  4  7  1  0  0  0  0
  7  8  1  0  0  0  0
  7  9  2  0  0  0  0
  9 10  1  0  0  0  0
  9 11  1  0  0  0  0
 11 12  1  0  0  0  0
 11 13  1  0  0  0  0
 11 14  1  0  0  0  0
 14 15  1  0  0  0  0
 14 16  1  0  0  0  0
 14 17  1  0  0  0  0
M  END
> <VConfSearch Rank>
47

> <Conf_Id>
35

> <Delta U+W>
-0.102

> <U+W>
-49.529

> <U>
13.666

> <W>
-63.195

> <W(PB)>
-65.299

> <W(SA)>
2.103

> <Valence>
15.226

> <Coulomb>
-1.822

> <VdW>
0.261

> <VdW6>
-4.165

> <VdW12>
4.426

> <Bond>
0.044

> <Angle>
2.229

> <Pdih>
12.953

> <Idih>
0.000

> <Tether>
0.000

$$$$
VeraChem MOL file


 17 16  0  0  0  0  0  0  0  0999 V2000     
   22.6793   20.6785   22.6235 C   0  0  0  0  0  0  0  0  0  0  0  0
   22.9905   20.6538   23.7980 O   0  5  0  0  0  0  0  0  0  0  0  0
   23.4705   20.5178   21.7151 O   0  0  0  0  0  0  0  0  0  0  0  0
   21.2195   20.9346   22.2728 C   0  0  0  0  0  0  0  0  0  0  0  0
   21.1778   21.3460   21.2571 H   0  0  0  0  0  0  0  0  0  0  0  0
   20.8441   21.7115   22.9488 H   0  0  0  0  0  0  0  0  0  0  0  0
   20.3665   19.6856   22.3906 C   0  0  0  0  0  0  0  0  0  0  0  0
   20.2384   19.3172   23.4069 H   0  0  0  0  0  0  0  0  0  0  0  0
   19.8079   19.0611   21.3462 C   0  0  0  0  0  0  0  0  0  0  0  0
   19.9620   19.4568   20.3429 H   0  0  0  0  0  0  0  0  0  0  0  0
   18.9485   17.8089   21.3911 C   0  0  0  0  0  0  0  0  0  0  0  0
   17.9746   18.0280   20.9330 H   0  0  0  0  0  0  0  0  0  0  0  0
   19.4070   17.0392   20.7556 H   0  0  0  0  0  0  0  0  0  0  0  0
   18.7205   17.2248   22.8027 C   0  0  0  0  0  0  0  0  0  0  0  0
   18.2131   17.9502   23.4521 H   0  0  0  0  0  0  0  0  0  0  0  0
   18.0938   16.3250   22.7503 H   0  0  0  0  0  0  0  0  0  0  0  0
   19.6729   16.9442   23.2715 H   0  0  0  0  0  0  0  0  0  0  0  0
  1  2  1  0  0  0  0
  1  3  2  0  0  0  0
  1  4  1  0  0  0  0
  4  5  1  0  0  0  0
  4  6  1  0  0  0  0
  4  7  1  0  0  0  0
  7  8  1  0  0  0  0
  7  9  2  0  0  0  0
  9 10  1  0  0  0  0
  9 11  1  0  0  0  0
 11 12  1  0  0  0  0
 11 13  1  0  0  0  0
 11 14  1  0  0  0  0
 14 15  1  0  0  0  0
 14 16  1  0  0  0  0
 14 17  1  0  0  0  0
M  END
> <VConfSearch Rank>
48

> <Conf_Id>
19

> <Delta U+W>
-0.496

> <U+W>
-49.923

> <U>
13.863

> <W>
-63.786

> <W(PB)>
-65.856

> <W(SA)>
2.070

> <Valence>
14.117

> <Coulomb>
-1.228

> <VdW>
0.974

> <VdW6>
-4.885

> <VdW12>
5.859

> <Bond>
0.094

> <Angle>
2.818

> <Pdih>
11.205

> <Idih>
0.000

> <Tether>
0.000

$$$$
VeraChem MOL file


 17 16  0  0  0  0  0  0  0  0999 V2000     
   22.8838   20.0547   21.7562 C   0  0  0  0  0  0  0  0  0  0  0  0
   22.9622   20.0466   20.5435 O   0  5  0  0  0  0  0  0  0  0  0  0
   23.2437   20.9878   22.4467 O   0  0  0  0  0  0  0  0  0  0  0  0
   22.3138   18.8252   22.4514 C   0  0  0  0  0  0  0  0  0  0  0  0
   22.9294   18.6255   23.3361 H   0  0  0  0  0  0  0  0  0  0  0  0
   22.4295   17.9664   21.7794 H   0  0  0  0  0  0  0  0  0  0  0  0
   20.8634   19.0072   22.8564 C   0  0  0  0  0  0  0  0  0  0  0  0
   20.6885   19.7425   23.6413 H   0  0  0  0  0  0  0  0  0  0  0  0
   19.8417   18.3404   22.3107 C   0  0  0  0  0  0  0  0  0  0  0  0
   20.0167   17.6090   21.5223 H   0  0  0  0  0  0  0  0  0  0  0  0
   18.3959   18.5255   22.7139 C   0  0  0  0  0  0  0  0  0  0  0  0
   17.9286   17.5453   22.8797 H   0  0  0  0  0  0  0  0  0  0  0  0
   18.3290   19.0718   23.6649 H   0  0  0  0  0  0  0  0  0  0  0  0
   17.6128   19.2914   21.6299 C   0  0  0  0  0  0  0  0  0  0  0  0
   17.6302   18.7476   20.6763 H   0  0  0  0  0  0  0  0  0  0  0  0
   16.5645   19.4232   21.9278 H   0  0  0  0  0  0  0  0  0  0  0  0
   18.0478   20.2858   21.4643 H   0  0  0  0  0  0  0  0  0  0  0  0
  1  2  1  0  0  0  0
  1  3  2  0  0  0  0
  1  4  1  0  0  0  0
  4  5  1  0  0  0  0
  4  6  1  0  0  0  0
  4  7  1  0  0  0  0
  7  8  1  0  0  0  0
  7  9  2  0  0  0  0
  9 10  1  0  0  0  0
  9 11  1  0  0  0  0
 11 12  1  0  0  0  0
 11 13  1  0  0  0  0
 11 14  1  0  0  0  0
 14 15  1  0  0  0  0
 14 16  1  0  0  0  0
 14 17  1  0  0  0  0
M  END
> <VConfSearch Rank>
49

> <Conf_Id>
7

> <Delta U+W>
-0.041

> <U+W>
-49.468

> <U>
14.121

> <W>
-63.589

> <W(PB)>
-65.660

> <W(SA)>
2.071

> <Valence>
15.230

> <Coulomb>
-1.333

> <VdW>
0.224

> <VdW6>
-4.212

> <VdW12>
4.436

> <Bond>
0.044

> <Angle>
2.230

> <Pdih>
12.956

> <Idih>
0.000

> <Tether>
0.000

$$$$
VeraChem MOL file


 17 16  0  0  0  0  0  0  0  0999 V2000     
   19.3900   19.2722   19.6055 C   0  0  0  0  0  0  0  0  0  0  0  0
   19.5132   20.4499   19.3319 O   0  5  0  0  0  0  0  0  0  0  0  0
   18.3688   18.6418   19.4137 O   0  0  0  0  0  0  0  0  0  0  0  0
   20.5906   18.5388   20.1956 C   0  0  0  0  0  0  0  0  0  0  0  0
   21.4986   18.9909   19.7797 H   0  0  0  0  0  0  0  0  0  0  0  0
   20.5699   17.5076   19.8240 H   0  0  0  0  0  0  0  0  0  0  0  0
   20.6743   18.5318   21.7154 C   0  0  0  0  0  0  0  0  0  0  0  0
   21.5384   18.0030   22.1155 H   0  0  0  0  0  0  0  0  0  0  0  0
   19.8027   19.1048   22.5539 C   0  0  0  0  0  0  0  0  0  0  0  0
   18.9309   19.6404   22.1799 H   0  0  0  0  0  0  0  0  0  0  0  0
   19.9314   19.0675   24.0605 C   0  0  0  0  0  0  0  0  0  0  0  0
   18.9712   18.7759   24.5072 H   0  0  0  0  0  0  0  0  0  0  0  0
   20.6644   18.3081   24.3658 H   0  0  0  0  0  0  0  0  0  0  0  0
   20.3593   20.4407   24.6138 C   0  0  0  0  0  0  0  0  0  0  0  0
   20.4497   20.4082   25.7073 H   0  0  0  0  0  0  0  0  0  0  0  0
   21.3307   20.7420   24.2001 H   0  0  0  0  0  0  0  0  0  0  0  0
   19.6233   21.2135   24.3555 H   0  0  0  0  0  0  0  0  0  0  0  0
  1  2  1  0  0  0  0
  1  3  2  0  0  0  0
  1  4  1  0  0  0  0
  4  5  1  0  0  0  0
  4  6  1  0  0  0  0
  4  7  1  0  0  0  0
  7  8  1  0  0  0  0
  7  9  2  0  0  0  0
  9 10  1  0  0  0  0
  9 11  1  0  0  0  0
 11 12  1  0  0  0  0
 11 13  1  0  0  0  0
 11 14  1  0  0  0  0
 14 15  1  0  0  0  0
 14 16  1  0  0  0  0
 14 17  1  0  0  0  0
M  END
> <VConfSearch Rank>
50

> <Conf_Id>
39

> <Delta U+W>
-0.422

> <U+W>
-49.849

> <U>
14.465

> <W>
-64.314

> <W(PB)>
-66.406

> <W(SA)>
2.093

> <Valence>
14.072

> <Coulomb>
-0.199

> <VdW>
0.592

> <VdW6>
-5.019

> <VdW12>
5.611

> <Bond>
0.085

> <Angle>
2.748

> <Pdih>
11.238

> <Idih>
0.001

> <Tether>
0.000

$$$$
VeraChem MOL file


 17 16  0  0  0  0  0  0  0  0999 V2000     
   21.9333   20.3489   19.7531 C   0  0  0  0  0  0  0  0  0  0  0  0
   22.3769   19.5169   18.9863 O   0  5  0  0  0  0  0  0  0  0  0  0
   22.5703   21.3049   20.1493 O   0  0  0  0  0  0  0  0  0  0  0  0
   20.4989   20.1856   20.2382 C   0  0  0  0  0  0  0  0  0  0  0  0
   19.8916   19.8612   19.3853 H   0  0  0  0  0  0  0  0  0  0  0  0
   20.1251   21.1709   20.5419 H   0  0  0  0  0  0  0  0  0  0  0  0
   20.3797   19.1857   21.3726 C   0  0  0  0  0  0  0  0  0  0  0  0
   20.5812   18.1496   21.1023 H   0  0  0  0  0  0  0  0  0  0  0  0
   20.0558   19.5093   22.6282 C   0  0  0  0  0  0  0  0  0  0  0  0
   19.8573   20.5459   22.8984 H   0  0  0  0  0  0  0  0  0  0  0  0
   19.9411   18.5114   23.7588 C   0  0  0  0  0  0  0  0  0  0  0  0
   20.3989   17.5539   23.4743 H   0  0  0  0  0  0  0  0  0  0  0  0
   20.4946   18.8776   24.6341 H   0  0  0  0  0  0  0  0  0  0  0  0
   18.4673   18.2776   24.1438 C   0  0  0  0  0  0  0  0  0  0  0  0
   17.8987   17.8862   23.2899 H   0  0  0  0  0  0  0  0  0  0  0  0
   18.3905   17.5532   24.9650 H   0  0  0  0  0  0  0  0  0  0  0  0
   17.9944   19.2133   24.4697 H   0  0  0  0  0  0  0  0  0  0  0  0
  1  2  1  0  0  0  0
  1  3  2  0  0  0  0
  1  4  1  0  0  0  0
  4  5  1  0  0  0  0
  4  6  1  0  0  0  0
  4  7  1  0  0  0  0
  7  8  1  0  0  0  0
  7  9  2  0  0  0  0
  9 10  1  0  0  0  0
  9 11  1  0  0  0  0
 11 12  1  0  0  0  0
 11 13  1  0  0  0  0
 11 14  1  0  0  0  0
 14 15  1  0  0  0  0
 14 16  1  0  0  0  0
 14 17  1  0  0  0  0
M  END
> <VConfSearch Rank>
51

> <Conf_Id>
38

> <Delta U+W>
0.000

> <U+W>
-49.427

> <U>
13.666

> <W>
-63.093

> <W(PB)>
-65.225

> <W(SA)>
2.132

> <Valence>
15.226

> <Coulomb>
-1.822

> <VdW>
0.261

> <VdW6>
-4.165

> <VdW12>
4.426

> <Bond>
0.044

> <Angle>
2.229

> <Pdih>
12.953

> <Idih>
0.000

> <Tether>
0.000

$$$$
VeraChem MOL file


 17 16  0  0  0  0  0  0  0  0999 V2000     
   22.0166   18.8635   24.5801 C   0  0  0  0  0  0  0  0  0  0  0  0
   22.8595   19.7388   24.5739 O   0  5  0  0  0  0  0  0  0  0  0  0
   22.2418   17.7160   24.9110 O   0  0  0  0  0  0  0  0  0  0  0  0
   20.5988   19.2231   24.1557 C   0  0  0  0  0  0  0  0  0  0  0  0
   20.4589   20.3006   24.3046 H   0  0  0  0  0  0  0  0  0  0  0  0
   19.9062   18.7130   24.8350 H   0  0  0  0  0  0  0  0  0  0  0  0
   20.3048   18.8301   22.7205 C   0  0  0  0  0  0  0  0  0  0  0  0
   20.2666   17.7579   22.5304 H   0  0  0  0  0  0  0  0  0  0  0  0
   20.1035   19.7031   21.7288 C   0  0  0  0  0  0  0  0  0  0  0  0
   20.1450   20.7752   21.9188 H   0  0  0  0  0  0  0  0  0  0  0  0
   19.8143   19.3094   20.2975 C   0  0  0  0  0  0  0  0  0  0  0  0
   20.4649   19.8768   19.6182 H   0  0  0  0  0  0  0  0  0  0  0  0
   20.0422   18.2465   20.1377 H   0  0  0  0  0  0  0  0  0  0  0  0
   18.3395   19.5745   19.9372 C   0  0  0  0  0  0  0  0  0  0  0  0
   18.0936   20.6384   20.0513 H   0  0  0  0  0  0  0  0  0  0  0  0
   18.1360   19.2875   18.8974 H   0  0  0  0  0  0  0  0  0  0  0  0
   17.6694   18.9969   20.5875 H   0  0  0  0  0  0  0  0  0  0  0  0
  1  2  1  0  0  0  0
  1  3  2  0  0  0  0
  1  4  1  0  0  0  0
  4  5  1  0  0  0  0
  4  6  1  0  0  0  0
  4  7  1  0  0  0  0
  7  8  1  0  0  0  0
  7  9  2  0  0  0  0
  9 10  1  0  0  0  0
  9 11  1  0  0  0  0
 11 12  1  0  0  0  0
 11 13  1  0  0  0  0
 11 14  1  0  0  0  0
 14 15  1  0  0  0  0
 14 16  1  0  0  0  0
 14 17  1  0  0  0  0
M  END
> <VConfSearch Rank>
52

> <Conf_Id>
35

> <Delta U+W>
-0.102

> <U+W>
-49.529

> <U>
13.666

> <W>
-63.195

> <W(PB)>
-65.299

> <W(SA)>
2.103

> <Valence>
15.226

> <Coulomb>
-1.822

> <VdW>
0.261

> <VdW6>
-4.165

> <VdW12>
4.426

> <Bond>
0.044

> <Angle>
2.229

> <Pdih>
12.953

> <Idih>
0.000

> <Tether>
0.000

$$$$
VeraChem MOL file


 17 16  0  0  0  0  0  0  0  0999 V2000     
   21.8907   18.9693   19.7730 C   0  0  0  0  0  0  0  0  0  0  0  0
   23.0662   18.9378   20.0799 O   0  5  0  0  0  0  0  0  0  0  0  0
   21.3956   18.2431   18.9338 O   0  0  0  0  0  0  0  0  0  0  0  0
   20.9929   19.9813   20.4726 C   0  0  0  0  0  0  0  0  0  0  0  0
   20.1336   20.1847   19.8222 H   0  0  0  0  0  0  0  0  0  0  0  0
   21.5536   20.9186   20.5650 H   0  0  0  0  0  0  0  0  0  0  0  0
   20.5410   19.5080   21.8412 C   0  0  0  0  0  0  0  0  0  0  0  0
   21.3349   19.4389   22.5829 H   0  0  0  0  0  0  0  0  0  0  0  0
   19.2759   19.1881   22.1410 C   0  0  0  0  0  0  0  0  0  0  0  0
   18.5090   19.2655   21.3710 H   0  0  0  0  0  0  0  0  0  0  0  0
   18.7558   18.7052   23.4845 C   0  0  0  0  0  0  0  0  0  0  0  0
   17.9646   19.3861   23.8263 H   0  0  0  0  0  0  0  0  0  0  0  0
   18.2679   17.7306   23.3483 H   0  0  0  0  0  0  0  0  0  0  0  0
   19.8259   18.5812   24.5916 C   0  0  0  0  0  0  0  0  0  0  0  0
   20.2985   19.5515   24.7932 H   0  0  0  0  0  0  0  0  0  0  0  0
   19.3728   18.2273   25.5267 H   0  0  0  0  0  0  0  0  0  0  0  0
   20.6079   17.8658   24.3051 H   0  0  0  0  0  0  0  0  0  0  0  0
  1  2  1  0  0  0  0
  1  3  2  0  0  0  0
  1  4  1  0  0  0  0
  4  5  1  0  0  0  0
  4  6  1  0  0  0  0
  4  7  1  0  0  0  0
  7  8  1  0  0  0  0
  7  9  2  0  0  0  0
  9 10  1  0  0  0  0
  9 11  1  0  0  0  0
 11 12  1  0  0  0  0
 11 13  1  0  0  0  0
 11 14  1  0  0  0  0
 14 15  1  0  0  0  0
 14 16  1  0  0  0  0
 14 17  1  0  0  0  0
M  END
> <VConfSearch Rank>
53

> <Conf_Id>
19

> <Delta U+W>
-0.496

> <U+W>
-49.923

> <U>
13.863

> <W>
-63.786

> <W(PB)>
-65.856

> <W(SA)>
2.070

> <Valence>
14.117

> <Coulomb>
-1.228

> <VdW>
0.974

> <VdW6>
-4.885

> <VdW12>
5.859

> <Bond>
0.094

> <Angle>
2.818

> <Pdih>
11.205

> <Idih>
0.000

> <Tether>
0.000

$$$$
VeraChem MOL file


 17 16  0  0  0  0  0  0  0  0999 V2000     
   20.0291   16.1524   21.8608 C   0  0  0  0  0  0  0  0  0  0  0  0
   21.0451   15.7805   22.4142 O   0  5  0  0  0  0  0  0  0  0  0  0
   18.9432   15.6338   22.0302 O   0  0  0  0  0  0  0  0  0  0  0  0
   20.1213   17.3254   20.8936 C   0  0  0  0  0  0  0  0  0  0  0  0
   19.5035   17.0880   20.0199 H   0  0  0  0  0  0  0  0  0  0  0  0
   21.1577   17.4005   20.5430 H   0  0  0  0  0  0  0  0  0  0  0  0
   19.6625   18.6298   21.5172 C   0  0  0  0  0  0  0  0  0  0  0  0
   18.5996   18.6852   21.7504 H   0  0  0  0  0  0  0  0  0  0  0  0
   20.4711   19.6595   21.7857 C   0  0  0  0  0  0  0  0  0  0  0  0
   21.5348   19.6016   21.5569 H   0  0  0  0  0  0  0  0  0  0  0  0
   20.0120   20.9582   22.4101 C   0  0  0  0  0  0  0  0  0  0  0  0
   20.4090   21.8065   21.8363 H   0  0  0  0  0  0  0  0  0  0  0  0
   18.9168   21.0368   22.3724 H   0  0  0  0  0  0  0  0  0  0  0  0
   20.4806   21.0641   23.8745 C   0  0  0  0  0  0  0  0  0  0  0  0
   21.5760   21.0273   23.9388 H   0  0  0  0  0  0  0  0  0  0  0  0
   20.1444   22.0080   24.3228 H   0  0  0  0  0  0  0  0  0  0  0  0
   20.0750   20.2384   24.4740 H   0  0  0  0  0  0  0  0  0  0  0  0
  1  2  1  0  0  0  0
  1  3  2  0  0  0  0
  1  4  1  0  0  0  0
  4  5  1  0  0  0  0
  4  6  1  0  0  0  0
  4  7  1  0  0  0  0
  7  8  1  0  0  0  0
  7  9  2  0  0  0  0
  9 10  1  0  0  0  0
  9 11  1  0  0  0  0
 11 12  1  0  0  0  0
 11 13  1  0  0  0  0
 11 14  1  0  0  0  0
 14 15  1  0  0  0  0
 14 16  1  0  0  0  0
 14 17  1  0  0  0  0
M  END
> <VConfSearch Rank>
54

> <Conf_Id>
7

> <Delta U+W>
-0.041

> <U+W>
-49.468

> <U>
14.121

> <W>
-63.589

> <W(PB)>
-65.660

> <W(SA)>
2.071

> <Valence>
15.230

> <Coulomb>
-1.333

> <VdW>
0.224

> <VdW6>
-4.212

> <VdW12>
4.436

> <Bond>
0.044

> <Angle>
2.230

> <Pdih>
12.956

> <Idih>
0.000

> <Tether>
0.000

$$$$
VeraChem MOL file


 17 16  0  0  0  0  0  0  0  0999 V2000     
   19.5777   21.3357   20.5151 C   0  0  0  0  0  0  0  0  0  0  0  0
   20.3795   22.1714   20.8835 O   0  5  0  0  0  0  0  0  0  0  0  0
   18.3849   21.5471   20.4171 O   0  0  0  0  0  0  0  0  0  0  0  0
   20.1000   19.9554   20.1281 C   0  0  0  0  0  0  0  0  0  0  0  0
   21.1060   20.0813   19.7110 H   0  0  0  0  0  0  0  0  0  0  0  0
   19.4783   19.5793   19.3073 H   0  0  0  0  0  0  0  0  0  0  0  0
   20.1382   18.9287   21.2511 C   0  0  0  0  0  0  0  0  0  0  0  0
   20.5140   17.9506   20.9533 H   0  0  0  0  0  0  0  0  0  0  0  0
   19.7621   19.1351   22.5188 C   0  0  0  0  0  0  0  0  0  0  0  0
   19.3837   20.1038   22.8430 H   0  0  0  0  0  0  0  0  0  0  0  0
   19.8187   18.0777   23.5989 C   0  0  0  0  0  0  0  0  0  0  0  0
   18.8653   18.0535   24.1439 H   0  0  0  0  0  0  0  0  0  0  0  0
   19.9539   17.0814   23.1560 H   0  0  0  0  0  0  0  0  0  0  0  0
   20.9681   18.3566   24.5870 C   0  0  0  0  0  0  0  0  0  0  0  0
   21.0036   17.5872   25.3692 H   0  0  0  0  0  0  0  0  0  0  0  0
   21.9358   18.3602   24.0681 H   0  0  0  0  0  0  0  0  0  0  0  0
   20.8377   19.3320   25.0739 H   0  0  0  0  0  0  0  0  0  0  0  0
  1  2  1  0  0  0  0
  1  3  2  0  0  0  0
  1  4  1  0  0  0  0
  4  5  1  0  0  0  0
  4  6  1  0  0  0  0
  4  7  1  0  0  0  0
  7  8  1  0  0  0  0
  7  9  2  0  0  0  0
  9 10  1  0  0  0  0
  9 11  1  0  0  0  0
 11 12  1  0  0  0  0
 11 13  1  0  0  0  0
 11 14  1  0  0  0  0
 14 15  1  0  0  0  0
 14 16  1  0  0  0  0
 14 17  1  0  0  0  0
M  END
> <VConfSearch Rank>
55

> <Conf_Id>
39

> <Delta U+W>
-0.422

> <U+W>
-49.849

> <U>
14.465

> <W>
-64.314

> <W(PB)>
-66.406

> <W(SA)>
2.093

> <Valence>
14.072

> <Coulomb>
-0.199

> <VdW>
0.592

> <VdW6>
-5.019

> <VdW12>
5.611

> <Bond>
0.085

> <Angle>
2.748

> <Pdih>
11.238

> <Idih>
0.001

> <Tether>
0.000

$$$$
VeraChem MOL file


 17 16  0  0  0  0  0  0  0  0999 V2000     
   22.3862   18.5874   24.1937 C   0  0  0  0  0  0  0  0  0  0  0  0
   22.1011   17.7897   25.0652 O   0  5  0  0  0  0  0  0  0  0  0  0
   23.0617   19.5792   24.3854 O   0  0  0  0  0  0  0  0  0  0  0  0
   21.8723   18.3249   22.7842 C   0  0  0  0  0  0  0  0  0  0  0  0
   21.9726   17.2516   22.5856 H   0  0  0  0  0  0  0  0  0  0  0  0
   22.5298   18.8448   22.0770 H   0  0  0  0  0  0  0  0  0  0  0  0
   20.4293   18.7557   22.6024 C   0  0  0  0  0  0  0  0  0  0  0  0
   19.6960   18.1707   23.1568 H   0  0  0  0  0  0  0  0  0  0  0  0
   20.0414   19.7749   21.8298 C   0  0  0  0  0  0  0  0  0  0  0  0
   20.7754   20.3612   21.2781 H   0  0  0  0  0  0  0  0  0  0  0  0
   18.6024   20.2053   21.6527 C   0  0  0  0  0  0  0  0  0  0  0  0
   17.9665   19.7470   22.4227 H   0  0  0  0  0  0  0  0  0  0  0  0
   18.5220   21.2929   21.7839 H   0  0  0  0  0  0  0  0  0  0  0  0
   18.0754   19.8157   20.2579 C   0  0  0  0  0  0  0  0  0  0  0  0
   18.1221   18.7283   20.1133 H   0  0  0  0  0  0  0  0  0  0  0  0
   17.0311   20.1311   20.1351 H   0  0  0  0  0  0  0  0  0  0  0  0
   18.6703   20.2917   19.4674 H   0  0  0  0  0  0  0  0  0  0  0  0
  1  2  1  0  0  0  0
  1  3  2  0  0  0  0
  1  4  1  0  0  0  0
  4  5  1  0  0  0  0
  4  6  1  0  0  0  0
  4  7  1  0  0  0  0
  7  8  1  0  0  0  0
  7  9  2  0  0  0  0
  9 10  1  0  0  0  0
  9 11  1  0  0  0  0
 11 12  1  0  0  0  0
 11 13  1  0  0  0  0
 11 14  1  0  0  0  0
 14 15  1  0  0  0  0
 14 16  1  0  0  0  0
 14 17  1  0  0  0  0
M  END
> <VConfSearch Rank>
56

> <Conf_Id>
38

> <Delta U+W>
0.000

> <U+W>
-49.427

> <U>
13.666

> <W>
-63.093

> <W(PB)>
-65.225

> <W(SA)>
2.132

> <Valence>
15.226

> <Coulomb>
-1.822

> <VdW>
0.261

> <VdW6>
-4.165

> <VdW12>
4.426

> <Bond>
0.044

> <Angle>
2.229

> <Pdih>
12.953

> <Idih>
0.000

> <Tether>
0.000

$$$$
VeraChem MOL file


 17 16  0  0  0  0  0  0  0  0999 V2000     
   22.0586   21.6610   22.7356 C   0  0  0  0  0  0  0  0  0  0  0  0
   23.1768   21.3627   22.3650 O   0  5  0  0  0  0  0  0  0  0  0  0
   21.8330   22.2986   23.7453 O   0  0  0  0  0  0  0  0  0  0  0  0
   20.8742   21.2174   21.8870 C   0  0  0  0  0  0  0  0  0  0  0  0
   21.2282   21.0549   20.8619 H   0  0  0  0  0  0  0  0  0  0  0  0
   20.1584   22.0468   21.8513 H   0  0  0  0  0  0  0  0  0  0  0  0
   20.2019   19.9725   22.4338 C   0  0  0  0  0  0  0  0  0  0  0  0
   19.6844   20.1025   23.3837 H   0  0  0  0  0  0  0  0  0  0  0  0
   20.2205   18.7812   21.8280 C   0  0  0  0  0  0  0  0  0  0  0  0
   20.7409   18.6512   20.8797 H   0  0  0  0  0  0  0  0  0  0  0  0
   19.5529   17.5400   22.3766 C   0  0  0  0  0  0  0  0  0  0  0  0
   20.2553   16.6962   22.3441 H   0  0  0  0  0  0  0  0  0  0  0  0
   19.2816   17.6838   23.4316 H   0  0  0  0  0  0  0  0  0  0  0  0
   18.2889   17.1878   21.5684 C   0  0  0  0  0  0  0  0  0  0  0  0
   18.5368   17.0008   20.5153 H   0  0  0  0  0  0  0  0  0  0  0  0
   17.8093   16.2860   21.9706 H   0  0  0  0  0  0  0  0  0  0  0  0
   17.5598   18.0078   21.6078 H   0  0  0  0  0  0  0  0  0  0  0  0
  1  2  1  0  0  0  0
  1  3  2  0  0  0  0
  1  4  1  0  0  0  0
  4  5  1  0  0  0  0
  4  6  1  0  0  0  0
  4  7  1  0  0  0  0
  7  8  1  0  0  0  0
  7  9  2  0  0  0  0
  9 10  1  0  0  0  0
  9 11  1  0  0  0  0
 11 12  1  0  0  0  0
 11 13  1  0  0  0  0
 11 14  1  0  0  0  0
 14 15  1  0  0  0  0
 14 16  1  0  0  0  0
 14 17  1  0  0  0  0
M  END
> <VConfSearch Rank>
57

> <Conf_Id>
35

> <Delta U+W>
-0.102

> <U+W>
-49.529

> <U>
13.666

> <W>
-63.195

> <W(PB)>
-65.299

> <W(SA)>
2.103

> <Valence>
15.226

> <Coulomb>
-1.822

> <VdW>
0.261

> <VdW6>
-4.165

> <VdW12>
4.426

> <Bond>
0.044

> <Angle>
2.229

> <Pdih>
12.953

> <Idih>
0.000

> <Tether>
0.000

$$$$
VeraChem MOL file


 17 16  0  0  0  0  0  0  0  0999 V2000     
   21.9520   16.7228   21.9402 C   0  0  0  0  0  0  0  0  0  0  0  0
   21.4383   15.7741   22.4999 O   0  5  0  0  0  0  0  0  0  0  0  0
   22.4540   16.6600   20.8353 O   0  0  0  0  0  0  0  0  0  0  0  0
   21.9752   18.0599   22.6691 C   0  0  0  0  0  0  0  0  0  0  0  0
   22.8028   18.6559   22.2659 H   0  0  0  0  0  0  0  0  0  0  0  0
   22.2056   17.8630   23.7225 H   0  0  0  0  0  0  0  0  0  0  0  0
   20.6594   18.8062   22.5547 C   0  0  0  0  0  0  0  0  0  0  0  0
   19.8255   18.3394   23.0761 H   0  0  0  0  0  0  0  0  0  0  0  0
   20.5042   19.9463   21.8700 C   0  0  0  0  0  0  0  0  0  0  0  0
   21.3611   20.3817   21.3570 H   0  0  0  0  0  0  0  0  0  0  0  0
   19.2195   20.7419   21.7111 C   0  0  0  0  0  0  0  0  0  0  0  0
   19.3843   21.7631   22.0806 H   0  0  0  0  0  0  0  0  0  0  0  0
   18.9961   20.8479   20.6409 H   0  0  0  0  0  0  0  0  0  0  0  0
   17.9881   20.1413   22.4246 C   0  0  0  0  0  0  0  0  0  0  0  0
   18.1556   20.0708   23.5074 H   0  0  0  0  0  0  0  0  0  0  0  0
   17.1039   20.7710   22.2617 H   0  0  0  0  0  0  0  0  0  0  0  0
   17.7613   19.1378   22.0412 H   0  0  0  0  0  0  0  0  0  0  0  0
  1  2  1  0  0  0  0
  1  3  2  0  0  0  0
  1  4  1  0  0  0  0
  4  5  1  0  0  0  0
  4  6  1  0  0  0  0
  4  7  1  0  0  0  0
  7  8  1  0  0  0  0
  7  9  2  0  0  0  0
  9 10  1  0  0  0  0
  9 11  1  0  0  0  0
 11 12  1  0  0  0  0
 11 13  1  0  0  0  0
 11 14  1  0  0  0  0
 14 15  1  0  0  0  0
 14 16  1  0  0  0  0
 14 17  1  0  0  0  0
M  END
> <VConfSearch Rank>
58

> <Conf_Id>
19

> <Delta U+W>
-0.496

> <U+W>
-49.923

> <U>
13.863

> <W>
-63.786

> <W(PB)>
-65.856

> <W(SA)>
2.070

> <Valence>
14.117

> <Coulomb>
-1.228

> <VdW>
0.974

> <VdW6>
-4.885

> <VdW12>
5.859

> <Bond>
0.094

> <Angle>
2.818

> <Pdih>
11.205

> <Idih>
0.000

> <Tether>
0.000

$$$$
VeraChem MOL file


 17 16  0  0  0  0  0  0  0  0999 V2000     
   21.5440   19.8336   19.7407 C   0  0  0  0  0  0  0  0  0  0  0  0
   21.6918   18.7637   19.1838 O   0  5  0  0  0  0  0  0  0  0  0  0
   21.1378   20.8325   19.1801 O   0  0  0  0  0  0  0  0  0  0  0  0
   21.8964   19.9333   21.2191 C   0  0  0  0  0  0  0  0  0  0  0  0
   22.4239   20.8815   21.3742 H   0  0  0  0  0  0  0  0  0  0  0  0
   22.6034   19.1298   21.4583 H   0  0  0  0  0  0  0  0  0  0  0  0
   20.6733   19.8653   22.1136 C   0  0  0  0  0  0  0  0  0  0  0  0
   19.9972   20.7168   22.0424 H   0  0  0  0  0  0  0  0  0  0  0  0
   20.4015   18.8496   22.9386 C   0  0  0  0  0  0  0  0  0  0  0  0
   21.0753   17.9960   23.0056 H   0  0  0  0  0  0  0  0  0  0  0  0
   19.1798   18.7824   23.8276 C   0  0  0  0  0  0  0  0  0  0  0  0
   19.4783   18.5072   24.8482 H   0  0  0  0  0  0  0  0  0  0  0  0
   18.6985   19.7678   23.8946 H   0  0  0  0  0  0  0  0  0  0  0  0
   18.1634   17.7539   23.2945 C   0  0  0  0  0  0  0  0  0  0  0  0
   18.6066   16.7503   23.2536 H   0  0  0  0  0  0  0  0  0  0  0  0
   17.2788   17.7096   23.9430 H   0  0  0  0  0  0  0  0  0  0  0  0
   17.8315   18.0225   22.2829 H   0  0  0  0  0  0  0  0  0  0  0  0
  1  2  1  0  0  0  0
  1  3  2  0  0  0  0
  1  4  1  0  0  0  0
  4  5  1  0  0  0  0
  4  6  1  0  0  0  0
  4  7  1  0  0  0  0
  7  8  1  0  0  0  0
  7  9  2  0  0  0  0
  9 10  1  0  0  0  0
  9 11  1  0  0  0  0
 11 12  1  0  0  0  0
 11 13  1  0  0  0  0
 11 14  1  0  0  0  0
 14 15  1  0  0  0  0
 14 16  1  0  0  0  0
 14 17  1  0  0  0  0
M  END
> <VConfSearch Rank>
59

> <Conf_Id>
7

> <Delta U+W>
-0.041

> <U+W>
-49.468

> <U>
14.121

> <W>
-63.589

> <W(PB)>
-65.660

> <W(SA)>
2.071

> <Valence>
15.230

> <Coulomb>
-1.333

> <VdW>
0.224

> <VdW6>
-4.212

> <VdW12>
4.436

> <Bond>
0.044

> <Angle>
2.230

> <Pdih>
12.956

> <Idih>
0.000

> <Tether>
0.000

$$$$
VeraChem MOL file


 17 16  0  0  0  0  0  0  0  0999 V2000     
   20.3338   19.4143   25.0167 C   0  0  0  0  0  0  0  0  0  0  0  0
   21.5348   19.5417   25.1523 O   0  5  0  0  0  0  0  0  0  0  0  0
   19.6838   18.5490   25.5697 O   0  0  0  0  0  0  0  0  0  0  0  0
   19.5982   20.4111   24.1263 C   0  0  0  0  0  0  0  0  0  0  0  0
   20.1195   21.3729   24.1961 H   0  0  0  0  0  0  0  0  0  0  0  0
   18.6035   20.5754   24.5569 H   0  0  0  0  0  0  0  0  0  0  0  0
   19.4614   20.0100   22.6644 C   0  0  0  0  0  0  0  0  0  0  0  0
   18.9332   20.7353   22.0468 H   0  0  0  0  0  0  0  0  0  0  0  0
   19.9249   18.8829   22.1112 C   0  0  0  0  0  0  0  0  0  0  0  0
   20.4572   18.1416   22.7060 H   0  0  0  0  0  0  0  0  0  0  0  0
   19.7608   18.5305   20.6494 C   0  0  0  0  0  0  0  0  0  0  0  0
   19.3945   17.4992   20.5559 H   0  0  0  0  0  0  0  0  0  0  0  0
   19.0064   19.1766   20.1797 H   0  0  0  0  0  0  0  0  0  0  0  0
   21.0958   18.6721   19.8926 C   0  0  0  0  0  0  0  0  0  0  0  0
   20.9711   18.4139   18.8329 H   0  0  0  0  0  0  0  0  0  0  0  0
   21.4692   19.7030   19.9506 H   0  0  0  0  0  0  0  0  0  0  0  0
   21.8593   18.0076   20.3178 H   0  0  0  0  0  0  0  0  0  0  0  0
  1  2  1  0  0  0  0
  1  3  2  0  0  0  0
  1  4  1  0  0  0  0
  4  5  1  0  0  0  0
  4  6  1  0  0  0  0
  4  7  1  0  0  0  0
  7  8  1  0  0  0  0
  7  9  2  0  0  0  0
  9 10  1  0  0  0  0
  9 11  1  0  0  0  0
 11 12  1  0  0  0  0
 11 13  1  0  0  0  0
 11 14  1  0  0  0  0
 14 15  1  0  0  0  0
 14 16  1  0  0  0  0
 14 17  1  0  0  0  0
M  END
> <VConfSearch Rank>
60

> <Conf_Id>
39

> <Delta U+W>
-0.422

> <U+W>
-49.849

> <U>
14.465

> <W>
-64.314

> <W(PB)>
-66.406

> <W(SA)>
2.093

> <Valence>
14.072

> <Coulomb>
-0.199

> <VdW>
0.592

> <VdW6>
-5.019

> <VdW12>
5.611

> <Bond>
0.085

> <Angle>
2.748

> <Pdih>
11.238

> <Idih>
0.001

> <Tether>
0.000

$$$$
VeraChem MOL file


 17 16  0  0  0  0  0  0  0  0999 V2000     
   20.4558   22.3526   22.7509 C   0  0  0  0  0  0  0  0  0  0  0  0
   21.0856   23.0088   21.9448 O   0  5  0  0  0  0  0  0  0  0  0  0
   20.5468   22.4987   23.9539 O   0  0  0  0  0  0  0  0  0  0  0  0
   19.4970   21.2939   22.2224 C   0  0  0  0  0  0  0  0  0  0  0  0
   18.9826   21.7133   21.3501 H   0  0  0  0  0  0  0  0  0  0  0  0
   18.7332   21.1101   22.9876 H   0  0  0  0  0  0  0  0  0  0  0  0
   20.2048   20.0077   21.8409 C   0  0  0  0  0  0  0  0  0  0  0  0
   20.8646   20.0787   20.9767 H   0  0  0  0  0  0  0  0  0  0  0  0
   20.0605   18.8494   22.4918 C   0  0  0  0  0  0  0  0  0  0  0  0
   19.4028   18.7798   23.3577 H   0  0  0  0  0  0  0  0  0  0  0  0
   20.7700   17.5688   22.1123 C   0  0  0  0  0  0  0  0  0  0  0  0
   21.5912   17.7772   21.4127 H   0  0  0  0  0  0  0  0  0  0  0  0
   21.2235   17.1176   23.0052 H   0  0  0  0  0  0  0  0  0  0  0  0
   19.7940   16.5647   21.4686 C   0  0  0  0  0  0  0  0  0  0  0  0
   19.3468   16.9848   20.5580 H   0  0  0  0  0  0  0  0  0  0  0  0
   20.3145   15.6374   21.1959 H   0  0  0  0  0  0  0  0  0  0  0  0
   18.9820   16.3085   22.1616 H   0  0  0  0  0  0  0  0  0  0  0  0
  1  2  1  0  0  0  0
  1  3  2  0  0  0  0
  1  4  1  0  0  0  0
  4  5  1  0  0  0  0
  4  6  1  0  0  0  0
  4  7  1  0  0  0  0
  7  8  1  0  0  0  0
  7  9  2  0  0  0  0
  9 10  1  0  0  0  0
  9 11  1  0  0  0  0
 11 12  1  0  0  0  0
 11 13  1  0  0  0  0
 11 14  1  0  0  0  0
 14 15  1  0  0  0  0
 14 16  1  0  0  0  0
 14 17  1  0  0  0  0
M  END
> <VConfSearch Rank>
61

> <Conf_Id>
38

> <Delta U+W>
0.000

> <U+W>
-49.427

> <U>
13.666

> <W>
-63.093

> <W(PB)>
-65.225

> <W(SA)>
2.132

> <Valence>
15.226

> <Coulomb>
-1.822

> <VdW>
0.261

> <VdW6>
-4.165

> <VdW12>
4.426

> <Bond>
0.044

> <Angle>
2.229

> <Pdih>
12.953

> <Idih>
0.000

> <Tether>
0.000

$$$$
VeraChem MOL file


 17 16  0  0  0  0  0  0  0  0999 V2000     
   21.8518   17.8566   24.3203 C   0  0  0  0  0  0  0  0  0  0  0  0
   21.6837   18.4223   25.3826 O   0  5  0  0  0  0  0  0  0  0  0  0
   22.9231   17.4115   23.9582 O   0  0  0  0  0  0  0  0  0  0  0  0
   20.6550   17.6906   23.3931 C   0  0  0  0  0  0  0  0  0  0  0  0
   19.7422   17.7385   23.9991 H   0  0  0  0  0  0  0  0  0  0  0  0
   20.7017   16.6836   22.9628 H   0  0  0  0  0  0  0  0  0  0  0  0
   20.6285   18.7286   22.2874 C   0  0  0  0  0  0  0  0  0  0  0  0
   21.4235   18.6404   21.5475 H   0  0  0  0  0  0  0  0  0  0  0  0
   19.7158   19.7002   22.1910 C   0  0  0  0  0  0  0  0  0  0  0  0
   18.9230   19.7898   22.9329 H   0  0  0  0  0  0  0  0  0  0  0  0
   19.6933   20.7368   21.0899 C   0  0  0  0  0  0  0  0  0  0  0  0
   19.5759   21.7382   21.5259 H   0  0  0  0  0  0  0  0  0  0  0  0
   20.6475   20.7399   20.5453 H   0  0  0  0  0  0  0  0  0  0  0  0
   18.5423   20.4690   20.1007 C   0  0  0  0  0  0  0  0  0  0  0  0
   17.5713   20.4982   20.6123 H   0  0  0  0  0  0  0  0  0  0  0  0
   18.5306   21.2247   19.3045 H   0  0  0  0  0  0  0  0  0  0  0  0
   18.6525   19.4821   19.6322 H   0  0  0  0  0  0  0  0  0  0  0  0
  1  2  1  0  0  0  0
  1  3  2  0  0  0  0
  1  4  1  0  0  0  0
  4  5  1  0  0  0  0
  4  6  1  0  0  0  0
  4  7  1  0  0  0  0
  7  8  1  0  0  0  0
  7  9  2  0  0  0  0
  9 10  1  0  0  0  0
  9 11  1  0  0  0  0
 11 12  1  0  0  0  0
 11 13  1  0  0  0  0
 11 14  1  0  0  0  0
 14 15  1  0  0  0  0
 14 16  1  0  0  0  0
 14 17  1  0  0  0  0
M  END
> <VConfSearch Rank>
62

> <Conf_Id>
35

> <Delta U+W>
-0.102

> <U+W>
-49.529

> <U>
13.666

> <W>
-63.195

> <W(PB)>
-65.299

> <W(SA)>
2.103

> <Valence>
15.226

> <Coulomb>
-1.822

> <VdW>
0.261

> <VdW6>
-4.165

> <VdW12>
4.426

> <Bond>
0.044

> <Angle>
2.229

> <Pdih>
12.953

> <Idih>
0.000

> <Tether>
0.000

$$$$
VeraChem MOL file


 17 16  0  0  0  0  0  0  0  0999 V2000     
   21.5634   21.6029   23.0029 C   0  0  0  0  0  0  0  0  0  0  0  0
   21.0689   22.5429   22.4124 O   0  5  0  0  0  0  0  0  0  0  0  0
   21.8122   21.6123   24.1924 O   0  0  0  0  0  0  0  0  0  0  0  0
   21.8974   20.3492   22.2052 C   0  0  0  0  0  0  0  0  0  0  0  0
   22.6873   19.8049   22.7366 H   0  0  0  0  0  0  0  0  0  0  0  0
   22.3179   20.6663   21.2439 H   0  0  0  0  0  0  0  0  0  0  0  0
   20.6852   19.4661   21.9772 C   0  0  0  0  0  0  0  0  0  0  0  0
   19.9292   19.8930   21.3204 H   0  0  0  0  0  0  0  0  0  0  0  0
   20.5270   18.2570   22.5302 C   0  0  0  0  0  0  0  0  0  0  0  0
   21.3034   17.8644   23.1862 H   0  0  0  0  0  0  0  0  0  0  0  0
   19.3415   17.3241   22.3489 C   0  0  0  0  0  0  0  0  0  0  0  0
   19.7003   16.3640   21.9539 H   0  0  0  0  0  0  0  0  0  0  0  0
   18.9135   17.0962   23.3345 H   0  0  0  0  0  0  0  0  0  0  0  0
   18.2240   17.8612   21.4276 C   0  0  0  0  0  0  0  0  0  0  0  0
   18.6046   18.0496   20.4152 H   0  0  0  0  0  0  0  0  0  0  0  0
   17.4066   17.1327   21.3492 H   0  0  0  0  0  0  0  0  0  0  0  0
   17.8043   18.7962   21.8215 H   0  0  0  0  0  0  0  0  0  0  0  0
  1  2  1  0  0  0  0
  1  3  2  0  0  0  0
  1  4  1  0  0  0  0
  4  5  1  0  0  0  0
  4  6  1  0  0  0  0
  4  7  1  0  0  0  0
  7  8  1  0  0  0  0
  7  9  2  0  0  0  0
  9 10  1  0  0  0  0
  9 11  1  0  0  0  0
 11 12  1  0  0  0  0
 11 13  1  0  0  0  0
 11 14  1  0  0  0  0
 14 15  1  0  0  0  0
 14 16  1  0  0  0  0
 14 17  1  0  0  0  0
M  END
> <VConfSearch Rank>
63

> <Conf_Id>
19

> <Delta U+W>
-0.496

> <U+W>
-49.923

> <U>
13.863

> <W>
-63.786

> <W(PB)>
-65.856

> <W(SA)>
2.070

> <Valence>
14.117

> <Coulomb>
-1.228

> <VdW>
0.974

> <VdW6>
-4.885

> <VdW12>
5.859

> <Bond>
0.094

> <Angle>
2.818

> <Pdih>
11.205

> <Idih>
0.000

> <Tether>
0.000

$$$$
VeraChem MOL file


 17 16  0  0  0  0  0  0  0  0999 V2000     
   22.0881   17.1716   21.0671 C   0  0  0  0  0  0  0  0  0  0  0  0
   22.9699   17.9089   20.6725 O   0  5  0  0  0  0  0  0  0  0  0  0
   22.2951   16.1573   21.7038 O   0  0  0  0  0  0  0  0  0  0  0  0
   20.6450   17.5305   20.7378 C   0  0  0  0  0  0  0  0  0  0  0  0
   20.1279   16.6077   20.4505 H   0  0  0  0  0  0  0  0  0  0  0  0
   20.6463   18.1849   19.8579 H   0  0  0  0  0  0  0  0  0  0  0  0
   19.9295   18.1874   21.9028 C   0  0  0  0  0  0  0  0  0  0  0  0
   19.7521   17.5425   22.7630 H   0  0  0  0  0  0  0  0  0  0  0  0
   19.5348   19.4642   21.9185 C   0  0  0  0  0  0  0  0  0  0  0  0
   19.7171   20.1100   21.0602 H   0  0  0  0  0  0  0  0  0  0  0  0
   18.8241   20.1181   23.0824 C   0  0  0  0  0  0  0  0  0  0  0  0
   17.9435   20.6652   22.7194 H   0  0  0  0  0  0  0  0  0  0  0  0
   18.4555   19.3573   23.7843 H   0  0  0  0  0  0  0  0  0  0  0  0
   19.7606   21.0885   23.8281 C   0  0  0  0  0  0  0  0  0  0  0  0
   20.1142   21.8837   23.1587 H   0  0  0  0  0  0  0  0  0  0  0  0
   19.2401   21.5599   24.6719 H   0  0  0  0  0  0  0  0  0  0  0  0
   20.6377   20.5582   24.2220 H   0  0  0  0  0  0  0  0  0  0  0  0
  1  2  1  0  0  0  0
  1  3  2  0  0  0  0
  1  4  1  0  0  0  0
  4  5  1  0  0  0  0
  4  6  1  0  0  0  0
  4  7  1  0  0  0  0
  7  8  1  0  0  0  0
  7  9  2  0  0  0  0
  9 10  1  0  0  0  0
  9 11  1  0  0  0  0
 11 12  1  0  0  0  0
 11 13  1  0  0  0  0
 11 14  1  0  0  0  0
 14 15  1  0  0  0  0
 14 16  1  0  0  0  0
 14 17  1  0  0  0  0
M  END
> <VConfSearch Rank>
64

> <Conf_Id>
7

> <Delta U+W>
-0.041

> <U+W>
-49.468

> <U>
14.121

> <W>
-63.589

> <W(PB)>
-65.660

> <W(SA)>
2.071

> <Valence>
15.230

> <Coulomb>
-1.333

> <VdW>
0.224

> <VdW6>
-4.212

> <VdW12>
4.436

> <Bond>
0.044

> <Angle>
2.230

> <Pdih>
12.956

> <Idih>
0.000

> <Tether>
0.000

$$$$
VeraChem MOL file


 17 16  0  0  0  0  0  0  0  0999 V2000     
   17.5378   19.2061   21.3157 C   0  0  0  0  0  0  0  0  0  0  0  0
   16.9780   19.9220   22.1226 O   0  5  0  0  0  0  0  0  0  0  0  0
   17.1740   18.0762   21.0549 O   0  0  0  0  0  0  0  0  0  0  0  0
   18.7452   19.7656   20.5696 C   0  0  0  0  0  0  0  0  0  0  0  0
   18.5947   20.8445   20.4473 H   0  0  0  0  0  0  0  0  0  0  0  0
   18.7395   19.3439   19.5577 H   0  0  0  0  0  0  0  0  0  0  0  0
   20.0967   19.5097   21.2214 C   0  0  0  0  0  0  0  0  0  0  0  0
   20.9448   19.9173   20.6725 H   0  0  0  0  0  0  0  0  0  0  0  0
   20.3051   18.8522   22.3683 C   0  0  0  0  0  0  0  0  0  0  0  0
   19.4747   18.4357   22.9371 H   0  0  0  0  0  0  0  0  0  0  0  0
   21.6722   18.6235   22.9738 C   0  0  0  0  0  0  0  0  0  0  0  0
   21.7787   17.5685   23.2602 H   0  0  0  0  0  0  0  0  0  0  0  0
   22.4598   18.8309   22.2363 H   0  0  0  0  0  0  0  0  0  0  0  0
   21.8855   19.5159   24.2121 C   0  0  0  0  0  0  0  0  0  0  0  0
   22.8783   19.3448   24.6481 H   0  0  0  0  0  0  0  0  0  0  0  0
   21.8089   20.5781   23.9448 H   0  0  0  0  0  0  0  0  0  0  0  0
   21.1333   19.3023   24.9828 H   0  0  0  0  0  0  0  0  0  0  0  0
  1  2  1  0  0  0  0
  1  3  2  0  0  0  0
  1  4  1  0  0  0  0
  4  5  1  0  0  0  0
  4  6  1  0  0  0  0
  4  7  1  0  0  0  0
  7  8  1  0  0  0  0
  7  9  2  0  0  0  0
  9 10  1  0  0  0  0
  9 11  1  0  0  0  0
 11 12  1  0  0  0  0
 11 13  1  0  0  0  0
 11 14  1  0  0  0  0
 14 15  1  0  0  0  0
 14 16  1  0  0  0  0
 14 17  1  0  0  0  0
M  END
> <VConfSearch Rank>
65

> <Conf_Id>
39

> <Delta U+W>
-0.422

> <U+W>
-49.849

> <U>
14.465

> <W>
-64.314

> <W(PB)>
-66.406

> <W(SA)>
2.093

> <Valence>
14.072

> <Coulomb>
-0.199

> <VdW>
0.592

> <VdW6>
-5.019

> <VdW12>
5.611

> <Bond>
0.085

> <Angle>
2.748

> <Pdih>
11.238

> <Idih>
0.001

> <Tether>
0.000

$$$$
VeraChem MOL file


 17 16  0  0  0  0  0  0  0  0999 V2000     
   18.8368   16.5887   21.0148 C   0  0  0  0  0  0  0  0  0  0  0  0
   17.8073   16.6953   20.3779 O   0  5  0  0  0  0  0  0  0  0  0  0
   19.0427   15.6976   21.8151 O   0  0  0  0  0  0  0  0  0  0  0  0
   19.9293   17.6263   20.7925 C   0  0  0  0  0  0  0  0  0  0  0  0
   19.9802   17.8340   19.7174 H   0  0  0  0  0  0  0  0  0  0  0  0
   20.8894   17.1804   21.0788 H   0  0  0  0  0  0  0  0  0  0  0  0
   19.6758   18.9102   21.5595 C   0  0  0  0  0  0  0  0  0  0  0  0
   18.8216   19.4945   21.2187 H   0  0  0  0  0  0  0  0  0  0  0  0
   20.4200   19.3307   22.5869 C   0  0  0  0  0  0  0  0  0  0  0  0
   21.2722   18.7444   22.9290 H   0  0  0  0  0  0  0  0  0  0  0  0
   20.1634   20.6093   23.3529 C   0  0  0  0  0  0  0  0  0  0  0  0
   19.1620   20.9996   23.1249 H   0  0  0  0  0  0  0  0  0  0  0  0
   20.1841   20.4053   24.4321 H   0  0  0  0  0  0  0  0  0  0  0  0
   21.2180   21.6802   23.0122 C   0  0  0  0  0  0  0  0  0  0  0  0
   21.1985   21.9195   21.9408 H   0  0  0  0  0  0  0  0  0  0  0  0
   21.0270   22.6053   23.5714 H   0  0  0  0  0  0  0  0  0  0  0  0
   22.2274   21.3307   23.2662 H   0  0  0  0  0  0  0  0  0  0  0  0
  1  2  1  0  0  0  0
  1  3  2  0  0  0  0
  1  4  1  0  0  0  0
  4  5  1  0  0  0  0
  4  6  1  0  0  0  0
  4  7  1  0  0  0  0
  7  8  1  0  0  0  0
  7  9  2  0  0  0  0
  9 10  1  0  0  0  0
  9 11  1  0  0  0  0
 11 12  1  0  0  0  0
 11 13  1  0  0  0  0
 11 14  1  0  0  0  0
 14 15  1  0  0  0  0
 14 16  1  0  0  0  0
 14 17  1  0  0  0  0
M  END
> <VConfSearch Rank>
66

> <Conf_Id>
38

> <Delta U+W>
0.000

> <U+W>
-49.427

> <U>
13.666

> <W>
-63.093

> <W(PB)>
-65.225

> <W(SA)>
2.132

> <Valence>
15.226

> <Coulomb>
-1.822

> <VdW>
0.261

> <VdW6>
-4.165

> <VdW12>
4.426

> <Bond>
0.044

> <Angle>
2.229

> <Pdih>
12.953

> <Idih>
0.000

> <Tether>
0.000

$$$$
VeraChem MOL file


 17 16  0  0  0  0  0  0  0  0999 V2000     
   22.4830   19.2249   20.0388 C   0  0  0  0  0  0  0  0  0  0  0  0
   22.0514   19.4465   18.9246 O   0  5  0  0  0  0  0  0  0  0  0  0
   23.3825   18.4404   20.2673 O   0  0  0  0  0  0  0  0  0  0  0  0
   21.8682   19.9742   21.2137 C   0  0  0  0  0  0  0  0  0  0  0  0
   21.4158   20.8977   20.8327 H   0  0  0  0  0  0  0  0  0  0  0  0
   22.6823   20.2695   21.8856 H   0  0  0  0  0  0  0  0  0  0  0  0
   20.8491   19.1396   21.9657 C   0  0  0  0  0  0  0  0  0  0  0  0
   21.2558   18.2871   22.5088 H   0  0  0  0  0  0  0  0  0  0  0  0
   19.5372   19.3942   21.9853 C   0  0  0  0  0  0  0  0  0  0  0  0
   19.1307   20.2450   21.4395 H   0  0  0  0  0  0  0  0  0  0  0  0
   18.5220   18.5585   22.7326 C   0  0  0  0  0  0  0  0  0  0  0  0
   17.6756   18.3255   22.0723 H   0  0  0  0  0  0  0  0  0  0  0  0
   18.9615   17.5974   23.0329 H   0  0  0  0  0  0  0  0  0  0  0  0
   18.0091   19.2979   23.9837 C   0  0  0  0  0  0  0  0  0  0  0  0
   17.5295   20.2466   23.7090 H   0  0  0  0  0  0  0  0  0  0  0  0
   17.2723   18.6870   24.5213 H   0  0  0  0  0  0  0  0  0  0  0  0
   18.8355   19.5191   24.6720 H   0  0  0  0  0  0  0  0  0  0  0  0
  1  2  1  0  0  0  0
  1  3  2  0  0  0  0
  1  4  1  0  0  0  0
  4  5  1  0  0  0  0
  4  6  1  0  0  0  0
  4  7  1  0  0  0  0
  7  8  1  0  0  0  0
  7  9  2  0  0  0  0
  9 10  1  0  0  0  0
  9 11  1  0  0  0  0
 11 12  1  0  0  0  0
 11 13  1  0  0  0  0
 11 14  1  0  0  0  0
 14 15  1  0  0  0  0
 14 16  1  0  0  0  0
 14 17  1  0  0  0  0
M  END
> <VConfSearch Rank>
67

> <Conf_Id>
35

> <Delta U+W>
-0.102

> <U+W>
-49.529

> <U>
13.666

> <W>
-63.195

> <W(PB)>
-65.299

> <W(SA)>
2.103

> <Valence>
15.226

> <Coulomb>
-1.822

> <VdW>
0.261

> <VdW6>
-4.165

> <VdW12>
4.426

> <Bond>
0.044

> <Angle>
2.229

> <Pdih>
12.953

> <Idih>
0.000

> <Tether>
0.000

$$$$
VeraChem MOL file


 17 16  0  0  0  0  0  0  0  0999 V2000     
   22.4331   20.4385   20.7800 C   0  0  0  0  0  0  0  0  0  0  0  0
   22.0048   21.0109   19.7973 O   0  5  0  0  0  0  0  0  0  0  0  0
   23.2231   20.9373   21.5572 O   0  0  0  0  0  0  0  0  0  0  0  0
   21.9602   19.0152   21.0451 C   0  0  0  0  0  0  0  0  0  0  0  0
   22.7160   18.5116   21.6597 H   0  0  0  0  0  0  0  0  0  0  0  0
   21.9265   18.4892   20.0840 H   0  0  0  0  0  0  0  0  0  0  0  0
   20.5978   18.9707   21.7108 C   0  0  0  0  0  0  0  0  0  0  0  0
   19.7751   19.3128   21.0853 H   0  0  0  0  0  0  0  0  0  0  0  0
   20.3933   18.5546   22.9669 C   0  0  0  0  0  0  0  0  0  0  0  0
   21.2421   18.2235   23.5644 H   0  0  0  0  0  0  0  0  0  0  0  0
   19.0615   18.4876   23.6953 C   0  0  0  0  0  0  0  0  0  0  0  0
   18.8899   17.4559   24.0307 H   0  0  0  0  0  0  0  0  0  0  0  0
   19.1262   19.0890   24.6122 H   0  0  0  0  0  0  0  0  0  0  0  0
   17.8429   18.9580   22.8708 C   0  0  0  0  0  0  0  0  0  0  0  0
   17.7146   18.3422   21.9710 H   0  0  0  0  0  0  0  0  0  0  0  0
   16.9231   18.8804   23.4650 H   0  0  0  0  0  0  0  0  0  0  0  0
   17.9566   20.0056   22.5625 H   0  0  0  0  0  0  0  0  0  0  0  0
  1  2  1  0  0  0  0
  1  3  2  0  0  0  0
  1  4  1  0  0  0  0
  4  5  1  0  0  0  0
  4  6  1  0  0  0  0
  4  7  1  0  0  0  0
  7  8  1  0  0  0  0
  7  9  2  0  0  0  0
  9 10  1  0  0  0  0
  9 11  1  0  0  0  0
 11 12  1  0  0  0  0
 11 13  1  0  0  0  0
 11 14  1  0  0  0  0
 14 15  1  0  0  0  0
 14 16  1  0  0  0  0
 14 17  1  0  0  0  0
M  END
> <VConfSearch Rank>
68

> <Conf_Id>
19

> <Delta U+W>
-0.496

> <U+W>
-49.923

> <U>
13.863

> <W>
-63.786

> <W(PB)>
-65.856

> <W(SA)>
2.070

> <Valence>
14.117

> <Coulomb>
-1.228

> <VdW>
0.974

> <VdW6>
-4.885

> <VdW12>
5.859

> <Bond>
0.094

> <Angle>
2.818

> <Pdih>
11.205

> <Idih>
0.000

> <Tether>
0.000

$$$$
VeraChem MOL file


 17 16  0  0  0  0  0  0  0  0999 V2000     
   20.3512   21.1719   20.1769 C   0  0  0  0  0  0  0  0  0  0  0  0
   20.7289   20.5544   19.2007 O   0  5  0  0  0  0  0  0  0  0  0  0
   19.4473   21.9838   20.1501 O   0  0  0  0  0  0  0  0  0  0  0  0
   21.0546   20.9243   21.5049 C   0  0  0  0  0  0  0  0  0  0  0  0
   21.1972   21.8949   21.9941 H   0  0  0  0  0  0  0  0  0  0  0  0
   22.0526   20.5212   21.2948 H   0  0  0  0  0  0  0  0  0  0  0  0
   20.2723   19.9938   22.4120 C   0  0  0  0  0  0  0  0  0  0  0  0
   19.3321   20.3945   22.7898 H   0  0  0  0  0  0  0  0  0  0  0  0
   20.6668   18.7605   22.7432 C   0  0  0  0  0  0  0  0  0  0  0  0
   21.6044   18.3584   22.3609 H   0  0  0  0  0  0  0  0  0  0  0  0
   19.8837   17.8331   23.6455 C   0  0  0  0  0  0  0  0  0  0  0  0
   20.5499   17.4074   24.4080 H   0  0  0  0  0  0  0  0  0  0  0  0
   19.1031   18.3887   24.1833 H   0  0  0  0  0  0  0  0  0  0  0  0
   19.2333   16.6936   22.8372 C   0  0  0  0  0  0  0  0  0  0  0  0
   19.9952   16.0965   22.3191 H   0  0  0  0  0  0  0  0  0  0  0  0
   18.6660   16.0239   23.4967 H   0  0  0  0  0  0  0  0  0  0  0  0
   18.5429   17.0951   22.0837 H   0  0  0  0  0  0  0  0  0  0  0  0
  1  2  1  0  0  0  0
  1  3  2  0  0  0  0
  1  4  1  0  0  0  0
  4  5  1  0  0  0  0
  4  6  1  0  0  0  0
  4  7  1  0  0  0  0
  7  8  1  0  0  0  0
  7  9  2  0  0  0  0
  9 10  1  0  0  0  0
  9 11  1  0  0  0  0
 11 12  1  0  0  0  0
 11 13  1  0  0  0  0
 11 14  1  0  0  0  0
 14 15  1  0  0  0  0
 14 16  1  0  0  0  0
 14 17  1  0  0  0  0
M  END
> <VConfSearch Rank>
69

> <Conf_Id>
7

> <Delta U+W>
-0.041

> <U+W>
-49.468

> <U>
14.121

> <W>
-63.589

> <W(PB)>
-65.660

> <W(SA)>
2.071

> <Valence>
15.230

> <Coulomb>
-1.333

> <VdW>
0.224

> <VdW6>
-4.212

> <VdW12>
4.436

> <Bond>
0.044

> <Angle>
2.230

> <Pdih>
12.956

> <Idih>
0.000

> <Tether>
0.000

$$$$
VeraChem MOL file


 17 16  0  0  0  0  0  0  0  0999 V2000     
   17.7199   20.4334   22.9534 C   0  0  0  0  0  0  0  0  0  0  0  0
   17.3621   20.8746   21.8790 O   0  5  0  0  0  0  0  0  0  0  0  0
   17.8065   21.1077   23.9608 O   0  0  0  0  0  0  0  0  0  0  0  0
   18.0515   18.9473   23.0492 C   0  0  0  0  0  0  0  0  0  0  0  0
   17.4111   18.4132   22.3375 H   0  0  0  0  0  0  0  0  0  0  0  0
   17.7511   18.5998   24.0446 H   0  0  0  0  0  0  0  0  0  0  0  0
   19.5077   18.5815   22.7990 C   0  0  0  0  0  0  0  0  0  0  0  0
   19.7225   17.5161   22.8724 H   0  0  0  0  0  0  0  0  0  0  0  0
   20.4947   19.4368   22.5070 C   0  0  0  0  0  0  0  0  0  0  0  0
   20.3067   20.5069   22.4267 H   0  0  0  0  0  0  0  0  0  0  0  0
   21.9292   19.0209   22.2682 C   0  0  0  0  0  0  0  0  0  0  0  0
   22.6031   19.6633   22.8511 H   0  0  0  0  0  0  0  0  0  0  0  0
   22.0950   17.9921   22.6165 H   0  0  0  0  0  0  0  0  0  0  0  0
   22.2923   19.1179   20.7736 C   0  0  0  0  0  0  0  0  0  0  0  0
   23.3345   18.8163   20.6064 H   0  0  0  0  0  0  0  0  0  0  0  0
   21.6473   18.4634   20.1726 H   0  0  0  0  0  0  0  0  0  0  0  0
   22.1720   20.1460   20.4075 H   0  0  0  0  0  0  0  0  0  0  0  0
  1  2  1  0  0  0  0
  1  3  2  0  0  0  0
  1  4  1  0  0  0  0
  4  5  1  0  0  0  0
  4  6  1  0  0  0  0
  4  7  1  0  0  0  0
  7  8  1  0  0  0  0
  7  9  2  0  0  0  0
  9 10  1  0  0  0  0
  9 11  1  0  0  0  0
 11 12  1  0  0  0  0
 11 13  1  0  0  0  0
 11 14  1  0  0  0  0
 14 15  1  0  0  0  0
 14 16  1  0  0  0  0
 14 17  1  0  0  0  0
M  END
> <VConfSearch Rank>
70

> <Conf_Id>
39

> <Delta U+W>
-0.422

> <U+W>
-49.849

> <U>
14.465

> <W>
-64.314

> <W(PB)>
-66.406

> <W(SA)>
2.093

> <Valence>
14.072

> <Coulomb>
-0.199

> <VdW>
0.592

> <VdW6>
-5.019

> <VdW12>
5.611

> <Bond>
0.085

> <Angle>
2.748

> <Pdih>
11.238

> <Idih>
0.001

> <Tether>
0.000

$$$$
VeraChem MOL file


 17 16  0  0  0  0  0  0  0  0999 V2000     
   22.9221   17.8568   22.4164 C   0  0  0  0  0  0  0  0  0  0  0  0
   23.4247   17.4190   21.4002 O   0  5  0  0  0  0  0  0  0  0  0  0
   22.9620   17.2831   23.4869 O   0  0  0  0  0  0  0  0  0  0  0  0
   22.2086   19.2004   22.3431 C   0  0  0  0  0  0  0  0  0  0  0  0
   22.8085   19.8641   21.7098 H   0  0  0  0  0  0  0  0  0  0  0  0
   22.1986   19.6388   23.3483 H   0  0  0  0  0  0  0  0  0  0  0  0
   20.8021   19.0816   21.7878 C   0  0  0  0  0  0  0  0  0  0  0  0
   20.7393   18.8041   20.7360 H   0  0  0  0  0  0  0  0  0  0  0  0
   19.6923   19.2910   22.5024 C   0  0  0  0  0  0  0  0  0  0  0  0
   19.7558   19.5656   23.5548 H   0  0  0  0  0  0  0  0  0  0  0  0
   18.2905   19.1684   21.9479 C   0  0  0  0  0  0  0  0  0  0  0  0
   18.3040   18.6478   20.9805 H   0  0  0  0  0  0  0  0  0  0  0  0
   17.6760   18.5597   22.6250 H   0  0  0  0  0  0  0  0  0  0  0  0
   17.6414   20.5550   21.7719 C   0  0  0  0  0  0  0  0  0  0  0  0
   18.2254   21.1737   21.0778 H   0  0  0  0  0  0  0  0  0  0  0  0
   16.6243   20.4596   21.3699 H   0  0  0  0  0  0  0  0  0  0  0  0
   17.5799   21.0835   22.7323 H   0  0  0  0  0  0  0  0  0  0  0  0
  1  2  1  0  0  0  0
  1  3  2  0  0  0  0
  1  4  1  0  0  0  0
  4  5  1  0  0  0  0
  4  6  1  0  0  0  0
  4  7  1  0  0  0  0
  7  8  1  0  0  0  0
  7  9  2  0  0  0  0
  9 10  1  0  0  0  0
  9 11  1  0  0  0  0
 11 12  1  0  0  0  0
 11 13  1  0  0  0  0
 11 14  1  0  0  0  0
 14 15  1  0  0  0  0
 14 16  1  0  0  0  0
 14 17  1  0  0  0  0
M  END
> <VConfSearch Rank>
71

> <Conf_Id>
38

> <Delta U+W>
0.000

> <U+W>
-49.427

> <U>
13.666

> <W>
-63.093

> <W(PB)>
-65.225

> <W(SA)>
2.132

> <Valence>
15.226

> <Coulomb>
-1.822

> <VdW>
0.261

> <VdW6>
-4.165

> <VdW12>
4.426

> <Bond>
0.044

> <Angle>
2.229

> <Pdih>
12.953

> <Idih>
0.000

> <Tether>
0.000

$$$$
VeraChem MOL file


 17 16  0  0  0  0  0  0  0  0999 V2000     
   18.9428   17.2858   24.2918 C   0  0  0  0  0  0  0  0  0  0  0  0
   18.6337   16.2393   23.7571 O   0  5  0  0  0  0  0  0  0  0  0  0
   18.3127   17.7870   25.2022 O   0  0  0  0  0  0  0  0  0  0  0  0
   20.1903   18.0076   23.7995 C   0  0  0  0  0  0  0  0  0  0  0  0
   20.8465   17.2708   23.3208 H   0  0  0  0  0  0  0  0  0  0  0  0
   20.7242   18.3901   24.6771 H   0  0  0  0  0  0  0  0  0  0  0  0
   19.8666   19.1453   22.8500 C   0  0  0  0  0  0  0  0  0  0  0  0
   19.3519   19.9940   23.2996 H   0  0  0  0  0  0  0  0  0  0  0  0
   20.1699   19.1468   21.5484 C   0  0  0  0  0  0  0  0  0  0  0  0
   20.6817   18.2965   21.0989 H   0  0  0  0  0  0  0  0  0  0  0  0
   19.8428   20.2805   20.6024 C   0  0  0  0  0  0  0  0  0  0  0  0
   19.3709   19.8812   19.6944 H   0  0  0  0  0  0  0  0  0  0  0  0
   19.1160   20.9657   21.0602 H   0  0  0  0  0  0  0  0  0  0  0  0
   21.1123   21.0656   20.2188 C   0  0  0  0  0  0  0  0  0  0  0  0
   21.8423   20.4120   19.7234 H   0  0  0  0  0  0  0  0  0  0  0  0
   20.8687   21.8864   19.5317 H   0  0  0  0  0  0  0  0  0  0  0  0
   21.5881   21.4967   21.1095 H   0  0  0  0  0  0  0  0  0  0  0  0
  1  2  1  0  0  0  0
  1  3  2  0  0  0  0
  1  4  1  0  0  0  0
  4  5  1  0  0  0  0
  4  6  1  0  0  0  0
  4  7  1  0  0  0  0
  7  8  1  0  0  0  0
  7  9  2  0  0  0  0
  9 10  1  0  0  0  0
  9 11  1  0  0  0  0
 11 12  1  0  0  0  0
 11 13  1  0  0  0  0
 11 14  1  0  0  0  0
 14 15  1  0  0  0  0
 14 16  1  0  0  0  0
 14 17  1  0  0  0  0
M  END
> <VConfSearch Rank>
72

> <Conf_Id>
35

> <Delta U+W>
-0.102

> <U+W>
-49.529

> <U>
13.666

> <W>
-63.195

> <W(PB)>
-65.299

> <W(SA)>
2.103

> <Valence>
15.226

> <Coulomb>
-1.822

> <VdW>
0.261

> <VdW6>
-4.165

> <VdW12>
4.426

> <Bond>
0.044

> <Angle>
2.229

> <Pdih>
12.953

> <Idih>
0.000

> <Tether>
0.000

$$$$
VeraChem MOL file


 17 16  0  0  0  0  0  0  0  0999 V2000     
   22.9633   18.9074   21.1271 C   0  0  0  0  0  0  0  0  0  0  0  0
   23.7573   19.3399   21.9393 O   0  5  0  0  0  0  0  0  0  0  0  0
   23.1271   17.8714   20.5132 O   0  0  0  0  0  0  0  0  0  0  0  0
   21.6996   19.7139   20.8586 C   0  0  0  0  0  0  0  0  0  0  0  0
   21.3327   19.4537   19.8585 H   0  0  0  0  0  0  0  0  0  0  0  0
   21.9782   20.7737   20.8320 H   0  0  0  0  0  0  0  0  0  0  0  0
   20.6296   19.4831   21.9090 C   0  0  0  0  0  0  0  0  0  0  0  0
   20.8734   19.8675   22.8979 H   0  0  0  0  0  0  0  0  0  0  0  0
   19.4713   18.8555   21.6702 C   0  0  0  0  0  0  0  0  0  0  0  0
   19.2640   18.4804   20.6685 H   0  0  0  0  0  0  0  0  0  0  0  0
   18.3608   18.5876   22.6721 C   0  0  0  0  0  0  0  0  0  0  0  0
   17.4296   19.0365   22.3010 H   0  0  0  0  0  0  0  0  0  0  0  0
   18.1713   17.5064   22.7133 H   0  0  0  0  0  0  0  0  0  0  0  0
   18.6338   19.1048   24.1018 C   0  0  0  0  0  0  0  0  0  0  0  0
   18.7747   20.1936   24.1068 H   0  0  0  0  0  0  0  0  0  0  0  0
   17.7889   18.8723   24.7630 H   0  0  0  0  0  0  0  0  0  0  0  0
   19.5313   18.6355   24.5258 H   0  0  0  0  0  0  0  0  0  0  0  0
  1  2  1  0  0  0  0
  1  3  2  0  0  0  0
  1  4  1  0  0  0  0
  4  5  1  0  0  0  0
  4  6  1  0  0  0  0
  4  7  1  0  0  0  0
  7  8  1  0  0  0  0
  7  9  2  0  0  0  0
  9 10  1  0  0  0  0
  9 11  1  0  0  0  0
 11 12  1  0  0  0  0
 11 13  1  0  0  0  0
 11 14  1  0  0  0  0
 14 15  1  0  0  0  0
 14 16  1  0  0  0  0
 14 17  1  0  0  0  0
M  END
> <VConfSearch Rank>
73

> <Conf_Id>
19

> <Delta U+W>
-0.496

> <U+W>
-49.923

> <U>
13.863

> <W>
-63.786

> <W(PB)>
-65.856

> <W(SA)>
2.070

> <Valence>
14.117

> <Coulomb>
-1.228

> <VdW>
0.974

> <VdW6>
-4.885

> <VdW12>
5.859

> <Bond>
0.094

> <Angle>
2.818

> <Pdih>
11.205

> <Idih>
0.000

> <Tether>
0.000

$$$$
VeraChem MOL file


 17 16  0  0  0  0  0  0  0  0999 V2000     
   21.6770   20.7604   20.3584 C   0  0  0  0  0  0  0  0  0  0  0  0
   22.8086   20.6672   20.7916 O   0  5  0  0  0  0  0  0  0  0  0  0
   21.3982   20.6599   19.1798 O   0  0  0  0  0  0  0  0  0  0  0  0
   20.5464   21.0285   21.3431 C   0  0  0  0  0  0  0  0  0  0  0  0
   19.8767   21.7688   20.8902 H   0  0  0  0  0  0  0  0  0  0  0  0
   20.9752   21.4903   22.2406 H   0  0  0  0  0  0  0  0  0  0  0  0
   19.7724   19.7723   21.6948 C   0  0  0  0  0  0  0  0  0  0  0  0
   19.1901   19.3416   20.8808 H   0  0  0  0  0  0  0  0  0  0  0  0
   19.7821   19.1971   22.9012 C   0  0  0  0  0  0  0  0  0  0  0  0
   20.3686   19.6253   23.7134 H   0  0  0  0  0  0  0  0  0  0  0  0
   19.0120   17.9428   23.2490 C   0  0  0  0  0  0  0  0  0  0  0  0
   18.4620   18.0935   24.1878 H   0  0  0  0  0  0  0  0  0  0  0  0
   18.2624   17.7251   22.4757 H   0  0  0  0  0  0  0  0  0  0  0  0
   19.9583   16.7353   23.3960 C   0  0  0  0  0  0  0  0  0  0  0  0
   20.6955   16.9100   24.1906 H   0  0  0  0  0  0  0  0  0  0  0  0
   19.3942   15.8279   23.6480 H   0  0  0  0  0  0  0  0  0  0  0  0
   20.5018   16.5501   22.4601 H   0  0  0  0  0  0  0  0  0  0  0  0
  1  2  1  0  0  0  0
  1  3  2  0  0  0  0
  1  4  1  0  0  0  0
  4  5  1  0  0  0  0
  4  6  1  0  0  0  0
  4  7  1  0  0  0  0
  7  8  1  0  0  0  0
  7  9  2  0  0  0  0
  9 10  1  0  0  0  0
  9 11  1  0  0  0  0
 11 12  1  0  0  0  0
 11 13  1  0  0  0  0
 11 14  1  0  0  0  0
 14 15  1  0  0  0  0
 14 16  1  0  0  0  0
 14 17  1  0  0  0  0
M  END
> <VConfSearch Rank>
74

> <Conf_Id>
7

> <Delta U+W>
-0.041

> <U+W>
-49.468

> <U>
14.121

> <W>
-63.589

> <W(PB)>
-65.660

> <W(SA)>
2.071

> <Valence>
15.230

> <Coulomb>
-1.333

> <VdW>
0.224

> <VdW6>
-4.212

> <VdW12>
4.436

> <Bond>
0.044

> <Angle>
2.230

> <Pdih>
12.956

> <Idih>
0.000

> <Tether>
0.000

$$$$
VeraChem MOL file


 17 16  0  0  0  0  0  0  0  0999 V2000     
   18.5466   18.4732   20.1494 C   0  0  0  0  0  0  0  0  0  0  0  0
   19.3920   18.1932   19.3224 O   0  5  0  0  0  0  0  0  0  0  0  0
   17.6343   19.2485   19.9407 O   0  0  0  0  0  0  0  0  0  0  0  0
   18.6184   17.7938   21.5135 C   0  0  0  0  0  0  0  0  0  0  0  0
   19.0424   16.7933   21.3690 H   0  0  0  0  0  0  0  0  0  0  0  0
   17.5919   17.6382   21.8654 H   0  0  0  0  0  0  0  0  0  0  0  0
   19.4151   18.5368   22.5765 C   0  0  0  0  0  0  0  0  0  0  0  0
   19.4534   18.0346   23.5424 H   0  0  0  0  0  0  0  0  0  0  0  0
   20.0435   19.7072   22.4139 C   0  0  0  0  0  0  0  0  0  0  0  0
   20.0216   20.2297   21.4583 H   0  0  0  0  0  0  0  0  0  0  0  0
   20.8225   20.4060   23.5061 C   0  0  0  0  0  0  0  0  0  0  0  0
   20.5278   21.4631   23.5530 H   0  0  0  0  0  0  0  0  0  0  0  0
   20.5874   19.9695   24.4866 H   0  0  0  0  0  0  0  0  0  0  0  0
   22.3397   20.3064   23.2543 C   0  0  0  0  0  0  0  0  0  0  0  0
   22.8998   20.8162   24.0488 H   0  0  0  0  0  0  0  0  0  0  0  0
   22.6625   19.2573   23.2288 H   0  0  0  0  0  0  0  0  0  0  0  0
   22.6087   20.7702   22.2961 H   0  0  0  0  0  0  0  0  0  0  0  0
  1  2  1  0  0  0  0
  1  3  2  0  0  0  0
  1  4  1  0  0  0  0
  4  5  1  0  0  0  0
  4  6  1  0  0  0  0
  4  7  1  0  0  0  0
  7  8  1  0  0  0  0
  7  9  2  0  0  0  0
  9 10  1  0  0  0  0
  9 11  1  0  0  0  0
 11 12  1  0  0  0  0
 11 13  1  0  0  0  0
 11 14  1  0  0  0  0
 14 15  1  0  0  0  0
 14 16  1  0  0  0  0
 14 17  1  0  0  0  0
M  END
> <VConfSearch Rank>
75

> <Conf_Id>
39

> <Delta U+W>
-0.422

> <U+W>
-49.849

> <U>
14.465

> <W>
-64.314

> <W(PB)>
-66.406

> <W(SA)>
2.093

> <Valence>
14.072

> <Coulomb>
-0.199

> <VdW>
0.592

> <VdW6>
-5.019

> <VdW12>
5.611

> <Bond>
0.085

> <Angle>
2.748

> <Pdih>
11.238

> <Idih>
0.001

> <Tether>
0.000

$$$$
VeraChem MOL file


 17 16  0  0  0  0  0  0  0  0999 V2000     
   21.6950   21.2244   24.0280 C   0  0  0  0  0  0  0  0  0  0  0  0
   21.0764   21.6802   24.9695 O   0  5  0  0  0  0  0  0  0  0  0  0
   22.4916   21.8672   23.3730 O   0  0  0  0  0  0  0  0  0  0  0  0
   21.4617   19.7667   23.6536 C   0  0  0  0  0  0  0  0  0  0  0  0
   21.3926   19.1892   24.5827 H   0  0  0  0  0  0  0  0  0  0  0  0
   22.3464   19.4047   23.1161 H   0  0  0  0  0  0  0  0  0  0  0  0
   20.2057   19.5735   22.8256 C   0  0  0  0  0  0  0  0  0  0  0  0
   19.2693   19.7608   23.3504 H   0  0  0  0  0  0  0  0  0  0  0  0
   20.2022   19.2035   21.5413 C   0  0  0  0  0  0  0  0  0  0  0  0
   21.1389   19.0193   21.0163 H   0  0  0  0  0  0  0  0  0  0  0  0
   18.9488   19.0150   20.7162 C   0  0  0  0  0  0  0  0  0  0  0  0
   18.0830   19.4608   21.2250 H   0  0  0  0  0  0  0  0  0  0  0  0
   19.0545   19.5389   19.7565 H   0  0  0  0  0  0  0  0  0  0  0  0
   18.6750   17.5205   20.4583 C   0  0  0  0  0  0  0  0  0  0  0  0
   18.5401   16.9800   21.4044 H   0  0  0  0  0  0  0  0  0  0  0  0
   17.7648   17.3901   19.8586 H   0  0  0  0  0  0  0  0  0  0  0  0
   19.5096   17.0573   19.9158 H   0  0  0  0  0  0  0  0  0  0  0  0
  1  2  1  0  0  0  0
  1  3  2  0  0  0  0
  1  4  1  0  0  0  0
  4  5  1  0  0  0  0
  4  6  1  0  0  0  0
  4  7  1  0  0  0  0
  7  8  1  0  0  0  0
  7  9  2  0  0  0  0
  9 10  1  0  0  0  0
  9 11  1  0  0  0  0
 11 12  1  0  0  0  0
 11 13  1  0  0  0  0
 11 14  1  0  0  0  0
 14 15  1  0  0  0  0
 14 16  1  0  0  0  0
 14 17  1  0  0  0  0
M  END
> <VConfSearch Rank>
76

> <Conf_Id>
38

> <Delta U+W>
0.000

> <U+W>
-49.427

> <U>
13.666

> <W>
-63.093

> <W(PB)>
-65.225

> <W(SA)>
2.132

> <Valence>
15.226

> <Coulomb>
-1.822

> <VdW>
0.261

> <VdW6>
-4.165

> <VdW12>
4.426

> <Bond>
0.044

> <Angle>
2.229

> <Pdih>
12.953

> <Idih>
0.000

> <Tether>
0.000

$$$$
VeraChem MOL file


 17 16  0  0  0  0  0  0  0  0999 V2000     
   17.7567   20.6005   20.4273 C   0  0  0  0  0  0  0  0  0  0  0  0
   16.9452   19.7475   20.1264 O   0  5  0  0  0  0  0  0  0  0  0  0
   18.0719   21.5167   19.6937 O   0  0  0  0  0  0  0  0  0  0  0  0
   18.4116   20.5221   21.8001 C   0  0  0  0  0  0  0  0  0  0  0  0
   17.7514   19.9501   22.4631 H   0  0  0  0  0  0  0  0  0  0  0  0
   18.4673   21.5399   22.2033 H   0  0  0  0  0  0  0  0  0  0  0  0
   19.7967   19.9060   21.7486 C   0  0  0  0  0  0  0  0  0  0  0  0
   20.5527   20.5030   21.2393 H   0  0  0  0  0  0  0  0  0  0  0  0
   20.1103   18.7180   22.2744 C   0  0  0  0  0  0  0  0  0  0  0  0
   19.3532   18.1201   22.7807 H   0  0  0  0  0  0  0  0  0  0  0  0
   21.4911   18.1034   22.2186 C   0  0  0  0  0  0  0  0  0  0  0  0
   21.4194   17.0609   21.8801 H   0  0  0  0  0  0  0  0  0  0  0  0
   22.1172   18.6306   21.4856 H   0  0  0  0  0  0  0  0  0  0  0  0
   22.1740   18.1493   23.5994 C   0  0  0  0  0  0  0  0  0  0  0  0
   21.5877   17.5963   24.3449 H   0  0  0  0  0  0  0  0  0  0  0  0
   23.1751   17.7014   23.5528 H   0  0  0  0  0  0  0  0  0  0  0  0
   22.2801   19.1852   23.9476 H   0  0  0  0  0  0  0  0  0  0  0  0
  1  2  1  0  0  0  0
  1  3  2  0  0  0  0
  1  4  1  0  0  0  0
  4  5  1  0  0  0  0
  4  6  1  0  0  0  0
  4  7  1  0  0  0  0
  7  8  1  0  0  0  0
  7  9  2  0  0  0  0
  9 10  1  0  0  0  0
  9 11  1  0  0  0  0
 11 12  1  0  0  0  0
 11 13  1  0  0  0  0
 11 14  1  0  0  0  0
 14 15  1  0  0  0  0
 14 16  1  0  0  0  0
 14 17  1  0  0  0  0
M  END
> <VConfSearch Rank>
77

> <Conf_Id>
35

> <Delta U+W>
-0.102

> <U+W>
-49.529

> <U>
13.666

> <W>
-63.195

> <W(PB)>
-65.299

> <W(SA)>
2.103

> <Valence>
15.226

> <Coulomb>
-1.822

> <VdW>
0.261

> <VdW6>
-4.165

> <VdW12>
4.426

> <Bond>
0.044

> <Angle>
2.229

> <Pdih>
12.953

> <Idih>
0.000

> <Tether>
0.000

$$$$
VeraChem MOL file


 17 16  0  0  0  0  0  0  0  0999 V2000     
   19.8455   20.9025   24.5080 C   0  0  0  0  0  0  0  0  0  0  0  0
   18.7403   21.4058   24.4621 O   0  5  0  0  0  0  0  0  0  0  0  0
   20.3297   20.4356   25.5202 O   0  0  0  0  0  0  0  0  0  0  0  0
   20.6708   20.8642   23.2285 C   0  0  0  0  0  0  0  0  0  0  0  0
   21.7299   20.7991   23.5054 H   0  0  0  0  0  0  0  0  0  0  0  0
   20.5328   21.8214   22.7125 H   0  0  0  0  0  0  0  0  0  0  0  0
   20.2742   19.7190   22.3160 C   0  0  0  0  0  0  0  0  0  0  0  0
   19.2813   19.8094   21.8789 H   0  0  0  0  0  0  0  0  0  0  0  0
   21.0586   18.6658   22.0548 C   0  0  0  0  0  0  0  0  0  0  0  0
   22.0448   18.6078   22.5143 H   0  0  0  0  0  0  0  0  0  0  0  0
   20.7249   17.4862   21.1572 C   0  0  0  0  0  0  0  0  0  0  0  0
   21.4884   17.4088   20.3713 H   0  0  0  0  0  0  0  0  0  0  0  0
   20.8076   16.5595   21.7412 H   0  0  0  0  0  0  0  0  0  0  0  0
   19.3288   17.5423   20.4986 C   0  0  0  0  0  0  0  0  0  0  0  0
   19.2291   18.4309   19.8617 H   0  0  0  0  0  0  0  0  0  0  0  0
   19.1642   16.6578   19.8696 H   0  0  0  0  0  0  0  0  0  0  0  0
   18.5360   17.5671   21.2577 H   0  0  0  0  0  0  0  0  0  0  0  0
  1  2  1  0  0  0  0
  1  3  2  0  0  0  0
  1  4  1  0  0  0  0
  4  5  1  0  0  0  0
  4  6  1  0  0  0  0
  4  7  1  0  0  0  0
  7  8  1  0  0  0  0
  7  9  2  0  0  0  0
  9 10  1  0  0  0  0
  9 11  1  0  0  0  0
 11 12  1  0  0  0  0
 11 13  1  0  0  0  0
 11 14  1  0  0  0  0
 14 15  1  0  0  0  0
 14 16  1  0  0  0  0
 14 17  1  0  0  0  0
M  END
> <VConfSearch Rank>
78

> <Conf_Id>
19

> <Delta U+W>
-0.496

> <U+W>
-49.923

> <U>
13.863

> <W>
-63.786

> <W(PB)>
-65.856

> <W(SA)>
2.070

> <Valence>
14.117

> <Coulomb>
-1.228

> <VdW>
0.974

> <VdW6>
-4.885

> <VdW12>
5.859

> <Bond>
0.094

> <Angle>
2.818

> <Pdih>
11.205

> <Idih>
0.000

> <Tether>
0.000

$$$$
VeraChem MOL file


 17 16  0  0  0  0  0  0  0  0999 V2000     
   18.2824   16.8782   21.6437 C   0  0  0  0  0  0  0  0  0  0  0  0
   19.0041   16.0455   21.1311 O   0  5  0  0  0  0  0  0  0  0  0  0
   17.4708   16.6215   22.5110 O   0  0  0  0  0  0  0  0  0  0  0  0
   18.3918   18.3207   21.1672 C   0  0  0  0  0  0  0  0  0  0  0  0
   17.3756   18.7222   21.0799 H   0  0  0  0  0  0  0  0  0  0  0  0
   18.8232   18.3173   20.1590 H   0  0  0  0  0  0  0  0  0  0  0  0
   19.2133   19.1822   22.1072 C   0  0  0  0  0  0  0  0  0  0  0  0
   18.7667   19.3597   23.0851 H   0  0  0  0  0  0  0  0  0  0  0  0
   20.4070   19.6997   21.8018 C   0  0  0  0  0  0  0  0  0  0  0  0
   20.8554   19.5176   20.8256 H   0  0  0  0  0  0  0  0  0  0  0  0
   21.2259   20.5561   22.7416 C   0  0  0  0  0  0  0  0  0  0  0  0
   21.5728   21.4562   22.2163 H   0  0  0  0  0  0  0  0  0  0  0  0
   20.6096   20.9002   23.5837 H   0  0  0  0  0  0  0  0  0  0  0  0
   22.4403   19.7773   23.2836 C   0  0  0  0  0  0  0  0  0  0  0  0
   23.0956   19.4539   22.4642 H   0  0  0  0  0  0  0  0  0  0  0  0
   23.0307   20.4032   23.9653 H   0  0  0  0  0  0  0  0  0  0  0  0
   22.1163   18.8846   23.8347 H   0  0  0  0  0  0  0  0  0  0  0  0
  1  2  1  0  0  0  0
  1  3  2  0  0  0  0
  1  4  1  0  0  0  0
  4  5  1  0  0  0  0
  4  6  1  0  0  0  0
  4  7  1  0  0  0  0
  7  8  1  0  0  0  0
  7  9  2  0  0  0  0
  9 10  1  0  0  0  0
  9 11  1  0  0  0  0
 11 12  1  0  0  0  0
 11 13  1  0  0  0  0
 11 14  1  0  0  0  0
 14 15  1  0  0  0  0
 14 16  1  0  0  0  0
 14 17  1  0  0  0  0
M  END
> <VConfSearch Rank>
79

> <Conf_Id>
7

> <Delta U+W>
-0.041

> <U+W>
-49.468

> <U>
14.121

> <W>
-63.589

> <W(PB)>
-65.660

> <W(SA)>
2.071

> <Valence>
15.230

> <Coulomb>
-1.333

> <VdW>
0.224

> <VdW6>
-4.212

> <VdW12>
4.436

> <Bond>
0.044

> <Angle>
2.230

> <Pdih>
12.956

> <Idih>
0.000

> <Tether>
0.000

$$$$
VeraChem MOL file


 17 16  0  0  0  0  0  0  0  0999 V2000     
   22.3252   20.9362   22.0661 C   0  0  0  0  0  0  0  0  0  0  0  0
   22.7785   20.5913   20.9925 O   0  5  0  0  0  0  0  0  0  0  0  0
   22.9758   20.9622   23.0923 O   0  0  0  0  0  0  0  0  0  0  0  0
   20.8690   21.3874   22.1235 C   0  0  0  0  0  0  0  0  0  0  0  0
   20.6241   21.8563   21.1633 H   0  0  0  0  0  0  0  0  0  0  0  0
   20.7931   22.1820   22.8749 H   0  0  0  0  0  0  0  0  0  0  0  0
   19.8544   20.2953   22.4313 C   0  0  0  0  0  0  0  0  0  0  0  0
   18.8213   20.6389   22.4676 H   0  0  0  0  0  0  0  0  0  0  0  0
   20.1301   19.0038   22.6478 C   0  0  0  0  0  0  0  0  0  0  0  0
   21.1543   18.6340   22.6163 H   0  0  0  0  0  0  0  0  0  0  0  0
   19.0821   17.9563   22.9520 C   0  0  0  0  0  0  0  0  0  0  0  0
   19.3952   17.3601   23.8198 H   0  0  0  0  0  0  0  0  0  0  0  0
   18.1296   18.4319   23.2238 H   0  0  0  0  0  0  0  0  0  0  0  0
   18.8611   17.0268   21.7428 C   0  0  0  0  0  0  0  0  0  0  0  0
   18.1009   16.2681   21.9696 H   0  0  0  0  0  0  0  0  0  0  0  0
   18.5223   17.5983   20.8687 H   0  0  0  0  0  0  0  0  0  0  0  0
   19.7904   16.5081   21.4728 H   0  0  0  0  0  0  0  0  0  0  0  0
  1  2  1  0  0  0  0
  1  3  2  0  0  0  0
  1  4  1  0  0  0  0
  4  5  1  0  0  0  0
  4  6  1  0  0  0  0
  4  7  1  0  0  0  0
  7  8  1  0  0  0  0
  7  9  2  0  0  0  0
  9 10  1  0  0  0  0
  9 11  1  0  0  0  0
 11 12  1  0  0  0  0
 11 13  1  0  0  0  0
 11 14  1  0  0  0  0
 14 15  1  0  0  0  0
 14 16  1  0  0  0  0
 14 17  1  0  0  0  0
M  END
> <VConfSearch Rank>
80

> <Conf_Id>
39

> <Delta U+W>
-0.422

> <U+W>
-49.849

> <U>
14.465

> <W>
-64.314

> <W(PB)>
-66.406

> <W(SA)>
2.093

> <Valence>
14.072

> <Coulomb>
-0.199

> <VdW>
0.592

> <VdW6>
-5.019

> <VdW12>
5.611

> <Bond>
0.085

> <Angle>
2.748

> <Pdih>
11.238

> <Idih>
0.001

> <Tether>
0.000

$$$$
VeraChem MOL file


 17 16  0  0  0  0  0  0  0  0999 V2000     
   19.7637   16.9974   19.9337 C   0  0  0  0  0  0  0  0  0  0  0  0
   19.2190   17.3161   18.8951 O   0  5  0  0  0  0  0  0  0  0  0  0
   19.5704   15.9375   20.4961 O   0  0  0  0  0  0  0  0  0  0  0  0
   20.7455   17.9788   20.5600 C   0  0  0  0  0  0  0  0  0  0  0  0
   21.3420   18.4177   19.7518 H   0  0  0  0  0  0  0  0  0  0  0  0
   21.4360   17.4136   21.1976 H   0  0  0  0  0  0  0  0  0  0  0  0
   20.0504   19.0730   21.3476 C   0  0  0  0  0  0  0  0  0  0  0  0
   19.4702   19.7775   20.7524 H   0  0  0  0  0  0  0  0  0  0  0  0
   20.1161   19.1994   22.6765 C   0  0  0  0  0  0  0  0  0  0  0  0
   20.6940   18.4929   23.2713 H   0  0  0  0  0  0  0  0  0  0  0  0
   19.4192   20.2890   23.4605 C   0  0  0  0  0  0  0  0  0  0  0  0
   18.6663   20.7900   22.8365 H   0  0  0  0  0  0  0  0  0  0  0  0
   18.8811   19.8478   24.3104 H   0  0  0  0  0  0  0  0  0  0  0  0
   20.4292   21.3319   23.9773 C   0  0  0  0  0  0  0  0  0  0  0  0
   20.9621   21.8058   23.1424 H   0  0  0  0  0  0  0  0  0  0  0  0
   19.9178   22.1195   24.5459 H   0  0  0  0  0  0  0  0  0  0  0  0
   21.1727   20.8643   24.6361 H   0  0  0  0  0  0  0  0  0  0  0  0
  1  2  1  0  0  0  0
  1  3  2  0  0  0  0
  1  4  1  0  0  0  0
  4  5  1  0  0  0  0
  4  6  1  0  0  0  0
  4  7  1  0  0  0  0
  7  8  1  0  0  0  0
  7  9  2  0  0  0  0
  9 10  1  0  0  0  0
  9 11  1  0  0  0  0
 11 12  1  0  0  0  0
 11 13  1  0  0  0  0
 11 14  1  0  0  0  0
 14 15  1  0  0  0  0
 14 16  1  0  0  0  0
 14 17  1  0  0  0  0
M  END
> <VConfSearch Rank>
81

> <Conf_Id>
38

> <Delta U+W>
0.000

> <U+W>
-49.427

> <U>
13.666

> <W>
-63.093

> <W(PB)>
-65.225

> <W(SA)>
2.132

> <Valence>
15.226

> <Coulomb>
-1.822

> <VdW>
0.261

> <VdW6>
-4.165

> <VdW12>
4.426

> <Bond>
0.044

> <Angle>
2.229

> <Pdih>
12.953

> <Idih>
0.000

> <Tether>
0.000

$$$$
VeraChem MOL file


 17 16  0  0  0  0  0  0  0  0999 V2000     
   20.4506   21.4464   24.3715 C   0  0  0  0  0  0  0  0  0  0  0  0
   21.6039   21.8295   24.3728 O   0  5  0  0  0  0  0  0  0  0  0  0
   19.7919   21.2944   25.3815 O   0  0  0  0  0  0  0  0  0  0  0  0
   19.7913   21.1448   23.0322 C   0  0  0  0  0  0  0  0  0  0  0  0
   20.3190   21.7105   22.2549 H   0  0  0  0  0  0  0  0  0  0  0  0
   18.7659   21.5306   23.0692 H   0  0  0  0  0  0  0  0  0  0  0  0
   19.7786   19.6623   22.7117 C   0  0  0  0  0  0  0  0  0  0  0  0
   19.1394   19.0538   23.3506 H   0  0  0  0  0  0  0  0  0  0  0  0
   20.4872   19.1006   21.7275 C   0  0  0  0  0  0  0  0  0  0  0  0
   21.1287   19.7092   21.0910 H   0  0  0  0  0  0  0  0  0  0  0  0
   20.4764   17.6215   21.4119 C   0  0  0  0  0  0  0  0  0  0  0  0
   21.5074   17.2573   21.3073 H   0  0  0  0  0  0  0  0  0  0  0  0
   20.0243   17.0555   22.2379 H   0  0  0  0  0  0  0  0  0  0  0  0
   19.6973   17.3381   20.1128 C   0  0  0  0  0  0  0  0  0  0  0  0
   20.1513   17.8621   19.2615 H   0  0  0  0  0  0  0  0  0  0  0  0
   19.6935   16.2635   19.8886 H   0  0  0  0  0  0  0  0  0  0  0  0
   18.6548   17.6710   20.2029 H   0  0  0  0  0  0  0  0  0  0  0  0
  1  2  1  0  0  0  0
  1  3  2  0  0  0  0
  1  4  1  0  0  0  0
  4  5  1  0  0  0  0
  4  6  1  0  0  0  0
  4  7  1  0  0  0  0
  7  8  1  0  0  0  0
  7  9  2  0  0  0  0
  9 10  1  0  0  0  0
  9 11  1  0  0  0  0
 11 12  1  0  0  0  0
 11 13  1  0  0  0  0
 11 14  1  0  0  0  0
 14 15  1  0  0  0  0
 14 16  1  0  0  0  0
 14 17  1  0  0  0  0
M  END
> <VConfSearch Rank>
82

> <Conf_Id>
35

> <Delta U+W>
-0.102

> <U+W>
-49.529

> <U>
13.666

> <W>
-63.195

> <W(PB)>
-65.299

> <W(SA)>
2.103

> <Valence>
15.226

> <Coulomb>
-1.822

> <VdW>
0.261

> <VdW6>
-4.165

> <VdW12>
4.426

> <Bond>
0.044

> <Angle>
2.229

> <Pdih>
12.953

> <Idih>
0.000

> <Tether>
0.000

$$$$
VeraChem MOL file


 17 16  0  0  0  0  0  0  0  0999 V2000     
   17.7502   18.0253   23.4032 C   0  0  0  0  0  0  0  0  0  0  0  0
   17.7642   16.8108   23.3609 O   0  5  0  0  0  0  0  0  0  0  0  0
   17.4229   18.6597   24.3867 O   0  0  0  0  0  0  0  0  0  0  0  0
   18.1562   18.7920   22.1515 C   0  0  0  0  0  0  0  0  0  0  0  0
   17.6961   19.7865   22.1941 H   0  0  0  0  0  0  0  0  0  0  0  0
   17.7230   18.2754   21.2872 H   0  0  0  0  0  0  0  0  0  0  0  0
   19.6618   18.8939   21.9960 C   0  0  0  0  0  0  0  0  0  0  0  0
   20.1623   17.9492   21.7903 H   0  0  0  0  0  0  0  0  0  0  0  0
   20.3482   20.0385   22.1034 C   0  0  0  0  0  0  0  0  0  0  0  0
   19.8133   20.9639   22.3143 H   0  0  0  0  0  0  0  0  0  0  0  0
   21.8512   20.2119   21.9636 C   0  0  0  0  0  0  0  0  0  0  0  0
   22.0537   20.9391   21.1657 H   0  0  0  0  0  0  0  0  0  0  0  0
   22.2446   20.6658   22.8832 H   0  0  0  0  0  0  0  0  0  0  0  0
   22.6331   18.9125   21.6702 C   0  0  0  0  0  0  0  0  0  0  0  0
   22.3028   18.4583   20.7268 H   0  0  0  0  0  0  0  0  0  0  0  0
   23.7075   19.1207   21.5848 H   0  0  0  0  0  0  0  0  0  0  0  0
   22.4958   18.1797   22.4763 H   0  0  0  0  0  0  0  0  0  0  0  0
  1  2  1  0  0  0  0
  1  3  2  0  0  0  0
  1  4  1  0  0  0  0
  4  5  1  0  0  0  0
  4  6  1  0  0  0  0
  4  7  1  0  0  0  0
  7  8  1  0  0  0  0
  7  9  2  0  0  0  0
  9 10  1  0  0  0  0
  9 11  1  0  0  0  0
 11 12  1  0  0  0  0
 11 13  1  0  0  0  0
 11 14  1  0  0  0  0
 14 15  1  0  0  0  0
 14 16  1  0  0  0  0
 14 17  1  0  0  0  0
M  END
> <VConfSearch Rank>
83

> <Conf_Id>
19

> <Delta U+W>
-0.496

> <U+W>
-49.923

> <U>
13.863

> <W>
-63.786

> <W(PB)>
-65.856

> <W(SA)>
2.070

> <Valence>
14.117

> <Coulomb>
-1.228

> <VdW>
0.974

> <VdW6>
-4.885

> <VdW12>
5.859

> <Bond>
0.094

> <Angle>
2.818

> <Pdih>
11.205

> <Idih>
0.000

> <Tether>
0.000

$$$$
VeraChem MOL file


 17 16  0  0  0  0  0  0  0  0999 V2000     
   22.0344   21.3135   22.0123 C   0  0  0  0  0  0  0  0  0  0  0  0
   22.8229   20.9185   21.1762 O   0  5  0  0  0  0  0  0  0  0  0  0
   21.5469   22.4267   22.0035 O   0  0  0  0  0  0  0  0  0  0  0  0
   21.6426   20.3673   23.1397 C   0  0  0  0  0  0  0  0  0  0  0  0
   21.6221   20.9460   24.0704 H   0  0  0  0  0  0  0  0  0  0  0  0
   22.4334   19.6151   23.2469 H   0  0  0  0  0  0  0  0  0  0  0  0
   20.2957   19.7104   22.9050 C   0  0  0  0  0  0  0  0  0  0  0  0
   19.4383   20.3818   22.9411 H   0  0  0  0  0  0  0  0  0  0  0  0
   20.1280   18.4073   22.6602 C   0  0  0  0  0  0  0  0  0  0  0  0
   20.9861   17.7373   22.6191 H   0  0  0  0  0  0  0  0  0  0  0  0
   18.7842   17.7547   22.4235 C   0  0  0  0  0  0  0  0  0  0  0  0
   18.6964   16.8514   23.0422 H   0  0  0  0  0  0  0  0  0  0  0  0
   17.9711   18.4272   22.7299 H   0  0  0  0  0  0  0  0  0  0  0  0
   18.6045   17.3806   20.9394 C   0  0  0  0  0  0  0  0  0  0  0  0
   19.3829   16.6773   20.6157 H   0  0  0  0  0  0  0  0  0  0  0  0
   17.6278   16.9080   20.7732 H   0  0  0  0  0  0  0  0  0  0  0  0
   18.6641   18.2732   20.3026 H   0  0  0  0  0  0  0  0  0  0  0  0
  1  2  1  0  0  0  0
  1  3  2  0  0  0  0
  1  4  1  0  0  0  0
  4  5  1  0  0  0  0
  4  6  1  0  0  0  0
  4  7  1  0  0  0  0
  7  8  1  0  0  0  0
  7  9  2  0  0  0  0
  9 10  1  0  0  0  0
  9 11  1  0  0  0  0
 11 12  1  0  0  0  0
 11 13  1  0  0  0  0
 11 14  1  0  0  0  0
 14 15  1  0  0  0  0
 14 16  1  0  0  0  0
 14 17  1  0  0  0  0
M  END
> <VConfSearch Rank>
84

> <Conf_Id>
7

> <Delta U+W>
-0.041

> <U+W>
-49.468

> <U>
14.121

> <W>
-63.589

> <W(PB)>
-65.660

> <W(SA)>
2.071

> <Valence>
15.230

> <Coulomb>
-1.333

> <VdW>
0.224

> <VdW6>
-4.212

> <VdW12>
4.436

> <Bond>
0.044

> <Angle>
2.230

> <Pdih>
12.956

> <Idih>
0.000

> <Tether>
0.000

$$$$
VeraChem MOL file


 17 16  0  0  0  0  0  0  0  0999 V2000     
   21.0606   21.4197   20.7995 C   0  0  0  0  0  0  0  0  0  0  0  0
   20.4685   21.2564   19.7509 O   0  5  0  0  0  0  0  0  0  0  0  0
   22.2676   21.5394   20.8773 O   0  0  0  0  0  0  0  0  0  0  0  0
   20.2427   21.5072   22.0844 C   0  0  0  0  0  0  0  0  0  0  0  0
   19.2754   21.9600   21.8371 H   0  0  0  0  0  0  0  0  0  0  0  0
   20.7444   22.2152   22.7542 H   0  0  0  0  0  0  0  0  0  0  0  0
   20.0178   20.1888   22.8112 C   0  0  0  0  0  0  0  0  0  0  0  0
   19.4319   20.2739   23.7256 H   0  0  0  0  0  0  0  0  0  0  0  0
   20.4667   18.9896   22.4222 C   0  0  0  0  0  0  0  0  0  0  0  0
   21.0539   18.8767   21.5117 H   0  0  0  0  0  0  0  0  0  0  0  0
   20.2160   17.7068   23.1835 C   0  0  0  0  0  0  0  0  0  0  0  0
   21.1575   17.1522   23.2951 H   0  0  0  0  0  0  0  0  0  0  0  0
   19.8568   17.9252   24.1986 H   0  0  0  0  0  0  0  0  0  0  0  0
   19.1831   16.8242   22.4560 C   0  0  0  0  0  0  0  0  0  0  0  0
   19.0062   15.8943   23.0120 H   0  0  0  0  0  0  0  0  0  0  0  0
   18.2240   17.3491   22.3554 H   0  0  0  0  0  0  0  0  0  0  0  0
   19.5344   16.5584   21.4504 H   0  0  0  0  0  0  0  0  0  0  0  0
  1  2  1  0  0  0  0
  1  3  2  0  0  0  0
  1  4  1  0  0  0  0
  4  5  1  0  0  0  0
  4  6  1  0  0  0  0
  4  7  1  0  0  0  0
  7  8  1  0  0  0  0
  7  9  2  0  0  0  0
  9 10  1  0  0  0  0
  9 11  1  0  0  0  0
 11 12  1  0  0  0  0
 11 13  1  0  0  0  0
 11 14  1  0  0  0  0
 14 15  1  0  0  0  0
 14 16  1  0  0  0  0
 14 17  1  0  0  0  0
M  END
> <VConfSearch Rank>
85

> <Conf_Id>
39

> <Delta U+W>
-0.422

> <U+W>
-49.849

> <U>
14.465

> <W>
-64.314

> <W(PB)>
-66.406

> <W(SA)>
2.093

> <Valence>
14.072

> <Coulomb>
-0.199

> <VdW>
0.592

> <VdW6>
-5.019

> <VdW12>
5.611

> <Bond>
0.085

> <Angle>
2.748

> <Pdih>
11.238

> <Idih>
0.001

> <Tether>
0.000

$$$$
VeraChem MOL file


 17 16  0  0  0  0  0  0  0  0999 V2000     
   20.8180   21.5200   19.9915 C   0  0  0  0  0  0  0  0  0  0  0  0
   19.9232   22.2864   19.6931 O   0  5  0  0  0  0  0  0  0  0  0  0
   21.6162   21.0745   19.1907 O   0  0  0  0  0  0  0  0  0  0  0  0
   20.9474   21.1005   21.4499 C   0  0  0  0  0  0  0  0  0  0  0  0
   20.7676   21.9860   22.0703 H   0  0  0  0  0  0  0  0  0  0  0  0
   21.9842   20.7900   21.6268 H   0  0  0  0  0  0  0  0  0  0  0  0
   19.9776   19.9961   21.8249 C   0  0  0  0  0  0  0  0  0  0  0  0
   18.9262   20.2818   21.8282 H   0  0  0  0  0  0  0  0  0  0  0  0
   20.3433   18.7482   22.1334 C   0  0  0  0  0  0  0  0  0  0  0  0
   21.3946   18.4624   22.1270 H   0  0  0  0  0  0  0  0  0  0  0  0
   19.3746   17.6473   22.5034 C   0  0  0  0  0  0  0  0  0  0  0  0
   18.3474   17.9344   22.2395 H   0  0  0  0  0  0  0  0  0  0  0  0
   19.6062   16.7408   21.9280 H   0  0  0  0  0  0  0  0  0  0  0  0
   19.4447   17.3312   24.0102 C   0  0  0  0  0  0  0  0  0  0  0  0
   19.1913   18.2175   24.6067 H   0  0  0  0  0  0  0  0  0  0  0  0
   18.7401   16.5313   24.2725 H   0  0  0  0  0  0  0  0  0  0  0  0
   20.4531   17.0039   24.2953 H   0  0  0  0  0  0  0  0  0  0  0  0
  1  2  1  0  0  0  0
  1  3  2  0  0  0  0
  1  4  1  0  0  0  0
  4  5  1  0  0  0  0
  4  6  1  0  0  0  0
  4  7  1  0  0  0  0
  7  8  1  0  0  0  0
  7  9  2  0  0  0  0
  9 10  1  0  0  0  0
  9 11  1  0  0  0  0
 11 12  1  0  0  0  0
 11 13  1  0  0  0  0
 11 14  1  0  0  0  0
 14 15  1  0  0  0  0
 14 16  1  0  0  0  0
 14 17  1  0  0  0  0
M  END
> <VConfSearch Rank>
86

> <Conf_Id>
38

> <Delta U+W>
0.000

> <U+W>
-49.427

> <U>
13.666

> <W>
-63.093

> <W(PB)>
-65.225

> <W(SA)>
2.132

> <Valence>
15.226

> <Coulomb>
-1.822

> <VdW>
0.261

> <VdW6>
-4.165

> <VdW12>
4.426

> <Bond>
0.044

> <Angle>
2.229

> <Pdih>
12.953

> <Idih>
0.000

> <Tether>
0.000

$$$$
VeraChem MOL file


 17 16  0  0  0  0  0  0  0  0999 V2000     
   19.4063   21.8324   20.3796 C   0  0  0  0  0  0  0  0  0  0  0  0
   20.3797   22.5592   20.3474 O   0  5  0  0  0  0  0  0  0  0  0  0
   18.2637   22.2418   20.4427 O   0  0  0  0  0  0  0  0  0  0  0  0
   19.6277   20.3263   20.3332 C   0  0  0  0  0  0  0  0  0  0  0  0
   20.6005   20.1368   19.8636 H   0  0  0  0  0  0  0  0  0  0  0  0
   18.8645   19.8957   19.6747 H   0  0  0  0  0  0  0  0  0  0  0  0
   19.5527   19.6855   21.7060 C   0  0  0  0  0  0  0  0  0  0  0  0
   18.5666   19.6928   22.1694 H   0  0  0  0  0  0  0  0  0  0  0  0
   20.5967   19.1420   22.3392 C   0  0  0  0  0  0  0  0  0  0  0  0
   21.5831   19.1380   21.8766 H   0  0  0  0  0  0  0  0  0  0  0  0
   20.5209   18.5071   23.7098 C   0  0  0  0  0  0  0  0  0  0  0  0
   21.3322   18.8923   24.3422 H   0  0  0  0  0  0  0  0  0  0  0  0
   19.5787   18.7766   24.2067 H   0  0  0  0  0  0  0  0  0  0  0  0
   20.6272   16.9725   23.6159 C   0  0  0  0  0  0  0  0  0  0  0  0
   21.5786   16.6731   23.1569 H   0  0  0  0  0  0  0  0  0  0  0  0
   20.5723   16.5175   24.6134 H   0  0  0  0  0  0  0  0  0  0  0  0
   19.8101   16.5615   23.0085 H   0  0  0  0  0  0  0  0  0  0  0  0
  1  2  1  0  0  0  0
  1  3  2  0  0  0  0
  1  4  1  0  0  0  0
  4  5  1  0  0  0  0
  4  6  1  0  0  0  0
  4  7  1  0  0  0  0
  7  8  1  0  0  0  0
  7  9  2  0  0  0  0
  9 10  1  0  0  0  0
  9 11  1  0  0  0  0
 11 12  1  0  0  0  0
 11 13  1  0  0  0  0
 11 14  1  0  0  0  0
 14 15  1  0  0  0  0
 14 16  1  0  0  0  0
 14 17  1  0  0  0  0
M  END
> <VConfSearch Rank>
87

> <Conf_Id>
35

> <Delta U+W>
-0.102

> <U+W>
-49.529

> <U>
13.666

> <W>
-63.195

> <W(PB)>
-65.299

> <W(SA)>
2.103

> <Valence>
15.226

> <Coulomb>
-1.822

> <VdW>
0.261

> <VdW6>
-4.165

> <VdW12>
4.426

> <Bond>
0.044

> <Angle>
2.229

> <Pdih>
12.953

> <Idih>
0.000

> <Tether>
0.000

$$$$
VeraChem MOL file


 17 16  0  0  0  0  0  0  0  0999 V2000     
   21.0665   20.8483   24.4247 C   0  0  0  0  0  0  0  0  0  0  0  0
   22.2118   21.2152   24.2494 O   0  5  0  0  0  0  0  0  0  0  0  0
   20.1685   21.5906   24.7701 O   0  0  0  0  0  0  0  0  0  0  0  0
   20.7433   19.3757   24.2084 C   0  0  0  0  0  0  0  0  0  0  0  0
   19.8497   19.1310   24.7951 H   0  0  0  0  0  0  0  0  0  0  0  0
   21.5698   18.7872   24.6231 H   0  0  0  0  0  0  0  0  0  0  0  0
   20.5446   19.0341   22.7438 C   0  0  0  0  0  0  0  0  0  0  0  0
   21.4440   19.1052   22.1346 H   0  0  0  0  0  0  0  0  0  0  0  0
   19.3686   18.6763   22.2129 C   0  0  0  0  0  0  0  0  0  0  0  0
   18.4889   18.6203   22.8532 H   0  0  0  0  0  0  0  0  0  0  0  0
   19.0981   18.3256   20.7595 C   0  0  0  0  0  0  0  0  0  0  0  0
   18.6756   17.3129   20.7096 H   0  0  0  0  0  0  0  0  0  0  0  0
   18.3150   18.9914   20.3722 H   0  0  0  0  0  0  0  0  0  0  0  0
   20.3292   18.4036   19.8298 C   0  0  0  0  0  0  0  0  0  0  0  0
   21.1141   17.7089   20.1563 H   0  0  0  0  0  0  0  0  0  0  0  0
   20.0521   18.1382   18.8013 H   0  0  0  0  0  0  0  0  0  0  0  0
   20.7471   19.4188   19.8140 H   0  0  0  0  0  0  0  0  0  0  0  0
  1  2  1  0  0  0  0
  1  3  2  0  0  0  0
  1  4  1  0  0  0  0
  4  5  1  0  0  0  0
  4  6  1  0  0  0  0
  4  7  1  0  0  0  0
  7  8  1  0  0  0  0
  7  9  2  0  0  0  0
  9 10  1  0  0  0  0
  9 11  1  0  0  0  0
 11 12  1  0  0  0  0
 11 13  1  0  0  0  0
 11 14  1  0  0  0  0
 14 15  1  0  0  0  0
 14 16  1  0  0  0  0
 14 17  1  0  0  0  0
M  END
> <VConfSearch Rank>
88

> <Conf_Id>
19

> <Delta U+W>
-0.496

> <U+W>
-49.923

> <U>
13.863

> <W>
-63.786

> <W(PB)>
-65.856

> <W(SA)>
2.070

> <Valence>
14.117

> <Coulomb>
-1.228

> <VdW>
0.974

> <VdW6>
-4.885

> <VdW12>
5.859

> <Bond>
0.094

> <Angle>
2.818

> <Pdih>
11.205

> <Idih>
0.000

> <Tether>
0.000

$$$$
VeraChem MOL file


 17 16  0  0  0  0  0  0  0  0999 V2000     
   18.4607   16.6838   22.4810 C   0  0  0  0  0  0  0  0  0  0  0  0
   17.3436   17.1490   22.3693 O   0  5  0  0  0  0  0  0  0  0  0  0
   18.8336   15.6841   21.8991 O   0  0  0  0  0  0  0  0  0  0  0  0
   19.4455   17.3839   23.4083 C   0  0  0  0  0  0  0  0  0  0  0  0
   19.9833   16.6114   23.9700 H   0  0  0  0  0  0  0  0  0  0  0  0
   18.8731   17.9705   24.1370 H   0  0  0  0  0  0  0  0  0  0  0  0
   20.4285   18.2609   22.6564 C   0  0  0  0  0  0  0  0  0  0  0  0
   21.1391   17.7277   22.0255 H   0  0  0  0  0  0  0  0  0  0  0  0
   20.4515   19.5953   22.7274 C   0  0  0  0  0  0  0  0  0  0  0  0
   19.7374   20.1282   23.3544 H   0  0  0  0  0  0  0  0  0  0  0  0
   21.4307   20.4680   21.9745 C   0  0  0  0  0  0  0  0  0  0  0  0
   21.8744   21.2036   22.6590 H   0  0  0  0  0  0  0  0  0  0  0  0
   22.2596   19.8640   21.5802 H   0  0  0  0  0  0  0  0  0  0  0  0
   20.7364   21.2021   20.8109 C   0  0  0  0  0  0  0  0  0  0  0  0
   19.9267   21.8448   21.1807 H   0  0  0  0  0  0  0  0  0  0  0  0
   21.4515   21.8335   20.2677 H   0  0  0  0  0  0  0  0  0  0  0  0
   20.3058   20.4851   20.0994 H   0  0  0  0  0  0  0  0  0  0  0  0
  1  2  1  0  0  0  0
  1  3  2  0  0  0  0
  1  4  1  0  0  0  0
  4  5  1  0  0  0  0
  4  6  1  0  0  0  0
  4  7  1  0  0  0  0
  7  8  1  0  0  0  0
  7  9  2  0  0  0  0
  9 10  1  0  0  0  0
  9 11  1  0  0  0  0
 11 12  1  0  0  0  0
 11 13  1  0  0  0  0
 11 14  1  0  0  0  0
 14 15  1  0  0  0  0
 14 16  1  0  0  0  0
 14 17  1  0  0  0  0
M  END
> <VConfSearch Rank>
89

> <Conf_Id>
7

> <Delta U+W>
-0.041

> <U+W>
-49.468

> <U>
14.121

> <W>
-63.589

> <W(PB)>
-65.660

> <W(SA)>
2.071

> <Valence>
15.230

> <Coulomb>
-1.333

> <VdW>
0.224

> <VdW6>
-4.212

> <VdW12>
4.436

> <Bond>
0.044

> <Angle>
2.230

> <Pdih>
12.956

> <Idih>
0.000

> <Tether>
0.000

$$$$
VeraChem MOL file


 17 16  0  0  0  0  0  0  0  0999 V2000     
   22.6157   19.3403   23.4674 C   0  0  0  0  0  0  0  0  0  0  0  0
   22.9628   20.4772   23.2146 O   0  5  0  0  0  0  0  0  0  0  0  0
   23.2815   18.3597   23.1987 O   0  0  0  0  0  0  0  0  0  0  0  0
   21.2855   19.1345   24.1855 C   0  0  0  0  0  0  0  0  0  0  0  0
   21.1201   19.9975   24.8410 H   0  0  0  0  0  0  0  0  0  0  0  0
   21.3926   18.2684   24.8489 H   0  0  0  0  0  0  0  0  0  0  0  0
   20.0750   18.9397   23.2835 C   0  0  0  0  0  0  0  0  0  0  0  0
   19.1361   18.7945   23.8163 H   0  0  0  0  0  0  0  0  0  0  0  0
   20.0835   18.9369   21.9452 C   0  0  0  0  0  0  0  0  0  0  0  0
   21.0085   19.0808   21.3880 H   0  0  0  0  0  0  0  0  0  0  0  0
   18.8496   18.7370   21.0936 C   0  0  0  0  0  0  0  0  0  0  0  0
   19.0533   17.9883   20.3161 H   0  0  0  0  0  0  0  0  0  0  0  0
   18.0223   18.3440   21.7004 H   0  0  0  0  0  0  0  0  0  0  0  0
   18.4135   20.0589   20.4320 C   0  0  0  0  0  0  0  0  0  0  0  0
   17.5187   19.9077   19.8143 H   0  0  0  0  0  0  0  0  0  0  0  0
   18.1794   20.8162   21.1917 H   0  0  0  0  0  0  0  0  0  0  0  0
   19.2093   20.4555   19.7880 H   0  0  0  0  0  0  0  0  0  0  0  0
  1  2  1  0  0  0  0
  1  3  2  0  0  0  0
  1  4  1  0  0  0  0
  4  5  1  0  0  0  0
  4  6  1  0  0  0  0
  4  7  1  0  0  0  0
  7  8  1  0  0  0  0
  7  9  2  0  0  0  0
  9 10  1  0  0  0  0
  9 11  1  0  0  0  0
 11 12  1  0  0  0  0
 11 13  1  0  0  0  0
 11 14  1  0  0  0  0
 14 15  1  0  0  0  0
 14 16  1  0  0  0  0
 14 17  1  0  0  0  0
M  END
> <VConfSearch Rank>
90

> <Conf_Id>
39

> <Delta U+W>
-0.422

> <U+W>
-49.849

> <U>
14.465

> <W>
-64.314

> <W(PB)>
-66.406

> <W(SA)>
2.093

> <Valence>
14.072

> <Coulomb>
-0.199

> <VdW>
0.592

> <VdW6>
-5.019

> <VdW12>
5.611

> <Bond>
0.085

> <Angle>
2.748

> <Pdih>
11.238

> <Idih>
0.001

> <Tether>
0.000

$$$$
VeraChem MOL file


 17 16  0  0  0  0  0  0  0  0999 V2000     
   21.0465   17.0698   24.1745 C   0  0  0  0  0  0  0  0  0  0  0  0
   20.4112   16.9898   25.2075 O   0  5  0  0  0  0  0  0  0  0  0  0
   22.2556   16.9613   24.1192 O   0  0  0  0  0  0  0  0  0  0  0  0
   20.2833   17.3140   22.8794 C   0  0  0  0  0  0  0  0  0  0  0  0
   19.3738   16.7028   22.9062 H   0  0  0  0  0  0  0  0  0  0  0  0
   20.8936   16.9444   22.0466 H   0  0  0  0  0  0  0  0  0  0  0  0
   19.9236   18.7745   22.6836 C   0  0  0  0  0  0  0  0  0  0  0  0
   19.1897   19.1707   23.3847 H   0  0  0  0  0  0  0  0  0  0  0  0
   20.4471   19.5562   21.7343 C   0  0  0  0  0  0  0  0  0  0  0  0
   21.1832   19.1601   21.0355 H   0  0  0  0  0  0  0  0  0  0  0  0
   20.0901   21.0133   21.5430 C   0  0  0  0  0  0  0  0  0  0  0  0
   19.5557   21.3969   22.4230 H   0  0  0  0  0  0  0  0  0  0  0  0
   21.0072   21.6101   21.4462 H   0  0  0  0  0  0  0  0  0  0  0  0
   19.2151   21.2092   20.2895 C   0  0  0  0  0  0  0  0  0  0  0  0
   18.2792   20.6414   20.3747 H   0  0  0  0  0  0  0  0  0  0  0  0
   18.9599   22.2685   20.1556 H   0  0  0  0  0  0  0  0  0  0  0  0
   19.7408   20.8689   19.3877 H   0  0  0  0  0  0  0  0  0  0  0  0
  1  2  1  0  0  0  0
  1  3  2  0  0  0  0
  1  4  1  0  0  0  0
  4  5  1  0  0  0  0
  4  6  1  0  0  0  0
  4  7  1  0  0  0  0
  7  8  1  0  0  0  0
  7  9  2  0  0  0  0
  9 10  1  0  0  0  0
  9 11  1  0  0  0  0
 11 12  1  0  0  0  0
 11 13  1  0  0  0  0
 11 14  1  0  0  0  0
 14 15  1  0  0  0  0
 14 16  1  0  0  0  0
 14 17  1  0  0  0  0
M  END
> <VConfSearch Rank>
91

> <Conf_Id>
38

> <Delta U+W>
0.000

> <U+W>
-49.427

> <U>
13.666

> <W>
-63.093

> <W(PB)>
-65.225

> <W(SA)>
2.132

> <Valence>
15.226

> <Coulomb>
-1.822

> <VdW>
0.261

> <VdW6>
-4.165

> <VdW12>
4.426

> <Bond>
0.044

> <Angle>
2.229

> <Pdih>
12.953

> <Idih>
0.000

> <Tether>
0.000

$$$$
VeraChem MOL file


 17 16  0  0  0  0  0  0  0  0999 V2000     
   16.9611   18.7680   22.1537 C   0  0  0  0  0  0  0  0  0  0  0  0
   16.7414   17.6702   22.6264 O   0  5  0  0  0  0  0  0  0  0  0  0
   16.3208   19.2458   21.2380 O   0  0  0  0  0  0  0  0  0  0  0  0
   18.0969   19.5940   22.7432 C   0  0  0  0  0  0  0  0  0  0  0  0
   18.2759   19.2488   23.7686 H   0  0  0  0  0  0  0  0  0  0  0  0
   17.7556   20.6335   22.8098 H   0  0  0  0  0  0  0  0  0  0  0  0
   19.3643   19.5142   21.9137 C   0  0  0  0  0  0  0  0  0  0  0  0
   19.3090   19.9864   20.9333 H   0  0  0  0  0  0  0  0  0  0  0  0
   20.4892   18.9153   22.3165 C   0  0  0  0  0  0  0  0  0  0  0  0
   20.5428   18.4406   23.2957 H   0  0  0  0  0  0  0  0  0  0  0  0
   21.7507   18.8333   21.4864 C   0  0  0  0  0  0  0  0  0  0  0  0
   22.1253   17.8007   21.4822 H   0  0  0  0  0  0  0  0  0  0  0  0
   21.5406   19.0967   20.4406 H   0  0  0  0  0  0  0  0  0  0  0  0
   22.8400   19.7726   22.0400 C   0  0  0  0  0  0  0  0  0  0  0  0
   23.0977   19.5072   23.0737 H   0  0  0  0  0  0  0  0  0  0  0  0
   23.7531   19.7082   21.4341 H   0  0  0  0  0  0  0  0  0  0  0  0
   22.4972   20.8157   22.0299 H   0  0  0  0  0  0  0  0  0  0  0  0
  1  2  1  0  0  0  0
  1  3  2  0  0  0  0
  1  4  1  0  0  0  0
  4  5  1  0  0  0  0
  4  6  1  0  0  0  0
  4  7  1  0  0  0  0
  7  8  1  0  0  0  0
  7  9  2  0  0  0  0
  9 10  1  0  0  0  0
  9 11  1  0  0  0  0
 11 12  1  0  0  0  0
 11 13  1  0  0  0  0
 11 14  1  0  0  0  0
 14 15  1  0  0  0  0
 14 16  1  0  0  0  0
 14 17  1  0  0  0  0
M  END
> <VConfSearch Rank>
92

> <Conf_Id>
35

> <Delta U+W>
-0.102

> <U+W>
-49.529

> <U>
13.666

> <W>
-63.195

> <W(PB)>
-65.299

> <W(SA)>
2.103

> <Valence>
15.226

> <Coulomb>
-1.822

> <VdW>
0.261

> <VdW6>
-4.165

> <VdW12>
4.426

> <Bond>
0.044

> <Angle>
2.229

> <Pdih>
12.953

> <Idih>
0.000

> <Tether>
0.000

$$$$
VeraChem MOL file


 17 16  0  0  0  0  0  0  0  0999 V2000     
   23.1061   19.6683   22.4642 C   0  0  0  0  0  0  0  0  0  0  0  0
   23.7362   18.6294   22.4399 O   0  5  0  0  0  0  0  0  0  0  0  0
   23.4208   20.6599   21.8359 O   0  0  0  0  0  0  0  0  0  0  0  0
   21.8600   19.7321   23.3375 C   0  0  0  0  0  0  0  0  0  0  0  0
   21.6717   20.7825   23.5902 H   0  0  0  0  0  0  0  0  0  0  0  0
   22.0821   19.2117   24.2763 H   0  0  0  0  0  0  0  0  0  0  0  0
   20.6502   19.1067   22.6693 C   0  0  0  0  0  0  0  0  0  0  0  0
   20.7124   18.0281   22.5349 H   0  0  0  0  0  0  0  0  0  0  0  0
   19.5800   19.8003   22.2615 C   0  0  0  0  0  0  0  0  0  0  0  0
   19.5554   20.8795   22.4090 H   0  0  0  0  0  0  0  0  0  0  0  0
   18.3400   19.2410   21.5845 C   0  0  0  0  0  0  0  0  0  0  0  0
   17.4571   19.5066   22.1816 H   0  0  0  0  0  0  0  0  0  0  0  0
   18.2045   19.7441   20.6175 H   0  0  0  0  0  0  0  0  0  0  0  0
   18.3535   17.7130   21.3586 C   0  0  0  0  0  0  0  0  0  0  0  0
   18.4334   17.1744   22.3119 H   0  0  0  0  0  0  0  0  0  0  0  0
   17.4277   17.3886   20.8660 H   0  0  0  0  0  0  0  0  0  0  0  0
   19.1958   17.4168   20.7195 H   0  0  0  0  0  0  0  0  0  0  0  0
  1  2  1  0  0  0  0
  1  3  2  0  0  0  0
  1  4  1  0  0  0  0
  4  5  1  0  0  0  0
  4  6  1  0  0  0  0
  4  7  1  0  0  0  0
  7  8  1  0  0  0  0
  7  9  2  0  0  0  0
  9 10  1  0  0  0  0
  9 11  1  0  0  0  0
 11 12  1  0  0  0  0
 11 13  1  0  0  0  0
 11 14  1  0  0  0  0
 14 15  1  0  0  0  0
 14 16  1  0  0  0  0
 14 17  1  0  0  0  0
M  END
> <VConfSearch Rank>
93

> <Conf_Id>
19

> <Delta U+W>
-0.496

> <U+W>
-49.923

> <U>
13.863

> <W>
-63.786

> <W(PB)>
-65.856

> <W(SA)>
2.070

> <Valence>
14.117

> <Coulomb>
-1.228

> <VdW>
0.974

> <VdW6>
-4.885

> <VdW12>
5.859

> <Bond>
0.094

> <Angle>
2.818

> <Pdih>
11.205

> <Idih>
0.000

> <Tether>
0.000

$$$$
VeraChem MOL file


 17 16  0  0  0  0  0  0  0  0999 V2000     
   20.0942   19.3020   25.1374 C   0  0  0  0  0  0  0  0  0  0  0  0
   20.3609   18.1713   25.4942 O   0  5  0  0  0  0  0  0  0  0  0  0
   20.6093   20.2954   25.6116 O   0  0  0  0  0  0  0  0  0  0  0  0
   19.0500   19.4872   24.0441 C   0  0  0  0  0  0  0  0  0  0  0  0
   18.4124   20.3317   24.3300 H   0  0  0  0  0  0  0  0  0  0  0  0
   18.4119   18.5955   24.0244 H   0  0  0  0  0  0  0  0  0  0  0  0
   19.6718   19.7409   22.6841 C   0  0  0  0  0  0  0  0  0  0  0  0
   20.1950   20.6912   22.5820 H   0  0  0  0  0  0  0  0  0  0  0  0
   19.6131   18.8846   21.6597 C   0  0  0  0  0  0  0  0  0  0  0  0
   19.0942   17.9322   21.7640 H   0  0  0  0  0  0  0  0  0  0  0  0
   20.2363   19.1383   20.3052 C   0  0  0  0  0  0  0  0  0  0  0  0
   19.5063   18.9197   19.5141 H   0  0  0  0  0  0  0  0  0  0  0  0
   20.5083   20.1975   20.1996 H   0  0  0  0  0  0  0  0  0  0  0  0
   21.4911   18.2670   20.1015 C   0  0  0  0  0  0  0  0  0  0  0  0
   21.2411   17.1997   20.1635 H   0  0  0  0  0  0  0  0  0  0  0  0
   21.9395   18.4554   19.1174 H   0  0  0  0  0  0  0  0  0  0  0  0
   22.2463   18.4863   20.8679 H   0  0  0  0  0  0  0  0  0  0  0  0
  1  2  1  0  0  0  0
  1  3  2  0  0  0  0
  1  4  1  0  0  0  0
  4  5  1  0  0  0  0
  4  6  1  0  0  0  0
  4  7  1  0  0  0  0
  7  8  1  0  0  0  0
  7  9  2  0  0  0  0
  9 10  1  0  0  0  0
  9 11  1  0  0  0  0
 11 12  1  0  0  0  0
 11 13  1  0  0  0  0
 11 14  1  0  0  0  0
 14 15  1  0  0  0  0
 14 16  1  0  0  0  0
 14 17  1  0  0  0  0
M  END
> <VConfSearch Rank>
94

> <Conf_Id>
7

> <Delta U+W>
-0.041

> <U+W>
-49.468

> <U>
14.121

> <W>
-63.589

> <W(PB)>
-65.660

> <W(SA)>
2.071

> <Valence>
15.230

> <Coulomb>
-1.333

> <VdW>
0.224

> <VdW6>
-4.212

> <VdW12>
4.436

> <Bond>
0.044

> <Angle>
2.230

> <Pdih>
12.956

> <Idih>
0.000

> <Tether>
0.000

$$$$
VeraChem MOL file


 17 16  0  0  0  0  0  0  0  0999 V2000     
   20.4152   16.5273   22.1792 C   0  0  0  0  0  0  0  0  0  0  0  0
   19.5440   16.2302   21.3856 O   0  5  0  0  0  0  0  0  0  0  0  0
   20.5066   16.0404   23.2891 O   0  0  0  0  0  0  0  0  0  0  0  0
   21.4668   17.5454   21.7492 C   0  0  0  0  0  0  0  0  0  0  0  0
   21.6178   17.4371   20.6688 H   0  0  0  0  0  0  0  0  0  0  0  0
   22.4177   17.2635   22.2161 H   0  0  0  0  0  0  0  0  0  0  0  0
   21.1482   18.9974   22.0766 C   0  0  0  0  0  0  0  0  0  0  0  0
   21.9118   19.7072   21.7612 H   0  0  0  0  0  0  0  0  0  0  0  0
   20.0467   19.4412   22.6936 C   0  0  0  0  0  0  0  0  0  0  0  0
   19.2674   18.7527   23.0184 H   0  0  0  0  0  0  0  0  0  0  0  0
   19.7784   20.8985   22.9974 C   0  0  0  0  0  0  0  0  0  0  0  0
   19.4594   21.0063   24.0430 H   0  0  0  0  0  0  0  0  0  0  0  0
   20.6970   21.4907   22.8856 H   0  0  0  0  0  0  0  0  0  0  0  0
   18.6891   21.4665   22.0669 C   0  0  0  0  0  0  0  0  0  0  0  0
   18.4975   22.5236   22.2927 H   0  0  0  0  0  0  0  0  0  0  0  0
   18.9973   21.3928   21.0157 H   0  0  0  0  0  0  0  0  0  0  0  0
   17.7465   20.9163   22.1861 H   0  0  0  0  0  0  0  0  0  0  0  0
  1  2  1  0  0  0  0
  1  3  2  0  0  0  0
  1  4  1  0  0  0  0
  4  5  1  0  0  0  0
  4  6  1  0  0  0  0
  4  7  1  0  0  0  0
  7  8  1  0  0  0  0
  7  9  2  0  0  0  0
  9 10  1  0  0  0  0
  9 11  1  0  0  0  0
 11 12  1  0  0  0  0
 11 13  1  0  0  0  0
 11 14  1  0  0  0  0
 14 15  1  0  0  0  0
 14 16  1  0  0  0  0
 14 17  1  0  0  0  0
M  END
> <VConfSearch Rank>
95

> <Conf_Id>
39

> <Delta U+W>
-0.422

> <U+W>
-49.849

> <U>
14.465

> <W>
-64.314

> <W(PB)>
-66.406

> <W(SA)>
2.093

> <Valence>
14.072

> <Coulomb>
-0.199

> <VdW>
0.592

> <VdW6>
-5.019

> <VdW12>
5.611

> <Bond>
0.085

> <Angle>
2.748

> <Pdih>
11.238

> <Idih>
0.001

> <Tether>
0.000

$$$$
VeraChem MOL file


 17 16  0  0  0  0  0  0  0  0999 V2000     
   21.9767   16.7348   21.8167 C   0  0  0  0  0  0  0  0  0  0  0  0
   21.4210   15.6707   21.6277 O   0  5  0  0  0  0  0  0  0  0  0  0
   22.9440   16.8686   22.5402 O   0  0  0  0  0  0  0  0  0  0  0  0
   21.4332   17.9654   21.1028 C   0  0  0  0  0  0  0  0  0  0  0  0
   21.1684   17.6702   20.0809 H   0  0  0  0  0  0  0  0  0  0  0  0
   22.2420   18.7019   21.0245 H   0  0  0  0  0  0  0  0  0  0  0  0
   20.2250   18.5572   21.8035 C   0  0  0  0  0  0  0  0  0  0  0  0
   19.3260   17.9421   21.7795 H   0  0  0  0  0  0  0  0  0  0  0  0
   20.2206   19.7427   22.4205 C   0  0  0  0  0  0  0  0  0  0  0  0
   21.1208   20.3559   22.4467 H   0  0  0  0  0  0  0  0  0  0  0  0
   19.0160   20.3295   23.1220 C   0  0  0  0  0  0  0  0  0  0  0  0
   18.2471   19.5595   23.2743 H   0  0  0  0  0  0  0  0  0  0  0  0
   19.3056   20.6874   24.1192 H   0  0  0  0  0  0  0  0  0  0  0  0
   18.4167   21.4954   22.3117 C   0  0  0  0  0  0  0  0  0  0  0  0
   18.0957   21.1554   21.3183 H   0  0  0  0  0  0  0  0  0  0  0  0
   17.5435   21.9175   22.8259 H   0  0  0  0  0  0  0  0  0  0  0  0
   19.1535   22.2981   22.1769 H   0  0  0  0  0  0  0  0  0  0  0  0
  1  2  1  0  0  0  0
  1  3  2  0  0  0  0
  1  4  1  0  0  0  0
  4  5  1  0  0  0  0
  4  6  1  0  0  0  0
  4  7  1  0  0  0  0
  7  8  1  0  0  0  0
  7  9  2  0  0  0  0
  9 10  1  0  0  0  0
  9 11  1  0  0  0  0
 11 12  1  0  0  0  0
 11 13  1  0  0  0  0
 11 14  1  0  0  0  0
 14 15  1  0  0  0  0
 14 16  1  0  0  0  0
 14 17  1  0  0  0  0
M  END
> <VConfSearch Rank>
96

> <Conf_Id>
38

> <Delta U+W>
0.000

> <U+W>
-49.427

> <U>
13.666

> <W>
-63.093

> <W(PB)>
-65.225

> <W(SA)>
2.132

> <Valence>
15.226

> <Coulomb>
-1.822

> <VdW>
0.261

> <VdW6>
-4.165

> <VdW12>
4.426

> <Bond>
0.044

> <Angle>
2.229

> <Pdih>
12.953

> <Idih>
0.000

> <Tether>
0.000

$$$$
VeraChem MOL file


 17 16  0  0  0  0  0  0  0  0999 V2000     
   22.1852   20.3053   19.9759 C   0  0  0  0  0  0  0  0  0  0  0  0
   22.1900   19.5517   19.0225 O   0  5  0  0  0  0  0  0  0  0  0  0
   23.1844   20.8400   20.4148 O   0  0  0  0  0  0  0  0  0  0  0  0
   20.8549   20.6013   20.6558 C   0  0  0  0  0  0  0  0  0  0  0  0
   20.0514   20.4176   19.9323 H   0  0  0  0  0  0  0  0  0  0  0  0
   20.8320   21.6706   20.8957 H   0  0  0  0  0  0  0  0  0  0  0  0
   20.6508   19.7805   21.9149 C   0  0  0  0  0  0  0  0  0  0  0  0
   21.3165   20.0247   22.7422 H   0  0  0  0  0  0  0  0  0  0  0  0
   19.7344   18.8161   22.0425 C   0  0  0  0  0  0  0  0  0  0  0  0
   19.0712   18.5702   21.2138 H   0  0  0  0  0  0  0  0  0  0  0  0
   19.5350   17.9960   23.2975 C   0  0  0  0  0  0  0  0  0  0  0  0
   19.4891   16.9292   23.0399 H   0  0  0  0  0  0  0  0  0  0  0  0
   20.3892   18.1197   23.9774 H   0  0  0  0  0  0  0  0  0  0  0  0
   18.2399   18.4046   24.0262 C   0  0  0  0  0  0  0  0  0  0  0  0
   17.3638   18.2547   23.3817 H   0  0  0  0  0  0  0  0  0  0  0  0
   18.1003   17.8058   24.9355 H   0  0  0  0  0  0  0  0  0  0  0  0
   18.2735   19.4629   24.3170 H   0  0  0  0  0  0  0  0  0  0  0  0
  1  2  1  0  0  0  0
  1  3  2  0  0  0  0
  1  4  1  0  0  0  0
  4  5  1  0  0  0  0
  4  6  1  0  0  0  0
  4  7  1  0  0  0  0
  7  8  1  0  0  0  0
  7  9  2  0  0  0  0
  9 10  1  0  0  0  0
  9 11  1  0  0  0  0
 11 12  1  0  0  0  0
 11 13  1  0  0  0  0
 11 14  1  0  0  0  0
 14 15  1  0  0  0  0
 14 16  1  0  0  0  0
 14 17  1  0  0  0  0
M  END
> <VConfSearch Rank>
97

> <Conf_Id>
35

> <Delta U+W>
-0.102

> <U+W>
-49.529

> <U>
13.666

> <W>
-63.195

> <W(PB)>
-65.299

> <W(SA)>
2.103

> <Valence>
15.226

> <Coulomb>
-1.822

> <VdW>
0.261

> <VdW6>
-4.165

> <VdW12>
4.426

> <Bond>
0.044

> <Angle>
2.229

> <Pdih>
12.953

> <Idih>
0.000

> <Tether>
0.000

$$$$
VeraChem MOL file


 17 16  0  0  0  0  0  0  0  0999 V2000     
   21.1012   17.4289   19.9351 C   0  0  0  0  0  0  0  0  0  0  0  0
   21.9408   18.0217   19.2866 O   0  5  0  0  0  0  0  0  0  0  0  0
   21.2014   16.2613   20.2570 O   0  0  0  0  0  0  0  0  0  0  0  0
   19.8517   18.1900   20.3586 C   0  0  0  0  0  0  0  0  0  0  0  0
   19.0488   17.4629   20.5296 H   0  0  0  0  0  0  0  0  0  0  0  0
   19.5408   18.8182   19.5159 H   0  0  0  0  0  0  0  0  0  0  0  0
   20.0829   19.0466   21.5890 C   0  0  0  0  0  0  0  0  0  0  0  0
   20.7553   19.8891   21.4363 H   0  0  0  0  0  0  0  0  0  0  0  0
   19.5236   18.8074   22.7818 C   0  0  0  0  0  0  0  0  0  0  0  0
   18.8591   17.9518   22.8978 H   0  0  0  0  0  0  0  0  0  0  0  0
   19.7135   19.6187   24.0523 C   0  0  0  0  0  0  0  0  0  0  0  0
   18.7324   19.9652   24.4043 H   0  0  0  0  0  0  0  0  0  0  0  0
   20.0943   18.9584   24.8432 H   0  0  0  0  0  0  0  0  0  0  0  0
   20.6568   20.8342   23.9150 C   0  0  0  0  0  0  0  0  0  0  0  0
   20.2776   21.5449   23.1690 H   0  0  0  0  0  0  0  0  0  0  0  0
   20.7420   21.3652   24.8720 H   0  0  0  0  0  0  0  0  0  0  0  0
   21.6646   20.5187   23.6148 H   0  0  0  0  0  0  0  0  0  0  0  0
  1  2  1  0  0  0  0
  1  3  2  0  0  0  0
  1  4  1  0  0  0  0
  4  5  1  0  0  0  0
  4  6  1  0  0  0  0
  4  7  1  0  0  0  0
  7  8  1  0  0  0  0
  7  9  2  0  0  0  0
  9 10  1  0  0  0  0
  9 11  1  0  0  0  0
 11 12  1  0  0  0  0
 11 13  1  0  0  0  0
 11 14  1  0  0  0  0
 14 15  1  0  0  0  0
 14 16  1  0  0  0  0
 14 17  1  0  0  0  0
M  END
> <VConfSearch Rank>
98

> <Conf_Id>
19

> <Delta U+W>
-0.496

> <U+W>
-49.923

> <U>
13.863

> <W>
-63.786

> <W(PB)>
-65.856

> <W(SA)>
2.070

> <Valence>
14.117

> <Coulomb>
-1.228

> <VdW>
0.974

> <VdW6>
-4.885

> <VdW12>
5.859

> <Bond>
0.094

> <Angle>
2.818

> <Pdih>
11.205

> <Idih>
0.000

> <Tether>
0.000

$$$$
VeraChem MOL file


 17 16  0  0  0  0  0  0  0  0999 V2000     
   20.8965   16.2401   22.5227 C   0  0  0  0  0  0  0  0  0  0  0  0
   19.8238   15.6792   22.4150 O   0  5  0  0  0  0  0  0  0  0  0  0
   21.9049   15.8776   21.9493 O   0  0  0  0  0  0  0  0  0  0  0  0
   20.9869   17.4574   23.4336 C   0  0  0  0  0  0  0  0  0  0  0  0
   21.9226   17.3829   23.9997 H   0  0  0  0  0  0  0  0  0  0  0  0
   20.1672   17.4040   24.1602 H   0  0  0  0  0  0  0  0  0  0  0  0
   20.9466   18.7635   22.6634 C   0  0  0  0  0  0  0  0  0  0  0  0
   21.8135   18.9585   22.0328 H   0  0  0  0  0  0  0  0  0  0  0  0
   19.9368   19.6372   22.7187 C   0  0  0  0  0  0  0  0  0  0  0  0
   19.0678   19.4393   23.3455 H   0  0  0  0  0  0  0  0  0  0  0  0
   19.8972   20.9377   21.9476 C   0  0  0  0  0  0  0  0  0  0  0  0
   19.6144   21.7591   22.6198 H   0  0  0  0  0  0  0  0  0  0  0  0
   20.8934   21.1814   21.5535 H   0  0  0  0  0  0  0  0  0  0  0  0
   18.8928   20.8591   20.7814 C   0  0  0  0  0  0  0  0  0  0  0  0
   17.8792   20.6546   21.1506 H   0  0  0  0  0  0  0  0  0  0  0  0
   18.8684   21.8052   20.2251 H   0  0  0  0  0  0  0  0  0  0  0  0
   19.1697   20.0593   20.0819 H   0  0  0  0  0  0  0  0  0  0  0  0
  1  2  1  0  0  0  0
  1  3  2  0  0  0  0
  1  4  1  0  0  0  0
  4  5  1  0  0  0  0
  4  6  1  0  0  0  0
  4  7  1  0  0  0  0
  7  8  1  0  0  0  0
  7  9  2  0  0  0  0
  9 10  1  0  0  0  0
  9 11  1  0  0  0  0
 11 12  1  0  0  0  0
 11 13  1  0  0  0  0
 11 14  1  0  0  0  0
 14 15  1  0  0  0  0
 14 16  1  0  0  0  0
 14 17  1  0  0  0  0
M  END
> <VConfSearch Rank>
99

> <Conf_Id>
7

> <Delta U+W>
-0.041

> <U+W>
-49.468

> <U>
14.121

> <W>
-63.589

> <W(PB)>
-65.660

> <W(SA)>
2.071

> <Valence>
15.230

> <Coulomb>
-1.333

> <VdW>
0.224

> <VdW6>
-4.212

> <VdW12>
4.436

> <Bond>
0.044

> <Angle>
2.230

> <Pdih>
12.956

> <Idih>
0.000

> <Tether>
0.000

$$$$
VeraChem MOL file


 17 16  0  0  0  0  0  0  0  0999 V2000     
   21.0807   16.6933   22.0031 C   0  0  0  0  0  0  0  0  0  0  0  0
   20.1766   16.1774   21.3758 O   0  5  0  0  0  0  0  0  0  0  0  0
   21.5065   16.2524   23.0526 O   0  0  0  0  0  0  0  0  0  0  0  0
   21.7350   17.9460   21.4285 C   0  0  0  0  0  0  0  0  0  0  0  0
   21.6957   17.8746   20.3353 H   0  0  0  0  0  0  0  0  0  0  0  0
   22.7982   17.9214   21.6941 H   0  0  0  0  0  0  0  0  0  0  0  0
   21.1279   19.2684   21.8754 C   0  0  0  0  0  0  0  0  0  0  0  0
   21.6098   20.1495   21.4536 H   0  0  0  0  0  0  0  0  0  0  0  0
   20.0913   19.4163   22.7088 C   0  0  0  0  0  0  0  0  0  0  0  0
   19.5909   18.5518   23.1436 H   0  0  0  0  0  0  0  0  0  0  0  0
   19.5259   20.7566   23.1232 C   0  0  0  0  0  0  0  0  0  0  0  0
   19.3994   20.7840   24.2140 H   0  0  0  0  0  0  0  0  0  0  0  0
   20.2242   21.5652   22.8667 H   0  0  0  0  0  0  0  0  0  0  0  0
   18.1688   21.0196   22.4419 C   0  0  0  0  0  0  0  0  0  0  0  0
   17.7626   21.9927   22.7473 H   0  0  0  0  0  0  0  0  0  0  0  0
   18.2754   21.0224   21.3491 H   0  0  0  0  0  0  0  0  0  0  0  0
   17.4386   20.2455   22.7122 H   0  0  0  0  0  0  0  0  0  0  0  0
  1  2  1  0  0  0  0
  1  3  2  0  0  0  0
  1  4  1  0  0  0  0
  4  5  1  0  0  0  0
  4  6  1  0  0  0  0
  4  7  1  0  0  0  0
  7  8  1  0  0  0  0
  7  9  2  0  0  0  0
  9 10  1  0  0  0  0
  9 11  1  0  0  0  0
 11 12  1  0  0  0  0
 11 13  1  0  0  0  0
 11 14  1  0  0  0  0
 14 15  1  0  0  0  0
 14 16  1  0  0  0  0
 14 17  1  0  0  0  0
M  END
> <VConfSearch Rank>
100

> <Conf_Id>
39

> <Delta U+W>
-0.422

> <U+W>
-49.849

> <U>
14.465

> <W>
-64.314

> <W(PB)>
-66.406

> <W(SA)>
2.093

> <Valence>
14.072

> <Coulomb>
-0.199

> <VdW>
0.592

> <VdW6>
-5.019

> <VdW12>
5.611

> <Bond>
0.085

> <Angle>
2.748

> <Pdih>
11.238

> <Idih>
0.001

> <Tether>
0.000

$$$$
VeraChem MOL file


 17 16  0  0  0  0  0  0  0  0999 V2000     
   21.8864   17.5275   24.0571 C   0  0  0  0  0  0  0  0  0  0  0  0
   21.9291   16.3342   23.8309 O   0  5  0  0  0  0  0  0  0  0  0  0
   21.8273   17.9977   25.1761 O   0  0  0  0  0  0  0  0  0  0  0  0
   21.9142   18.4842   22.8723 C   0  0  0  0  0  0  0  0  0  0  0  0
   22.6410   18.0990   22.1478 H   0  0  0  0  0  0  0  0  0  0  0  0
   22.2921   19.4524   23.2220 H   0  0  0  0  0  0  0  0  0  0  0  0
   20.5550   18.6358   22.2163 C   0  0  0  0  0  0  0  0  0  0  0  0
   20.1847   17.7488   21.7032 H   0  0  0  0  0  0  0  0  0  0  0  0
   19.8289   19.7575   22.2434 C   0  0  0  0  0  0  0  0  0  0  0  0
   20.1985   20.6433   22.7591 H   0  0  0  0  0  0  0  0  0  0  0  0
   18.4721   19.9058   21.5918 C   0  0  0  0  0  0  0  0  0  0  0  0
   18.0638   18.9210   21.3258 H   0  0  0  0  0  0  0  0  0  0  0  0
   17.7671   20.3579   22.3025 H   0  0  0  0  0  0  0  0  0  0  0  0
   18.5581   20.7810   20.3262 C   0  0  0  0  0  0  0  0  0  0  0  0
   19.2389   20.3349   19.5893 H   0  0  0  0  0  0  0  0  0  0  0  0
   17.5706   20.8854   19.8583 H   0  0  0  0  0  0  0  0  0  0  0  0
   18.9279   21.7858   20.5692 H   0  0  0  0  0  0  0  0  0  0  0  0
  1  2  1  0  0  0  0
  1  3  2  0  0  0  0
  1  4  1  0  0  0  0
  4  5  1  0  0  0  0
  4  6  1  0  0  0  0
  4  7  1  0  0  0  0
  7  8  1  0  0  0  0
  7  9  2  0  0  0  0
  9 10  1  0  0  0  0
  9 11  1  0  0  0  0
 11 12  1  0  0  0  0
 11 13  1  0  0  0  0
 11 14  1  0  0  0  0
 14 15  1  0  0  0  0
 14 16  1  0  0  0  0
 14 17  1  0  0  0  0
M  END
> <VConfSearch Rank>
101

> <Conf_Id>
38

> <Delta U+W>
0.000

> <U+W>
-49.427

> <U>
13.666

> <W>
-63.093

> <W(PB)>
-65.225

> <W(SA)>
2.132

> <Valence>
15.226

> <Coulomb>
-1.822

> <VdW>
0.261

> <VdW6>
-4.165

> <VdW12>
4.426

> <Bond>
0.044

> <Angle>
2.229

> <Pdih>
12.953

> <Idih>
0.000

> <Tether>
0.000

$$$$
VeraChem MOL file


 17 16  0  0  0  0  0  0  0  0999 V2000     
   22.5648   19.3995   20.1417 C   0  0  0  0  0  0  0  0  0  0  0  0
   23.3100   18.4694   20.3793 O   0  5  0  0  0  0  0  0  0  0  0  0
   22.9524   20.5085   19.8306 O   0  0  0  0  0  0  0  0  0  0  0  0
   21.0630   19.1632   20.2330 C   0  0  0  0  0  0  0  0  0  0  0  0
   20.8753   18.0915   20.0957 H   0  0  0  0  0  0  0  0  0  0  0  0
   20.5905   19.6819   19.3909 H   0  0  0  0  0  0  0  0  0  0  0  0
   20.4762   19.6544   21.5426 C   0  0  0  0  0  0  0  0  0  0  0  0
   20.4814   20.7356   21.6780 H   0  0  0  0  0  0  0  0  0  0  0  0
   19.9805   18.8536   22.4908 C   0  0  0  0  0  0  0  0  0  0  0  0
   19.9786   17.7724   22.3562 H   0  0  0  0  0  0  0  0  0  0  0  0
   19.3994   19.3450   23.7978 C   0  0  0  0  0  0  0  0  0  0  0  0
   19.8265   18.7721   24.6321 H   0  0  0  0  0  0  0  0  0  0  0  0
   19.6687   20.3967   23.9670 H   0  0  0  0  0  0  0  0  0  0  0  0
   17.8649   19.2032   23.8098 C   0  0  0  0  0  0  0  0  0  0  0  0
   17.5674   18.1543   23.6808 H   0  0  0  0  0  0  0  0  0  0  0  0
   17.4491   19.5607   24.7608 H   0  0  0  0  0  0  0  0  0  0  0  0
   17.4129   19.7892   22.9986 H   0  0  0  0  0  0  0  0  0  0  0  0
  1  2  1  0  0  0  0
  1  3  2  0  0  0  0
  1  4  1  0  0  0  0
  4  5  1  0  0  0  0
  4  6  1  0  0  0  0
  4  7  1  0  0  0  0
  7  8  1  0  0  0  0
  7  9  2  0  0  0  0
  9 10  1  0  0  0  0
  9 11  1  0  0  0  0
 11 12  1  0  0  0  0
 11 13  1  0  0  0  0
 11 14  1  0  0  0  0
 14 15  1  0  0  0  0
 14 16  1  0  0  0  0
 14 17  1  0  0  0  0
M  END
> <VConfSearch Rank>
102

> <Conf_Id>
35

> <Delta U+W>
-0.102

> <U+W>
-49.529

> <U>
13.666

> <W>
-63.195

> <W(PB)>
-65.299

> <W(SA)>
2.103

> <Valence>
15.226

> <Coulomb>
-1.822

> <VdW>
0.261

> <VdW6>
-4.165

> <VdW12>
4.426

> <Bond>
0.044

> <Angle>
2.229

> <Pdih>
12.953

> <Idih>
0.000

> <Tether>
0.000

$$$$
VeraChem MOL file


 17 16  0  0  0  0  0  0  0  0999 V2000     
   21.7695   17.7568   24.3276 C   0  0  0  0  0  0  0  0  0  0  0  0
   21.3048   16.6547   24.5433 O   0  5  0  0  0  0  0  0  0  0  0  0
   22.9598   17.9737   24.2137 O   0  0  0  0  0  0  0  0  0  0  0  0
   20.8065   18.9302   24.2030 C   0  0  0  0  0  0  0  0  0  0  0  0
   21.3537   19.8498   24.4427 H   0  0  0  0  0  0  0  0  0  0  0  0
   20.0314   18.8098   24.9686 H   0  0  0  0  0  0  0  0  0  0  0  0
   20.1711   19.0162   22.8281 C   0  0  0  0  0  0  0  0  0  0  0  0
   19.4856   18.2039   22.5928 H   0  0  0  0  0  0  0  0  0  0  0  0
   20.4185   19.9969   21.9508 C   0  0  0  0  0  0  0  0  0  0  0  0
   21.1142   20.7910   22.2200 H   0  0  0  0  0  0  0  0  0  0  0  0
   19.8226   20.1428   20.5607 C   0  0  0  0  0  0  0  0  0  0  0  0
   19.3119   21.1128   20.4916 H   0  0  0  0  0  0  0  0  0  0  0  0
   20.6382   20.1857   19.8262 H   0  0  0  0  0  0  0  0  0  0  0  0
   18.8373   19.0252   20.1531 C   0  0  0  0  0  0  0  0  0  0  0  0
   17.9786   18.9885   20.8363 H   0  0  0  0  0  0  0  0  0  0  0  0
   18.4533   19.2014   19.1399 H   0  0  0  0  0  0  0  0  0  0  0  0
   19.3299   18.0440   20.1598 H   0  0  0  0  0  0  0  0  0  0  0  0
  1  2  1  0  0  0  0
  1  3  2  0  0  0  0
  1  4  1  0  0  0  0
  4  5  1  0  0  0  0
  4  6  1  0  0  0  0
  4  7  1  0  0  0  0
  7  8  1  0  0  0  0
  7  9  2  0  0  0  0
  9 10  1  0  0  0  0
  9 11  1  0  0  0  0
 11 12  1  0  0  0  0
 11 13  1  0  0  0  0
 11 14  1  0  0  0  0
 14 15  1  0  0  0  0
 14 16  1  0  0  0  0
 14 17  1  0  0  0  0
M  END
> <VConfSearch Rank>
103

> <Conf_Id>
19

> <Delta U+W>
-0.496

> <U+W>
-49.923

> <U>
13.863

> <W>
-63.786

> <W(PB)>
-65.856

> <W(SA)>
2.070

> <Valence>
14.117

> <Coulomb>
-1.228

> <VdW>
0.974

> <VdW6>
-4.885

> <VdW12>
5.859

> <Bond>
0.094

> <Angle>
2.818

> <Pdih>
11.205

> <Idih>
0.000

> <Tether>
0.000

$$$$
VeraChem MOL file


 17 16  0  0  0  0  0  0  0  0999 V2000     
   18.5655   19.0305   19.7454 C   0  0  0  0  0  0  0  0  0  0  0  0
   17.4291   19.0975   20.1707 O   0  5  0  0  0  0  0  0  0  0  0  0
   18.9792   19.7065   18.8241 O   0  0  0  0  0  0  0  0  0  0  0  0
   19.5220   18.0382   20.3936 C   0  0  0  0  0  0  0  0  0  0  0  0
   20.0943   17.5539   19.5940 H   0  0  0  0  0  0  0  0  0  0  0  0
   18.9272   17.2565   20.8812 H   0  0  0  0  0  0  0  0  0  0  0  0
   20.4642   18.7000   21.3811 C   0  0  0  0  0  0  0  0  0  0  0  0
   21.1950   19.3790   20.9431 H   0  0  0  0  0  0  0  0  0  0  0  0
   20.4300   18.4993   22.7021 C   0  0  0  0  0  0  0  0  0  0  0  0
   19.6956   17.8241   23.1401 H   0  0  0  0  0  0  0  0  0  0  0  0
   21.3685   19.1625   23.6853 C   0  0  0  0  0  0  0  0  0  0  0  0
   21.7822   18.4091   24.3692 H   0  0  0  0  0  0  0  0  0  0  0  0
   22.2213   19.6128   23.1589 H   0  0  0  0  0  0  0  0  0  0  0  0
   20.6397   20.2498   24.4987 C   0  0  0  0  0  0  0  0  0  0  0  0
   19.8043   19.8200   25.0668 H   0  0  0  0  0  0  0  0  0  0  0  0
   21.3253   20.7280   25.2102 H   0  0  0  0  0  0  0  0  0  0  0  0
   20.2381   21.0282   23.8365 H   0  0  0  0  0  0  0  0  0  0  0  0
  1  2  1  0  0  0  0
  1  3  2  0  0  0  0
  1  4  1  0  0  0  0
  4  5  1  0  0  0  0
  4  6  1  0  0  0  0
  4  7  1  0  0  0  0
  7  8  1  0  0  0  0
  7  9  2  0  0  0  0
  9 10  1  0  0  0  0
  9 11  1  0  0  0  0
 11 12  1  0  0  0  0
 11 13  1  0  0  0  0
 11 14  1  0  0  0  0
 14 15  1  0  0  0  0
 14 16  1  0  0  0  0
 14 17  1  0  0  0  0
M  END
> <VConfSearch Rank>
104

> <Conf_Id>
7

> <Delta U+W>
-0.041

> <U+W>
-49.468

> <U>
14.121

> <W>
-63.589

> <W(PB)>
-65.660

> <W(SA)>
2.071

> <Valence>
15.230

> <Coulomb>
-1.333

> <VdW>
0.224

> <VdW6>
-4.212

> <VdW12>
4.436

> <Bond>
0.044

> <Angle>
2.230

> <Pdih>
12.956

> <Idih>
0.000

> <Tether>
0.000

$$$$
VeraChem MOL file


 17 16  0  0  0  0  0  0  0  0999 V2000     
   19.9860   18.1046   24.7645 C   0  0  0  0  0  0  0  0  0  0  0  0
   18.7944   18.1868   24.9890 O   0  5  0  0  0  0  0  0  0  0  0  0
   20.8416   18.5262   25.5177 O   0  0  0  0  0  0  0  0  0  0  0  0
   20.4327   17.4101   23.4816 C   0  0  0  0  0  0  0  0  0  0  0  0
   19.6987   16.6299   23.2485 H   0  0  0  0  0  0  0  0  0  0  0  0
   21.3723   16.8865   23.6930 H   0  0  0  0  0  0  0  0  0  0  0  0
   20.6147   18.3169   22.2727 C   0  0  0  0  0  0  0  0  0  0  0  0
   20.9338   17.8010   21.3680 H   0  0  0  0  0  0  0  0  0  0  0  0
   20.4171   19.6402   22.2451 C   0  0  0  0  0  0  0  0  0  0  0  0
   20.0971   20.1802   23.1354 H   0  0  0  0  0  0  0  0  0  0  0  0
   20.6140   20.4977   21.0146 C   0  0  0  0  0  0  0  0  0  0  0  0
   21.2134   21.3817   21.2712 H   0  0  0  0  0  0  0  0  0  0  0  0
   21.1764   19.9475   20.2477 H   0  0  0  0  0  0  0  0  0  0  0  0
   19.2605   20.9467   20.4304 C   0  0  0  0  0  0  0  0  0  0  0  0
   19.4094   21.5696   19.5388 H   0  0  0  0  0  0  0  0  0  0  0  0
   18.6531   20.0786   20.1423 H   0  0  0  0  0  0  0  0  0  0  0  0
   18.6923   21.5328   21.1647 H   0  0  0  0  0  0  0  0  0  0  0  0
  1  2  1  0  0  0  0
  1  3  2  0  0  0  0
  1  4  1  0  0  0  0
  4  5  1  0  0  0  0
  4  6  1  0  0  0  0
  4  7  1  0  0  0  0
  7  8  1  0  0  0  0
  7  9  2  0  0  0  0
  9 10  1  0  0  0  0
  9 11  1  0  0  0  0
 11 12  1  0  0  0  0
 11 13  1  0  0  0  0
 11 14  1  0  0  0  0
 14 15  1  0  0  0  0
 14 16  1  0  0  0  0
 14 17  1  0  0  0  0
M  END
> <VConfSearch Rank>
105

> <Conf_Id>
39

> <Delta U+W>
-0.422

> <U+W>
-49.849

> <U>
14.465

> <W>
-64.314

> <W(PB)>
-66.406

> <W(SA)>
2.093

> <Valence>
14.072

> <Coulomb>
-0.199

> <VdW>
0.592

> <VdW6>
-5.019

> <VdW12>
5.611

> <Bond>
0.085

> <Angle>
2.748

> <Pdih>
11.238

> <Idih>
0.001

> <Tether>
0.000

$$$$
VeraChem MOL file


 17 16  0  0  0  0  0  0  0  0999 V2000     
   22.5828   21.1137   21.3896 C   0  0  0  0  0  0  0  0  0  0  0  0
   23.5371   21.0564   22.1400 O   0  5  0  0  0  0  0  0  0  0  0  0
   22.1792   22.1470   20.8935 O   0  0  0  0  0  0  0  0  0  0  0  0
   21.8581   19.8180   21.0496 C   0  0  0  0  0  0  0  0  0  0  0  0
   22.6156   19.0401   20.8992 H   0  0  0  0  0  0  0  0  0  0  0  0
   21.3433   19.9542   20.0910 H   0  0  0  0  0  0  0  0  0  0  0  0
   20.8853   19.3948   22.1338 C   0  0  0  0  0  0  0  0  0  0  0  0
   21.3419   19.0866   23.0738 H   0  0  0  0  0  0  0  0  0  0  0  0
   19.5566   19.3879   21.9897 C   0  0  0  0  0  0  0  0  0  0  0  0
   19.1006   19.6992   21.0505 H   0  0  0  0  0  0  0  0  0  0  0  0
   18.5880   18.9693   23.0732 C   0  0  0  0  0  0  0  0  0  0  0  0
   19.0964   18.9223   24.0461 H   0  0  0  0  0  0  0  0  0  0  0  0
   17.7922   19.7203   23.1693 H   0  0  0  0  0  0  0  0  0  0  0  0
   17.9633   17.5963   22.7573 C   0  0  0  0  0  0  0  0  0  0  0  0
   18.7392   16.8231   22.6817 H   0  0  0  0  0  0  0  0  0  0  0  0
   17.2610   17.2982   23.5465 H   0  0  0  0  0  0  0  0  0  0  0  0
   17.4151   17.6248   21.8064 H   0  0  0  0  0  0  0  0  0  0  0  0
  1  2  1  0  0  0  0
  1  3  2  0  0  0  0
  1  4  1  0  0  0  0
  4  5  1  0  0  0  0
  4  6  1  0  0  0  0
  4  7  1  0  0  0  0
  7  8  1  0  0  0  0
  7  9  2  0  0  0  0
  9 10  1  0  0  0  0
  9 11  1  0  0  0  0
 11 12  1  0  0  0  0
 11 13  1  0  0  0  0
 11 14  1  0  0  0  0
 14 15  1  0  0  0  0
 14 16  1  0  0  0  0
 14 17  1  0  0  0  0
M  END
> <VConfSearch Rank>
106

> <Conf_Id>
38

> <Delta U+W>
0.000

> <U+W>
-49.427

> <U>
13.666

> <W>
-63.093

> <W(PB)>
-65.225

> <W(SA)>
2.132

> <Valence>
15.226

> <Coulomb>
-1.822

> <VdW>
0.261

> <VdW6>
-4.165

> <VdW12>
4.426

> <Bond>
0.044

> <Angle>
2.229

> <Pdih>
12.953

> <Idih>
0.000

> <Tether>
0.000

$$$$
VeraChem MOL file


 17 16  0  0  0  0  0  0  0  0999 V2000     
   21.6576   20.1007   24.7228 C   0  0  0  0  0  0  0  0  0  0  0  0
   22.4712   20.9585   24.4420 O   0  5  0  0  0  0  0  0  0  0  0  0
   21.8620   19.2211   25.5362 O   0  0  0  0  0  0  0  0  0  0  0  0
   20.3054   20.1308   24.0226 C   0  0  0  0  0  0  0  0  0  0  0  0
   20.1195   21.1557   23.6794 H   0  0  0  0  0  0  0  0  0  0  0  0
   19.5367   19.8981   24.7684 H   0  0  0  0  0  0  0  0  0  0  0  0
   20.2265   19.1486   22.8694 C   0  0  0  0  0  0  0  0  0  0  0  0
   20.2418   18.0966   23.1526 H   0  0  0  0  0  0  0  0  0  0  0  0
   20.1457   19.5047   21.5837 C   0  0  0  0  0  0  0  0  0  0  0  0
   20.1336   20.5568   21.3010 H   0  0  0  0  0  0  0  0  0  0  0  0
   20.0710   18.5239   20.4349 C   0  0  0  0  0  0  0  0  0  0  0  0
   20.7967   18.8050   19.6598 H   0  0  0  0  0  0  0  0  0  0  0  0
   20.3452   17.5149   20.7725 H   0  0  0  0  0  0  0  0  0  0  0  0
   18.6557   18.4909   19.8259 C   0  0  0  0  0  0  0  0  0  0  0  0
   18.3701   19.4801   19.4448 H   0  0  0  0  0  0  0  0  0  0  0  0
   18.6079   17.7780   18.9924 H   0  0  0  0  0  0  0  0  0  0  0  0
   17.9150   18.1868   20.5772 H   0  0  0  0  0  0  0  0  0  0  0  0
  1  2  1  0  0  0  0
  1  3  2  0  0  0  0
  1  4  1  0  0  0  0
  4  5  1  0  0  0  0
  4  6  1  0  0  0  0
  4  7  1  0  0  0  0
  7  8  1  0  0  0  0
  7  9  2  0  0  0  0
  9 10  1  0  0  0  0
  9 11  1  0  0  0  0
 11 12  1  0  0  0  0
 11 13  1  0  0  0  0
 11 14  1  0  0  0  0
 14 15  1  0  0  0  0
 14 16  1  0  0  0  0
 14 17  1  0  0  0  0
M  END
> <VConfSearch Rank>
107

> <Conf_Id>
35

> <Delta U+W>
-0.102

> <U+W>
-49.529

> <U>
13.666

> <W>
-63.195

> <W(PB)>
-65.299

> <W(SA)>
2.103

> <Valence>
15.226

> <Coulomb>
-1.822

> <VdW>
0.261

> <VdW6>
-4.165

> <VdW12>
4.426

> <Bond>
0.044

> <Angle>
2.229

> <Pdih>
12.953

> <Idih>
0.000

> <Tether>
0.000

$$$$
VeraChem MOL file


 17 16  0  0  0  0  0  0  0  0999 V2000     
   23.1218   18.7271   21.7996 C   0  0  0  0  0  0  0  0  0  0  0  0
   23.3780   17.5424   21.7117 O   0  5  0  0  0  0  0  0  0  0  0  0
   23.5771   19.5703   21.0522 O   0  0  0  0  0  0  0  0  0  0  0  0
   22.1866   19.1787   22.9137 C   0  0  0  0  0  0  0  0  0  0  0  0
   22.3937   20.2339   23.1285 H   0  0  0  0  0  0  0  0  0  0  0  0
   22.4428   18.6117   23.8161 H   0  0  0  0  0  0  0  0  0  0  0  0
   20.7250   18.9697   22.5650 C   0  0  0  0  0  0  0  0  0  0  0  0
   20.4194   17.9273   22.4944 H   0  0  0  0  0  0  0  0  0  0  0  0
   19.8582   19.9673   22.3502 C   0  0  0  0  0  0  0  0  0  0  0  0
   20.2018   20.9985   22.4254 H   0  0  0  0  0  0  0  0  0  0  0  0
   18.3873   19.8307   21.9949 C   0  0  0  0  0  0  0  0  0  0  0  0
   17.7878   20.3598   22.7480 H   0  0  0  0  0  0  0  0  0  0  0  0
   18.1994   20.3539   21.0475 H   0  0  0  0  0  0  0  0  0  0  0  0
   17.8773   18.3775   21.8762 C   0  0  0  0  0  0  0  0  0  0  0  0
   17.9997   17.8382   22.8246 H   0  0  0  0  0  0  0  0  0  0  0  0
   16.8107   18.3639   21.6171 H   0  0  0  0  0  0  0  0  0  0  0  0
   18.4203   17.8323   21.0930 H   0  0  0  0  0  0  0  0  0  0  0  0
  1  2  1  0  0  0  0
  1  3  2  0  0  0  0
  1  4  1  0  0  0  0
  4  5  1  0  0  0  0
  4  6  1  0  0  0  0
  4  7  1  0  0  0  0
  7  8  1  0  0  0  0
  7  9  2  0  0  0  0
  9 10  1  0  0  0  0
  9 11  1  0  0  0  0
 11 12  1  0  0  0  0
 11 13  1  0  0  0  0
 11 14  1  0  0  0  0
 14 15  1  0  0  0  0
 14 16  1  0  0  0  0
 14 17  1  0  0  0  0
M  END
> <VConfSearch Rank>
108

> <Conf_Id>
19

> <Delta U+W>
-0.496

> <U+W>
-49.923

> <U>
13.863

> <W>
-63.786

> <W(PB)>
-65.856

> <W(SA)>
2.070

> <Valence>
14.117

> <Coulomb>
-1.228

> <VdW>
0.974

> <VdW6>
-4.885

> <VdW12>
5.859

> <Bond>
0.094

> <Angle>
2.818

> <Pdih>
11.205

> <Idih>
0.000

> <Tether>
0.000

$$$$
VeraChem MOL file


 17 16  0  0  0  0  0  0  0  0999 V2000     
   18.7104   19.1816   24.7635 C   0  0  0  0  0  0  0  0  0  0  0  0
   19.4100   18.5022   25.4887 O   0  5  0  0  0  0  0  0  0  0  0  0
   18.2638   20.2655   25.0838 O   0  0  0  0  0  0  0  0  0  0  0  0
   18.3643   18.6425   23.3817 C   0  0  0  0  0  0  0  0  0  0  0  0
   17.3061   18.8580   23.1939 H   0  0  0  0  0  0  0  0  0  0  0  0
   18.4708   17.5512   23.4025 H   0  0  0  0  0  0  0  0  0  0  0  0
   19.2219   19.2517   22.2890 C   0  0  0  0  0  0  0  0  0  0  0  0
   19.0552   20.3125   22.1041 H   0  0  0  0  0  0  0  0  0  0  0  0
   20.1339   18.5747   21.5846 C   0  0  0  0  0  0  0  0  0  0  0  0
   20.3038   17.5152   21.7734 H   0  0  0  0  0  0  0  0  0  0  0  0
   20.9901   19.1848   20.4974 C   0  0  0  0  0  0  0  0  0  0  0  0
   20.9667   18.5458   19.6043 H   0  0  0  0  0  0  0  0  0  0  0  0
   20.5898   20.1627   20.1961 H   0  0  0  0  0  0  0  0  0  0  0  0
   22.4471   19.3542   20.9701 C   0  0  0  0  0  0  0  0  0  0  0  0
   22.8860   18.3851   21.2414 H   0  0  0  0  0  0  0  0  0  0  0  0
   23.0638   19.7977   20.1776 H   0  0  0  0  0  0  0  0  0  0  0  0
   22.4978   20.0104   21.8490 H   0  0  0  0  0  0  0  0  0  0  0  0
  1  2  1  0  0  0  0
  1  3  2  0  0  0  0
  1  4  1  0  0  0  0
  4  5  1  0  0  0  0
  4  6  1  0  0  0  0
  4  7  1  0  0  0  0
  7  8  1  0  0  0  0
  7  9  2  0  0  0  0
  9 10  1  0  0  0  0
  9 11  1  0  0  0  0
 11 12  1  0  0  0  0
 11 13  1  0  0  0  0
 11 14  1  0  0  0  0
 14 15  1  0  0  0  0
 14 16  1  0  0  0  0
 14 17  1  0  0  0  0
M  END
> <VConfSearch Rank>
109

> <Conf_Id>
7

> <Delta U+W>
-0.041

> <U+W>
-49.468

> <U>
14.121

> <W>
-63.589

> <W(PB)>
-65.660

> <W(SA)>
2.071

> <Valence>
15.230

> <Coulomb>
-1.333

> <VdW>
0.224

> <VdW6>
-4.212

> <VdW12>
4.436

> <Bond>
0.044

> <Angle>
2.230

> <Pdih>
12.956

> <Idih>
0.000

> <Tether>
0.000

$$$$
VeraChem MOL file


 17 16  0  0  0  0  0  0  0  0999 V2000     
   20.5960   16.7613   21.2165 C   0  0  0  0  0  0  0  0  0  0  0  0
   21.3452   16.2973   22.0534 O   0  5  0  0  0  0  0  0  0  0  0  0
   20.8571   16.8014   20.0302 O   0  0  0  0  0  0  0  0  0  0  0  0
   19.2434   17.2968   21.6760 C   0  0  0  0  0  0  0  0  0  0  0  0
   18.9225   16.7032   22.5399 H   0  0  0  0  0  0  0  0  0  0  0  0
   18.5146   17.0931   20.8828 H   0  0  0  0  0  0  0  0  0  0  0  0
   19.2092   18.7762   22.0326 C   0  0  0  0  0  0  0  0  0  0  0  0
   18.2344   19.1377   22.3578 H   0  0  0  0  0  0  0  0  0  0  0  0
   20.2445   19.6225   21.9789 C   0  0  0  0  0  0  0  0  0  0  0  0
   21.2299   19.2866   21.6581 H   0  0  0  0  0  0  0  0  0  0  0  0
   20.1569   21.0878   22.3437 C   0  0  0  0  0  0  0  0  0  0  0  0
   20.6295   21.6939   21.5589 H   0  0  0  0  0  0  0  0  0  0  0  0
   19.1075   21.4086   22.4004 H   0  0  0  0  0  0  0  0  0  0  0  0
   20.8483   21.3647   23.6929 C   0  0  0  0  0  0  0  0  0  0  0  0
   20.7829   22.4295   23.9519 H   0  0  0  0  0  0  0  0  0  0  0  0
   20.3754   20.7881   24.4988 H   0  0  0  0  0  0  0  0  0  0  0  0
   21.9101   21.0884   23.6526 H   0  0  0  0  0  0  0  0  0  0  0  0
  1  2  1  0  0  0  0
  1  3  2  0  0  0  0
  1  4  1  0  0  0  0
  4  5  1  0  0  0  0
  4  6  1  0  0  0  0
  4  7  1  0  0  0  0
  7  8  1  0  0  0  0
  7  9  2  0  0  0  0
  9 10  1  0  0  0  0
  9 11  1  0  0  0  0
 11 12  1  0  0  0  0
 11 13  1  0  0  0  0
 11 14  1  0  0  0  0
 14 15  1  0  0  0  0
 14 16  1  0  0  0  0
 14 17  1  0  0  0  0
M  END
> <VConfSearch Rank>
110

> <Conf_Id>
39

> <Delta U+W>
-0.422

> <U+W>
-49.849

> <U>
14.465

> <W>
-64.314

> <W(PB)>
-66.406

> <W(SA)>
2.093

> <Valence>
14.072

> <Coulomb>
-0.199

> <VdW>
0.592

> <VdW6>
-5.019

> <VdW12>
5.611

> <Bond>
0.085

> <Angle>
2.748

> <Pdih>
11.238

> <Idih>
0.001

> <Tether>
0.000

$$$$
VeraChem MOL file


 17 16  0  0  0  0  0  0  0  0999 V2000     
   22.4078   17.3172   23.0569 C   0  0  0  0  0  0  0  0  0  0  0  0
   23.5482   17.7183   22.9324 O   0  5  0  0  0  0  0  0  0  0  0  0
   22.0709   16.1708   22.8357 O   0  0  0  0  0  0  0  0  0  0  0  0
   21.3458   18.3054   23.5206 C   0  0  0  0  0  0  0  0  0  0  0  0
   21.7873   18.9263   24.3087 H   0  0  0  0  0  0  0  0  0  0  0  0
   20.5269   17.7387   23.9798 H   0  0  0  0  0  0  0  0  0  0  0  0
   20.8351   19.1812   22.3924 C   0  0  0  0  0  0  0  0  0  0  0  0
   21.5575   19.8916   21.9916 H   0  0  0  0  0  0  0  0  0  0  0  0
   19.5968   19.1175   21.8936 C   0  0  0  0  0  0  0  0  0  0  0  0
   18.8758   18.4049   22.2929 H   0  0  0  0  0  0  0  0  0  0  0  0
   19.0905   19.9890   20.7661 C   0  0  0  0  0  0  0  0  0  0  0  0
   19.9288   20.4834   20.2561 H   0  0  0  0  0  0  0  0  0  0  0  0
   18.5869   19.3667   20.0140 H   0  0  0  0  0  0  0  0  0  0  0  0
   18.1102   21.0571   21.2889 C   0  0  0  0  0  0  0  0  0  0  0  0
   18.5997   21.7087   22.0247 H   0  0  0  0  0  0  0  0  0  0  0  0
   17.7458   21.6859   20.4662 H   0  0  0  0  0  0  0  0  0  0  0  0
   17.2416   20.5893   21.7706 H   0  0  0  0  0  0  0  0  0  0  0  0
  1  2  1  0  0  0  0
  1  3  2  0  0  0  0
  1  4  1  0  0  0  0
  4  5  1  0  0  0  0
  4  6  1  0  0  0  0
  4  7  1  0  0  0  0
  7  8  1  0  0  0  0
  7  9  2  0  0  0  0
  9 10  1  0  0  0  0
  9 11  1  0  0  0  0
 11 12  1  0  0  0  0
 11 13  1  0  0  0  0
 11 14  1  0  0  0  0
 14 15  1  0  0  0  0
 14 16  1  0  0  0  0
 14 17  1  0  0  0  0
M  END
> <VConfSearch Rank>
111

> <Conf_Id>
38

> <Delta U+W>
0.000

> <U+W>
-49.427

> <U>
13.666

> <W>
-63.093

> <W(PB)>
-65.225

> <W(SA)>
2.132

> <Valence>
15.226

> <Coulomb>
-1.822

> <VdW>
0.261

> <VdW6>
-4.165

> <VdW12>
4.426

> <Bond>
0.044

> <Angle>
2.229

> <Pdih>
12.953

> <Idih>
0.000

> <Tether>
0.000

$$$$
VeraChem MOL file


 17 16  0  0  0  0  0  0  0  0999 V2000     
   21.4257   19.4919   24.9636 C   0  0  0  0  0  0  0  0  0  0  0  0
   21.5288   20.6651   25.2634 O   0  5  0  0  0  0  0  0  0  0  0  0
   22.2596   18.6520   25.2395 O   0  0  0  0  0  0  0  0  0  0  0  0
   20.1820   19.0468   24.2055 C   0  0  0  0  0  0  0  0  0  0  0  0
   19.3811   19.7685   24.4065 H   0  0  0  0  0  0  0  0  0  0  0  0
   19.8605   18.0862   24.6242 H   0  0  0  0  0  0  0  0  0  0  0  0
   20.4284   18.9091   22.7152 C   0  0  0  0  0  0  0  0  0  0  0  0
   21.0960   18.0976   22.4272 H   0  0  0  0  0  0  0  0  0  0  0  0
   19.8882   19.7056   21.7878 C   0  0  0  0  0  0  0  0  0  0  0  0
   19.2233   20.5189   22.0767 H   0  0  0  0  0  0  0  0  0  0  0  0
   20.1382   19.5692   20.3025 C   0  0  0  0  0  0  0  0  0  0  0  0
   20.3919   20.5499   19.8777 H   0  0  0  0  0  0  0  0  0  0  0  0
   20.9993   18.9127   20.1163 H   0  0  0  0  0  0  0  0  0  0  0  0
   18.8993   19.0023   19.5821 C   0  0  0  0  0  0  0  0  0  0  0  0
   18.0310   19.6599   19.7198 H   0  0  0  0  0  0  0  0  0  0  0  0
   19.0865   18.9063   18.5047 H   0  0  0  0  0  0  0  0  0  0  0  0
   18.6416   18.0091   19.9730 H   0  0  0  0  0  0  0  0  0  0  0  0
  1  2  1  0  0  0  0
  1  3  2  0  0  0  0
  1  4  1  0  0  0  0
  4  5  1  0  0  0  0
  4  6  1  0  0  0  0
  4  7  1  0  0  0  0
  7  8  1  0  0  0  0
  7  9  2  0  0  0  0
  9 10  1  0  0  0  0
  9 11  1  0  0  0  0
 11 12  1  0  0  0  0
 11 13  1  0  0  0  0
 11 14  1  0  0  0  0
 14 15  1  0  0  0  0
 14 16  1  0  0  0  0
 14 17  1  0  0  0  0
M  END
> <VConfSearch Rank>
112

> <Conf_Id>
35

> <Delta U+W>
-0.102

> <U+W>
-49.529

> <U>
13.666

> <W>
-63.195

> <W(PB)>
-65.299

> <W(SA)>
2.103

> <Valence>
15.226

> <Coulomb>
-1.822

> <VdW>
0.261

> <VdW6>
-4.165

> <VdW12>
4.426

> <Bond>
0.044

> <Angle>
2.229

> <Pdih>
12.953

> <Idih>
0.000

> <Tether>
0.000

$$$$
VeraChem MOL file


 17 16  0  0  0  0  0  0  0  0999 V2000     
   19.0340   16.9053   23.7783 C   0  0  0  0  0  0  0  0  0  0  0  0
   19.4356   16.9548   24.9243 O   0  5  0  0  0  0  0  0  0  0  0  0
   17.8690   16.7273   23.4817 O   0  0  0  0  0  0  0  0  0  0  0  0
   20.0491   17.0658   22.6543 C   0  0  0  0  0  0  0  0  0  0  0  0
   19.6445   16.5847   21.7556 H   0  0  0  0  0  0  0  0  0  0  0  0
   20.9513   16.5108   22.9362 H   0  0  0  0  0  0  0  0  0  0  0  0
   20.3940   18.5186   22.3867 C   0  0  0  0  0  0  0  0  0  0  0  0
   20.9436   19.0100   23.1877 H   0  0  0  0  0  0  0  0  0  0  0  0
   20.0580   19.1724   21.2676 C   0  0  0  0  0  0  0  0  0  0  0  0
   19.5039   18.6486   20.4893 H   0  0  0  0  0  0  0  0  0  0  0  0
   20.3666   20.6228   20.9364 C   0  0  0  0  0  0  0  0  0  0  0  0
   20.9344   20.6612   19.9970 H   0  0  0  0  0  0  0  0  0  0  0  0
   19.4246   21.1501   20.7336 H   0  0  0  0  0  0  0  0  0  0  0  0
   21.1466   21.3891   22.0275 C   0  0  0  0  0  0  0  0  0  0  0  0
   22.1206   20.9198   22.2185 H   0  0  0  0  0  0  0  0  0  0  0  0
   21.3285   22.4254   21.7145 H   0  0  0  0  0  0  0  0  0  0  0  0
   20.5826   21.4165   22.9691 H   0  0  0  0  0  0  0  0  0  0  0  0
  1  2  1  0  0  0  0
  1  3  2  0  0  0  0
  1  4  1  0  0  0  0
  4  5  1  0  0  0  0
  4  6  1  0  0  0  0
  4  7  1  0  0  0  0
  7  8  1  0  0  0  0
  7  9  2  0  0  0  0
  9 10  1  0  0  0  0
  9 11  1  0  0  0  0
 11 12  1  0  0  0  0
 11 13  1  0  0  0  0
 11 14  1  0  0  0  0
 14 15  1  0  0  0  0
 14 16  1  0  0  0  0
 14 17  1  0  0  0  0
M  END
> <VConfSearch Rank>
113

> <Conf_Id>
19

> <Delta U+W>
-0.496

> <U+W>
-49.923

> <U>
13.863

> <W>
-63.786

> <W(PB)>
-65.856

> <W(SA)>
2.070

> <Valence>
14.117

> <Coulomb>
-1.228

> <VdW>
0.974

> <VdW6>
-4.885

> <VdW12>
5.859

> <Bond>
0.094

> <Angle>
2.818

> <Pdih>
11.205

> <Idih>
0.000

> <Tether>
0.000

$$$$
VeraChem MOL file


 17 16  0  0  0  0  0  0  0  0999 V2000     
   19.1194   21.5804   23.3127 C   0  0  0  0  0  0  0  0  0  0  0  0
   20.1354   22.2230   23.4909 O   0  5  0  0  0  0  0  0  0  0  0  0
   18.1225   22.0322   22.7845 O   0  0  0  0  0  0  0  0  0  0  0  0
   19.0879   20.1329   23.7857 C   0  0  0  0  0  0  0  0  0  0  0  0
   18.1120   19.9545   24.2519 H   0  0  0  0  0  0  0  0  0  0  0  0
   19.8451   20.0114   24.5696 H   0  0  0  0  0  0  0  0  0  0  0  0
   19.3130   19.1473   22.6549 C   0  0  0  0  0  0  0  0  0  0  0  0
   18.5164   19.1009   21.9129 H   0  0  0  0  0  0  0  0  0  0  0  0
   20.3990   18.3777   22.5343 C   0  0  0  0  0  0  0  0  0  0  0  0
   21.1975   18.4282   23.2737 H   0  0  0  0  0  0  0  0  0  0  0  0
   20.6228   17.3976   21.4043 C   0  0  0  0  0  0  0  0  0  0  0  0
   20.9387   16.4276   21.8117 H   0  0  0  0  0  0  0  0  0  0  0  0
   19.6861   17.2204   20.8580 H   0  0  0  0  0  0  0  0  0  0  0  0
   21.6935   17.9171   20.4252 C   0  0  0  0  0  0  0  0  0  0  0  0
   22.6531   18.0666   20.9374 H   0  0  0  0  0  0  0  0  0  0  0  0
   21.8517   17.2024   19.6072 H   0  0  0  0  0  0  0  0  0  0  0  0
   21.3876   18.8758   19.9860 H   0  0  0  0  0  0  0  0  0  0  0  0
  1  2  1  0  0  0  0
  1  3  2  0  0  0  0
  1  4  1  0  0  0  0
  4  5  1  0  0  0  0
  4  6  1  0  0  0  0
  4  7  1  0  0  0  0
  7  8  1  0  0  0  0
  7  9  2  0  0  0  0
  9 10  1  0  0  0  0
  9 11  1  0  0  0  0
 11 12  1  0  0  0  0
 11 13  1  0  0  0  0
 11 14  1  0  0  0  0
 14 15  1  0  0  0  0
 14 16  1  0  0  0  0
 14 17  1  0  0  0  0
M  END
> <VConfSearch Rank>
114

> <Conf_Id>
7

> <Delta U+W>
-0.041

> <U+W>
-49.468

> <U>
14.121

> <W>
-63.589

> <W(PB)>
-65.660

> <W(SA)>
2.071

> <Valence>
15.230

> <Coulomb>
-1.333

> <VdW>
0.224

> <VdW6>
-4.212

> <VdW12>
4.436

> <Bond>
0.044

> <Angle>
2.230

> <Pdih>
12.956

> <Idih>
0.000

> <Tether>
0.000

$$$$
VeraChem MOL file


 17 16  0  0  0  0  0  0  0  0999 V2000     
   19.0972   21.8299   22.4124 C   0  0  0  0  0  0  0  0  0  0  0  0
   19.4128   22.1414   23.5439 O   0  5  0  0  0  0  0  0  0  0  0  0
   17.9581   21.8891   21.9928 O   0  0  0  0  0  0  0  0  0  0  0  0
   20.1942   21.3662   21.4588 C   0  0  0  0  0  0  0  0  0  0  0  0
   21.1173   21.8936   21.7262 H   0  0  0  0  0  0  0  0  0  0  0  0
   19.9312   21.7105   20.4518 H   0  0  0  0  0  0  0  0  0  0  0  0
   20.4525   19.8664   21.4341 C   0  0  0  0  0  0  0  0  0  0  0  0
   21.2390   19.5570   20.7469 H   0  0  0  0  0  0  0  0  0  0  0  0
   19.8124   18.9457   22.1647 C   0  0  0  0  0  0  0  0  0  0  0  0
   19.0228   19.2284   22.8600 H   0  0  0  0  0  0  0  0  0  0  0  0
   20.1071   17.4635   22.1015 C   0  0  0  0  0  0  0  0  0  0  0  0
   19.1678   16.9030   22.0017 H   0  0  0  0  0  0  0  0  0  0  0  0
   20.7103   17.2282   21.2138 H   0  0  0  0  0  0  0  0  0  0  0  0
   20.8541   16.9932   23.3647 C   0  0  0  0  0  0  0  0  0  0  0  0
   21.0641   15.9169   23.3141 H   0  0  0  0  0  0  0  0  0  0  0  0
   21.8102   17.5224   23.4719 H   0  0  0  0  0  0  0  0  0  0  0  0
   20.2563   17.1818   24.2661 H   0  0  0  0  0  0  0  0  0  0  0  0
  1  2  1  0  0  0  0
  1  3  2  0  0  0  0
  1  4  1  0  0  0  0
  4  5  1  0  0  0  0
  4  6  1  0  0  0  0
  4  7  1  0  0  0  0
  7  8  1  0  0  0  0
  7  9  2  0  0  0  0
  9 10  1  0  0  0  0
  9 11  1  0  0  0  0
 11 12  1  0  0  0  0
 11 13  1  0  0  0  0
 11 14  1  0  0  0  0
 14 15  1  0  0  0  0
 14 16  1  0  0  0  0
 14 17  1  0  0  0  0
M  END
> <VConfSearch Rank>
115

> <Conf_Id>
39

> <Delta U+W>
-0.422

> <U+W>
-49.849

> <U>
14.465

> <W>
-64.314

> <W(PB)>
-66.406

> <W(SA)>
2.093

> <Valence>
14.072

> <Coulomb>
-0.199

> <VdW>
0.592

> <VdW6>
-5.019

> <VdW12>
5.611

> <Bond>
0.085

> <Angle>
2.748

> <Pdih>
11.238

> <Idih>
0.001

> <Tether>
0.000

$$$$
VeraChem MOL file


 17 16  0  0  0  0  0  0  0  0999 V2000     
   23.0192   19.2422   23.3493 C   0  0  0  0  0  0  0  0  0  0  0  0
   23.1050   18.9356   24.5222 O   0  5  0  0  0  0  0  0  0  0  0  0
   23.6810   20.1220   22.8347 O   0  0  0  0  0  0  0  0  0  0  0  0
   22.0319   18.4774   22.4777 C   0  0  0  0  0  0  0  0  0  0  0  0
   22.0911   17.4184   22.7546 H   0  0  0  0  0  0  0  0  0  0  0  0
   22.3628   18.5553   21.4350 H   0  0  0  0  0  0  0  0  0  0  0  0
   20.6088   18.9781   22.6353 C   0  0  0  0  0  0  0  0  0  0  0  0
   20.1535   18.7871   23.6067 H   0  0  0  0  0  0  0  0  0  0  0  0
   19.9262   19.6146   21.6788 C   0  0  0  0  0  0  0  0  0  0  0  0
   20.3831   19.8079   20.7087 H   0  0  0  0  0  0  0  0  0  0  0  0
   18.5086   20.1165   21.8390 C   0  0  0  0  0  0  0  0  0  0  0  0
   18.2187   20.1175   22.8988 H   0  0  0  0  0  0  0  0  0  0  0  0
   18.4424   21.1570   21.4932 H   0  0  0  0  0  0  0  0  0  0  0  0
   17.5191   19.2457   21.0404 C   0  0  0  0  0  0  0  0  0  0  0  0
   17.5491   18.2042   21.3867 H   0  0  0  0  0  0  0  0  0  0  0  0
   16.4923   19.6151   21.1601 H   0  0  0  0  0  0  0  0  0  0  0  0
   17.7628   19.2574   19.9699 H   0  0  0  0  0  0  0  0  0  0  0  0
  1  2  1  0  0  0  0
  1  3  2  0  0  0  0
  1  4  1  0  0  0  0
  4  5  1  0  0  0  0
  4  6  1  0  0  0  0
  4  7  1  0  0  0  0
  7  8  1  0  0  0  0
  7  9  2  0  0  0  0
  9 10  1  0  0  0  0
  9 11  1  0  0  0  0
 11 12  1  0  0  0  0
 11 13  1  0  0  0  0
 11 14  1  0  0  0  0
 14 15  1  0  0  0  0
 14 16  1  0  0  0  0
 14 17  1  0  0  0  0
M  END
> <VConfSearch Rank>
116

> <Conf_Id>
38

> <Delta U+W>
0.000

> <U+W>
-49.427

> <U>
13.666

> <W>
-63.093

> <W(PB)>
-65.225

> <W(SA)>
2.132

> <Valence>
15.226

> <Coulomb>
-1.822

> <VdW>
0.261

> <VdW6>
-4.165

> <VdW12>
4.426

> <Bond>
0.044

> <Angle>
2.229

> <Pdih>
12.953

> <Idih>
0.000

> <Tether>
0.000

$$$$
VeraChem MOL file


 17 16  0  0  0  0  0  0  0  0999 V2000     
   21.2925   22.1152   22.7781 C   0  0  0  0  0  0  0  0  0  0  0  0
   22.0175   22.4650   21.8677 O   0  5  0  0  0  0  0  0  0  0  0  0
   21.5264   22.3426   23.9488 O   0  0  0  0  0  0  0  0  0  0  0  0
   20.0181   21.3549   22.4351 C   0  0  0  0  0  0  0  0  0  0  0  0
   19.7409   21.5982   21.4023 H   0  0  0  0  0  0  0  0  0  0  0  0
   19.2175   21.7351   23.0800 H   0  0  0  0  0  0  0  0  0  0  0  0
   20.1681   19.8568   22.6192 C   0  0  0  0  0  0  0  0  0  0  0  0
   20.2857   19.5244   23.6502 H   0  0  0  0  0  0  0  0  0  0  0  0
   20.1646   18.9728   21.6169 C   0  0  0  0  0  0  0  0  0  0  0  0
   20.0501   19.3061   20.5859 H   0  0  0  0  0  0  0  0  0  0  0  0
   20.3182   17.4797   21.8020 C   0  0  0  0  0  0  0  0  0  0  0  0
   21.0731   17.0952   21.1029 H   0  0  0  0  0  0  0  0  0  0  0  0
   20.6812   17.2531   22.8140 H   0  0  0  0  0  0  0  0  0  0  0  0
   18.9806   16.7517   21.5652 C   0  0  0  0  0  0  0  0  0  0  0  0
   18.6127   16.9298   20.5462 H   0  0  0  0  0  0  0  0  0  0  0  0
   19.0985   15.6687   21.7003 H   0  0  0  0  0  0  0  0  0  0  0  0
   18.2159   17.1018   22.2710 H   0  0  0  0  0  0  0  0  0  0  0  0
  1  2  1  0  0  0  0
  1  3  2  0  0  0  0
  1  4  1  0  0  0  0
  4  5  1  0  0  0  0
  4  6  1  0  0  0  0
  4  7  1  0  0  0  0
  7  8  1  0  0  0  0
  7  9  2  0  0  0  0
  9 10  1  0  0  0  0
  9 11  1  0  0  0  0
 11 12  1  0  0  0  0
 11 13  1  0  0  0  0
 11 14  1  0  0  0  0
 14 15  1  0  0  0  0
 14 16  1  0  0  0  0
 14 17  1  0  0  0  0
M  END
> <VConfSearch Rank>
117

> <Conf_Id>
35

> <Delta U+W>
-0.102

> <U+W>
-49.529

> <U>
13.666

> <W>
-63.195

> <W(PB)>
-65.299

> <W(SA)>
2.103

> <Valence>
15.226

> <Coulomb>
-1.822

> <VdW>
0.261

> <VdW6>
-4.165

> <VdW12>
4.426

> <Bond>
0.044

> <Angle>
2.229

> <Pdih>
12.953

> <Idih>
0.000

> <Tether>
0.000

$$$$
VeraChem MOL file


 17 16  0  0  0  0  0  0  0  0999 V2000     
   22.4599   20.1244   23.8313 C   0  0  0  0  0  0  0  0  0  0  0  0
   23.3346   19.2842   23.9071 O   0  5  0  0  0  0  0  0  0  0  0  0
   22.6738   21.2984   23.6013 O   0  0  0  0  0  0  0  0  0  0  0  0
   21.0185   19.6816   24.0459 C   0  0  0  0  0  0  0  0  0  0  0  0
   20.4369   20.5528   24.3708 H   0  0  0  0  0  0  0  0  0  0  0  0
   21.0088   18.9632   24.8737 H   0  0  0  0  0  0  0  0  0  0  0  0
   20.4131   19.0538   22.8047 C   0  0  0  0  0  0  0  0  0  0  0  0
   20.8478   18.0968   22.5215 H   0  0  0  0  0  0  0  0  0  0  0  0
   19.4268   19.6109   22.0909 C   0  0  0  0  0  0  0  0  0  0  0  0
   19.0195   20.5722   22.4026 H   0  0  0  0  0  0  0  0  0  0  0  0
   18.7783   19.0417   20.8403 C   0  0  0  0  0  0  0  0  0  0  0  0
   17.6983   18.9405   21.0129 H   0  0  0  0  0  0  0  0  0  0  0  0
   18.8796   19.7693   20.0237 H   0  0  0  0  0  0  0  0  0  0  0  0
   19.3430   17.6815   20.3743 C   0  0  0  0  0  0  0  0  0  0  0  0
   19.2093   16.9137   21.1476 H   0  0  0  0  0  0  0  0  0  0  0  0
   18.8254   17.3399   19.4686 H   0  0  0  0  0  0  0  0  0  0  0  0
   20.4131   17.7584   20.1412 H   0  0  0  0  0  0  0  0  0  0  0  0
  1  2  1  0  0  0  0
  1  3  2  0  0  0  0
  1  4  1  0  0  0  0
  4  5  1  0  0  0  0
  4  6  1  0  0  0  0
  4  7  1  0  0  0  0
  7  8  1  0  0  0  0
  7  9  2  0  0  0  0
  9 10  1  0  0  0  0
  9 11  1  0  0  0  0
 11 12  1  0  0  0  0
 11 13  1  0  0  0  0
 11 14  1  0  0  0  0
 14 15  1  0  0  0  0
 14 16  1  0  0  0  0
 14 17  1  0  0  0  0
M  END
> <VConfSearch Rank>
118

> <Conf_Id>
19

> <Delta U+W>
-0.496

> <U+W>
-49.923

> <U>
13.863

> <W>
-63.786

> <W(PB)>
-65.856

> <W(SA)>
2.070

> <Valence>
14.117

> <Coulomb>
-1.228

> <VdW>
0.974

> <VdW6>
-4.885

> <VdW12>
5.859

> <Bond>
0.094

> <Angle>
2.818

> <Pdih>
11.205

> <Idih>
0.000

> <Tether>
0.000

$$$$
VeraChem MOL file


 17 16  0  0  0  0  0  0  0  0999 V2000     
   20.9455   18.2305   19.5093 C   0  0  0  0  0  0  0  0  0  0  0  0
   22.1101   18.5742   19.4621 O   0  5  0  0  0  0  0  0  0  0  0  0
   20.5508   17.1413   19.1418 O   0  0  0  0  0  0  0  0  0  0  0  0
   19.9212   19.2208   20.0478 C   0  0  0  0  0  0  0  0  0  0  0  0
   19.0334   19.1654   19.4074 H   0  0  0  0  0  0  0  0  0  0  0  0
   20.3320   20.2319   19.9402 H   0  0  0  0  0  0  0  0  0  0  0  0
   19.5424   18.9385   21.4892 C   0  0  0  0  0  0  0  0  0  0  0  0
   18.9874   18.0150   21.6518 H   0  0  0  0  0  0  0  0  0  0  0  0
   19.8534   19.7338   22.5173 C   0  0  0  0  0  0  0  0  0  0  0  0
   20.4128   20.6545   22.3548 H   0  0  0  0  0  0  0  0  0  0  0  0
   19.4772   19.4489   23.9542 C   0  0  0  0  0  0  0  0  0  0  0  0
   19.0334   20.3462   24.4063 H   0  0  0  0  0  0  0  0  0  0  0  0
   18.7133   18.6606   24.0025 H   0  0  0  0  0  0  0  0  0  0  0  0
   20.7088   19.0161   24.7733 C   0  0  0  0  0  0  0  0  0  0  0  0
   21.4745   19.8030   24.7745 H   0  0  0  0  0  0  0  0  0  0  0  0
   20.4300   18.8103   25.8149 H   0  0  0  0  0  0  0  0  0  0  0  0
   21.1554   18.1051   24.3535 H   0  0  0  0  0  0  0  0  0  0  0  0
  1  2  1  0  0  0  0
  1  3  2  0  0  0  0
  1  4  1  0  0  0  0
  4  5  1  0  0  0  0
  4  6  1  0  0  0  0
  4  7  1  0  0  0  0
  7  8  1  0  0  0  0
  7  9  2  0  0  0  0
  9 10  1  0  0  0  0
  9 11  1  0  0  0  0
 11 12  1  0  0  0  0
 11 13  1  0  0  0  0
 11 14  1  0  0  0  0
 14 15  1  0  0  0  0
 14 16  1  0  0  0  0
 14 17  1  0  0  0  0
M  END
> <VConfSearch Rank>
119

> <Conf_Id>
7

> <Delta U+W>
-0.041

> <U+W>
-49.468

> <U>
14.121

> <W>
-63.589

> <W(PB)>
-65.660

> <W(SA)>
2.071

> <Valence>
15.230

> <Coulomb>
-1.333

> <VdW>
0.224

> <VdW6>
-4.212

> <VdW12>
4.436

> <Bond>
0.044

> <Angle>
2.230

> <Pdih>
12.956

> <Idih>
0.000

> <Tether>
0.000

$$$$
VeraChem MOL file


 17 16  0  0  0  0  0  0  0  0999 V2000     
   19.7959   18.5676   19.6170 C   0  0  0  0  0  0  0  0  0  0  0  0
   19.4862   19.6376   19.1311 O   0  5  0  0  0  0  0  0  0  0  0  0
   19.1332   17.5565   19.4918 O   0  0  0  0  0  0  0  0  0  0  0  0
   21.1006   18.4823   20.4031 C   0  0  0  0  0  0  0  0  0  0  0  0
   21.8070   19.1942   19.9605 H   0  0  0  0  0  0  0  0  0  0  0  0
   21.5297   17.4877   20.2345 H   0  0  0  0  0  0  0  0  0  0  0  0
   20.9849   18.7413   21.8985 C   0  0  0  0  0  0  0  0  0  0  0  0
   21.9276   18.6754   22.4403 H   0  0  0  0  0  0  0  0  0  0  0  0
   19.8596   19.0327   22.5617 C   0  0  0  0  0  0  0  0  0  0  0  0
   18.9040   19.1056   22.0438 H   0  0  0  0  0  0  0  0  0  0  0  0
   19.7985   19.2805   24.0526 C   0  0  0  0  0  0  0  0  0  0  0  0
   18.9782   18.6968   24.4918 H   0  0  0  0  0  0  0  0  0  0  0  0
   20.7231   18.9392   24.5381 H   0  0  0  0  0  0  0  0  0  0  0  0
   19.5849   20.7761   24.3569 C   0  0  0  0  0  0  0  0  0  0  0  0
   19.5400   20.9499   25.4399 H   0  0  0  0  0  0  0  0  0  0  0  0
   20.4075   21.3782   23.9488 H   0  0  0  0  0  0  0  0  0  0  0  0
   18.6464   21.1355   23.9147 H   0  0  0  0  0  0  0  0  0  0  0  0
  1  2  1  0  0  0  0
  1  3  2  0  0  0  0
  1  4  1  0  0  0  0
  4  5  1  0  0  0  0
  4  6  1  0  0  0  0
  4  7  1  0  0  0  0
  7  8  1  0  0  0  0
  7  9  2  0  0  0  0
  9 10  1  0  0  0  0
  9 11  1  0  0  0  0
 11 12  1  0  0  0  0
 11 13  1  0  0  0  0
 11 14  1  0  0  0  0
 14 15  1  0  0  0  0
 14 16  1  0  0  0  0
 14 17  1  0  0  0  0
M  END
> <VConfSearch Rank>
120

> <Conf_Id>
39

> <Delta U+W>
-0.422

> <U+W>
-49.849

> <U>
14.465

> <W>
-64.314

> <W(PB)>
-66.406

> <W(SA)>
2.093

> <Valence>
14.072

> <Coulomb>
-0.199

> <VdW>
0.592

> <VdW6>
-5.019

> <VdW12>
5.611

> <Bond>
0.085

> <Angle>
2.748

> <Pdih>
11.238

> <Idih>
0.001

> <Tether>
0.000

$$$$
VeraChem MOL file


 17 16  0  0  0  0  0  0  0  0999 V2000     
   17.9851   21.1299   23.5406 C   0  0  0  0  0  0  0  0  0  0  0  0
   18.2758   21.5297   24.6508 O   0  5  0  0  0  0  0  0  0  0  0  0
   16.8673   20.7710   23.2270 O   0  0  0  0  0  0  0  0  0  0  0  0
   19.0818   21.0820   22.4848 C   0  0  0  0  0  0  0  0  0  0  0  0
   19.6868   21.9902   22.5889 H   0  0  0  0  0  0  0  0  0  0  0  0
   18.6086   21.1234   21.4964 H   0  0  0  0  0  0  0  0  0  0  0  0
   19.9608   19.8528   22.6157 C   0  0  0  0  0  0  0  0  0  0  0  0
   20.5879   19.8222   23.5063 H   0  0  0  0  0  0  0  0  0  0  0  0
   19.9932   18.8546   21.7277 C   0  0  0  0  0  0  0  0  0  0  0  0
   19.3637   18.8844   20.8389 H   0  0  0  0  0  0  0  0  0  0  0  0
   20.8676   17.6279   21.8618 C   0  0  0  0  0  0  0  0  0  0  0  0
   21.2652   17.5490   22.8830 H   0  0  0  0  0  0  0  0  0  0  0  0
   20.2681   16.7243   21.6863 H   0  0  0  0  0  0  0  0  0  0  0  0
   22.0383   17.6701   20.8604 C   0  0  0  0  0  0  0  0  0  0  0  0
   22.6677   18.5530   21.0334 H   0  0  0  0  0  0  0  0  0  0  0  0
   22.6688   16.7771   20.9620 H   0  0  0  0  0  0  0  0  0  0  0  0
   21.6689   17.7104   19.8273 H   0  0  0  0  0  0  0  0  0  0  0  0
  1  2  1  0  0  0  0
  1  3  2  0  0  0  0
  1  4  1  0  0  0  0
  4  5  1  0  0  0  0
  4  6  1  0  0  0  0
  4  7  1  0  0  0  0
  7  8  1  0  0  0  0
  7  9  2  0  0  0  0
  9 10  1  0  0  0  0
  9 11  1  0  0  0  0
 11 12  1  0  0  0  0
 11 13  1  0  0  0  0
 11 14  1  0  0  0  0
 14 15  1  0  0  0  0
 14 16  1  0  0  0  0
 14 17  1  0  0  0  0
M  END
> <VConfSearch Rank>
121

> <Conf_Id>
38

> <Delta U+W>
0.000

> <U+W>
-49.427

> <U>
13.666

> <W>
-63.093

> <W(PB)>
-65.225

> <W(SA)>
2.132

> <Valence>
15.226

> <Coulomb>
-1.822

> <VdW>
0.261

> <VdW6>
-4.165

> <VdW12>
4.426

> <Bond>
0.044

> <Angle>
2.229

> <Pdih>
12.953

> <Idih>
0.000

> <Tether>
0.000

$$$$
VeraChem MOL file


 17 16  0  0  0  0  0  0  0  0999 V2000     
   18.4294   18.4629   19.5312 C   0  0  0  0  0  0  0  0  0  0  0  0
   17.8657   17.4059   19.7357 O   0  5  0  0  0  0  0  0  0  0  0  0
   18.9093   18.7720   18.4583 O   0  0  0  0  0  0  0  0  0  0  0  0
   18.5366   19.4581   20.6791 C   0  0  0  0  0  0  0  0  0  0  0  0
   17.7327   19.2453   21.3940 H   0  0  0  0  0  0  0  0  0  0  0  0
   18.3483   20.4588   20.2735 H   0  0  0  0  0  0  0  0  0  0  0  0
   19.8925   19.4179   21.3580 C   0  0  0  0  0  0  0  0  0  0  0  0
   20.7261   19.7736   20.7532 H   0  0  0  0  0  0  0  0  0  0  0  0
   20.0954   18.9827   22.6052 C   0  0  0  0  0  0  0  0  0  0  0  0
   19.2618   18.6242   23.2083 H   0  0  0  0  0  0  0  0  0  0  0  0
   21.4486   18.9397   23.2791 C   0  0  0  0  0  0  0  0  0  0  0  0
   21.6005   17.9558   23.7433 H   0  0  0  0  0  0  0  0  0  0  0  0
   22.2508   19.0662   22.5390 H   0  0  0  0  0  0  0  0  0  0  0  0
   21.5677   20.0384   24.3532 C   0  0  0  0  0  0  0  0  0  0  0  0
   20.8001   19.9134   25.1282 H   0  0  0  0  0  0  0  0  0  0  0  0
   22.5513   20.0018   24.8391 H   0  0  0  0  0  0  0  0  0  0  0  0
   21.4448   21.0343   23.9074 H   0  0  0  0  0  0  0  0  0  0  0  0
  1  2  1  0  0  0  0
  1  3  2  0  0  0  0
  1  4  1  0  0  0  0
  4  5  1  0  0  0  0
  4  6  1  0  0  0  0
  4  7  1  0  0  0  0
  7  8  1  0  0  0  0
  7  9  2  0  0  0  0
  9 10  1  0  0  0  0
  9 11  1  0  0  0  0
 11 12  1  0  0  0  0
 11 13  1  0  0  0  0
 11 14  1  0  0  0  0
 14 15  1  0  0  0  0
 14 16  1  0  0  0  0
 14 17  1  0  0  0  0
M  END
> <VConfSearch Rank>
122

> <Conf_Id>
35

> <Delta U+W>
-0.102

> <U+W>
-49.529

> <U>
13.666

> <W>
-63.195

> <W(PB)>
-65.299

> <W(SA)>
2.103

> <Valence>
15.226

> <Coulomb>
-1.822

> <VdW>
0.261

> <VdW6>
-4.165

> <VdW12>
4.426

> <Bond>
0.044

> <Angle>
2.229

> <Pdih>
12.953

> <Idih>
0.000

> <Tether>
0.000

$$$$
VeraChem MOL file


 17 16  0  0  0  0  0  0  0  0999 V2000     
   19.7456   19.7971   19.3766 C   0  0  0  0  0  0  0  0  0  0  0  0
   20.7810   20.1737   18.8637 O   0  5  0  0  0  0  0  0  0  0  0  0
   18.9807   19.0135   18.8495 O   0  0  0  0  0  0  0  0  0  0  0  0
   19.3841   20.3455   20.7507 C   0  0  0  0  0  0  0  0  0  0  0  0
   18.2968   20.2733   20.8736 H   0  0  0  0  0  0  0  0  0  0  0  0
   19.6378   21.4119   20.7629 H   0  0  0  0  0  0  0  0  0  0  0  0
   20.1087   19.6253   21.8722 C   0  0  0  0  0  0  0  0  0  0  0  0
   21.1845   19.7902   21.8975 H   0  0  0  0  0  0  0  0  0  0  0  0
   19.5018   18.8390   22.7700 C   0  0  0  0  0  0  0  0  0  0  0  0
   18.4236   18.6941   22.7102 H   0  0  0  0  0  0  0  0  0  0  0  0
   20.1637   18.0871   23.9124 C   0  0  0  0  0  0  0  0  0  0  0  0
   19.7019   18.3983   24.8592 H   0  0  0  0  0  0  0  0  0  0  0  0
   19.9387   17.0167   23.8121 H   0  0  0  0  0  0  0  0  0  0  0  0
   21.6939   18.2716   24.0145 C   0  0  0  0  0  0  0  0  0  0  0  0
   21.9541   19.3269   24.1702 H   0  0  0  0  0  0  0  0  0  0  0  0
   22.0951   17.6983   24.8603 H   0  0  0  0  0  0  0  0  0  0  0  0
   22.1947   17.9204   23.1027 H   0  0  0  0  0  0  0  0  0  0  0  0
  1  2  1  0  0  0  0
  1  3  2  0  0  0  0
  1  4  1  0  0  0  0
  4  5  1  0  0  0  0
  4  6  1  0  0  0  0
  4  7  1  0  0  0  0
  7  8  1  0  0  0  0
  7  9  2  0  0  0  0
  9 10  1  0  0  0  0
  9 11  1  0  0  0  0
 11 12  1  0  0  0  0
 11 13  1  0  0  0  0
 11 14  1  0  0  0  0
 14 15  1  0  0  0  0
 14 16  1  0  0  0  0
 14 17  1  0  0  0  0
M  END
> <VConfSearch Rank>
123

> <Conf_Id>
19

> <Delta U+W>
-0.496

> <U+W>
-49.923

> <U>
13.863

> <W>
-63.786

> <W(PB)>
-65.856

> <W(SA)>
2.070

> <Valence>
14.117

> <Coulomb>
-1.228

> <VdW>
0.974

> <VdW6>
-4.885

> <VdW12>
5.859

> <Bond>
0.094

> <Angle>
2.818

> <Pdih>
11.205

> <Idih>
0.000

> <Tether>
0.000

$$$$
VeraChem MOL file


 17 16  0  0  0  0  0  0  0  0999 V2000     
   18.5239   21.4928   21.9801 C   0  0  0  0  0  0  0  0  0  0  0  0
   17.7185   21.1815   21.1250 O   0  5  0  0  0  0  0  0  0  0  0  0
   18.2207   22.0430   23.0205 O   0  0  0  0  0  0  0  0  0  0  0  0
   19.9953   21.1874   21.7321 C   0  0  0  0  0  0  0  0  0  0  0  0
   20.5777   22.0546   22.0642 H   0  0  0  0  0  0  0  0  0  0  0  0
   20.1486   21.0930   20.6503 H   0  0  0  0  0  0  0  0  0  0  0  0
   20.4598   19.9391   22.4579 C   0  0  0  0  0  0  0  0  0  0  0  0
   20.4829   20.0145   23.5446 H   0  0  0  0  0  0  0  0  0  0  0  0
   20.8166   18.8045   21.8482 C   0  0  0  0  0  0  0  0  0  0  0  0
   20.7884   18.7280   20.7618 H   0  0  0  0  0  0  0  0  0  0  0  0
   21.2767   17.5600   22.5740 C   0  0  0  0  0  0  0  0  0  0  0  0
   22.1985   17.1808   22.1125 H   0  0  0  0  0  0  0  0  0  0  0  0
   21.5201   17.7928   23.6198 H   0  0  0  0  0  0  0  0  0  0  0  0
   20.1938   16.4642   22.5344 C   0  0  0  0  0  0  0  0  0  0  0  0
   19.9582   16.1836   21.4995 H   0  0  0  0  0  0  0  0  0  0  0  0
   20.5327   15.5636   23.0628 H   0  0  0  0  0  0  0  0  0  0  0  0
   19.2691   16.8127   23.0131 H   0  0  0  0  0  0  0  0  0  0  0  0
  1  2  1  0  0  0  0
  1  3  2  0  0  0  0
  1  4  1  0  0  0  0
  4  5  1  0  0  0  0
  4  6  1  0  0  0  0
  4  7  1  0  0  0  0
  7  8  1  0  0  0  0
  7  9  2  0  0  0  0
  9 10  1  0  0  0  0
  9 11  1  0  0  0  0
 11 12  1  0  0  0  0
 11 13  1  0  0  0  0
 11 14  1  0  0  0  0
 14 15  1  0  0  0  0
 14 16  1  0  0  0  0
 14 17  1  0  0  0  0
M  END
> <VConfSearch Rank>
124

> <Conf_Id>
7

> <Delta U+W>
-0.041

> <U+W>
-49.468

> <U>
14.121

> <W>
-63.589

> <W(PB)>
-65.660

> <W(SA)>
2.071

> <Valence>
15.230

> <Coulomb>
-1.333

> <VdW>
0.224

> <VdW6>
-4.212

> <VdW12>
4.436

> <Bond>
0.044

> <Angle>
2.230

> <Pdih>
12.956

> <Idih>
0.000

> <Tether>
0.000

$$$$
VeraChem MOL file


 17 16  0  0  0  0  0  0  0  0999 V2000     
   21.0916   16.6885   22.4189 C   0  0  0  0  0  0  0  0  0  0  0  0
   20.6883   16.2302   21.3681 O   0  5  0  0  0  0  0  0  0  0  0  0
   20.8719   16.1807   23.5010 O   0  0  0  0  0  0  0  0  0  0  0  0
   21.9428   17.9538   22.3752 C   0  0  0  0  0  0  0  0  0  0  0  0
   22.5138   17.9429   21.4394 H   0  0  0  0  0  0  0  0  0  0  0  0
   22.6834   17.8883   23.1808 H   0  0  0  0  0  0  0  0  0  0  0  0
   21.1779   19.2647   22.4906 C   0  0  0  0  0  0  0  0  0  0  0  0
   21.8044   20.1551   22.4573 H   0  0  0  0  0  0  0  0  0  0  0  0
   19.8522   19.3930   22.6218 C   0  0  0  0  0  0  0  0  0  0  0  0
   19.2030   18.5189   22.6569 H   0  0  0  0  0  0  0  0  0  0  0  0
   19.1398   20.7225   22.7343 C   0  0  0  0  0  0  0  0  0  0  0  0
   18.4323   20.6938   23.5741 H   0  0  0  0  0  0  0  0  0  0  0  0
   19.8563   21.5261   22.9534 H   0  0  0  0  0  0  0  0  0  0  0  0
   18.3813   21.0559   21.4349 C   0  0  0  0  0  0  0  0  0  0  0  0
   17.8652   22.0207   21.5226 H   0  0  0  0  0  0  0  0  0  0  0  0
   19.0730   21.1153   20.5842 H   0  0  0  0  0  0  0  0  0  0  0  0
   17.6303   20.2867   21.2116 H   0  0  0  0  0  0  0  0  0  0  0  0
  1  2  1  0  0  0  0
  1  3  2  0  0  0  0
  1  4  1  0  0  0  0
  4  5  1  0  0  0  0
  4  6  1  0  0  0  0
  4  7  1  0  0  0  0
  7  8  1  0  0  0  0
  7  9  2  0  0  0  0
  9 10  1  0  0  0  0
  9 11  1  0  0  0  0
 11 12  1  0  0  0  0
 11 13  1  0  0  0  0
 11 14  1  0  0  0  0
 14 15  1  0  0  0  0
 14 16  1  0  0  0  0
 14 17  1  0  0  0  0
M  END
> <VConfSearch Rank>
125

> <Conf_Id>
39

> <Delta U+W>
-0.422

> <U+W>
-49.849

> <U>
14.465

> <W>
-64.314

> <W(PB)>
-66.406

> <W(SA)>
2.093

> <Valence>
14.072

> <Coulomb>
-0.199

> <VdW>
0.592

> <VdW6>
-5.019

> <VdW12>
5.611

> <Bond>
0.085

> <Angle>
2.748

> <Pdih>
11.238

> <Idih>
0.001

> <Tether>
0.000

$$$$
VeraChem MOL file


 17 16  0  0  0  0  0  0  0  0999 V2000     
   23.0212   20.4982   22.2987 C   0  0  0  0  0  0  0  0  0  0  0  0
   23.8976   19.9127   21.6938 O   0  5  0  0  0  0  0  0  0  0  0  0
   23.1755   20.9843   23.4018 O   0  0  0  0  0  0  0  0  0  0  0  0
   21.6576   20.6338   21.6341 C   0  0  0  0  0  0  0  0  0  0  0  0
   21.8225   20.8582   20.5740 H   0  0  0  0  0  0  0  0  0  0  0  0
   21.1481   21.5015   22.0702 H   0  0  0  0  0  0  0  0  0  0  0  0
   20.8149   19.3806   21.7762 C   0  0  0  0  0  0  0  0  0  0  0  0
   21.1789   18.5110   21.2298 H   0  0  0  0  0  0  0  0  0  0  0  0
   19.7008   19.3038   22.5105 C   0  0  0  0  0  0  0  0  0  0  0  0
   19.3391   20.1729   23.0590 H   0  0  0  0  0  0  0  0  0  0  0  0
   18.8640   18.0523   22.6540 C   0  0  0  0  0  0  0  0  0  0  0  0
   19.4197   17.1750   22.2952 H   0  0  0  0  0  0  0  0  0  0  0  0
   18.6436   17.8734   23.7151 H   0  0  0  0  0  0  0  0  0  0  0  0
   17.5437   18.1758   21.8688 C   0  0  0  0  0  0  0  0  0  0  0  0
   17.7390   18.3297   20.7994 H   0  0  0  0  0  0  0  0  0  0  0  0
   16.9405   17.2650   21.9773 H   0  0  0  0  0  0  0  0  0  0  0  0
   16.9489   19.0236   22.2334 H   0  0  0  0  0  0  0  0  0  0  0  0
  1  2  1  0  0  0  0
  1  3  2  0  0  0  0
  1  4  1  0  0  0  0
  4  5  1  0  0  0  0
  4  6  1  0  0  0  0
  4  7  1  0  0  0  0
  7  8  1  0  0  0  0
  7  9  2  0  0  0  0
  9 10  1  0  0  0  0
  9 11  1  0  0  0  0
 11 12  1  0  0  0  0
 11 13  1  0  0  0  0
 11 14  1  0  0  0  0
 14 15  1  0  0  0  0
 14 16  1  0  0  0  0
 14 17  1  0  0  0  0
M  END
> <VConfSearch Rank>
126

> <Conf_Id>
38

> <Delta U+W>
0.000

> <U+W>
-49.427

> <U>
13.666

> <W>
-63.093

> <W(PB)>
-65.225

> <W(SA)>
2.132

> <Valence>
15.226

> <Coulomb>
-1.822

> <VdW>
0.261

> <VdW6>
-4.165

> <VdW12>
4.426

> <Bond>
0.044

> <Angle>
2.229

> <Pdih>
12.953

> <Idih>
0.000

> <Tether>
0.000

$$$$
VeraChem MOL file


 17 16  0  0  0  0  0  0  0  0999 V2000     
   18.0478   21.6883   22.1618 C   0  0  0  0  0  0  0  0  0  0  0  0
   18.1661   22.3317   21.1376 O   0  5  0  0  0  0  0  0  0  0  0  0
   17.8287   22.1880   23.2477 O   0  0  0  0  0  0  0  0  0  0  0  0
   18.1754   20.1728   22.0814 C   0  0  0  0  0  0  0  0  0  0  0  0
   17.9441   19.8629   21.0552 H   0  0  0  0  0  0  0  0  0  0  0  0
   17.4058   19.7370   22.7290 H   0  0  0  0  0  0  0  0  0  0  0  0
   19.5480   19.6823   22.5011 C   0  0  0  0  0  0  0  0  0  0  0  0
   19.7855   19.8119   23.5565 H   0  0  0  0  0  0  0  0  0  0  0  0
   20.4344   19.1278   21.6686 C   0  0  0  0  0  0  0  0  0  0  0  0
   20.1975   19.0015   20.6127 H   0  0  0  0  0  0  0  0  0  0  0  0
   21.8042   18.6430   22.0880 C   0  0  0  0  0  0  0  0  0  0  0  0
   22.5625   19.0274   21.3926 H   0  0  0  0  0  0  0  0  0  0  0  0
   22.0620   19.0327   23.0825 H   0  0  0  0  0  0  0  0  0  0  0  0
   21.8632   17.1032   22.1126 C   0  0  0  0  0  0  0  0  0  0  0  0
   21.6467   16.6870   21.1200 H   0  0  0  0  0  0  0  0  0  0  0  0
   22.8596   16.7574   22.4170 H   0  0  0  0  0  0  0  0  0  0  0  0
   21.1300   16.6962   22.8215 H   0  0  0  0  0  0  0  0  0  0  0  0
  1  2  1  0  0  0  0
  1  3  2  0  0  0  0
  1  4  1  0  0  0  0
  4  5  1  0  0  0  0
  4  6  1  0  0  0  0
  4  7  1  0  0  0  0
  7  8  1  0  0  0  0
  7  9  2  0  0  0  0
  9 10  1  0  0  0  0
  9 11  1  0  0  0  0
 11 12  1  0  0  0  0
 11 13  1  0  0  0  0
 11 14  1  0  0  0  0
 14 15  1  0  0  0  0
 14 16  1  0  0  0  0
 14 17  1  0  0  0  0
M  END
> <VConfSearch Rank>
127

> <Conf_Id>
35

> <Delta U+W>
-0.102

> <U+W>
-49.529

> <U>
13.666

> <W>
-63.195

> <W(PB)>
-65.299

> <W(SA)>
2.103

> <Valence>
15.226

> <Coulomb>
-1.822

> <VdW>
0.261

> <VdW6>
-4.165

> <VdW12>
4.426

> <Bond>
0.044

> <Angle>
2.229

> <Pdih>
12.953

> <Idih>
0.000

> <Tether>
0.000

$$$$
VeraChem MOL file


 17 16  0  0  0  0  0  0  0  0999 V2000     
   20.3676   17.6264   19.6507 C   0  0  0  0  0  0  0  0  0  0  0  0
   19.3926   16.9108   19.5308 O   0  5  0  0  0  0  0  0  0  0  0  0
   20.7998   18.3284   18.7578 O   0  0  0  0  0  0  0  0  0  0  0  0
   21.0912   17.6352   20.9908 C   0  0  0  0  0  0  0  0  0  0  0  0
   22.1269   17.9522   20.8192 H   0  0  0  0  0  0  0  0  0  0  0  0
   21.1288   16.6029   21.3577 H   0  0  0  0  0  0  0  0  0  0  0  0
   20.4102   18.5262   22.0124 C   0  0  0  0  0  0  0  0  0  0  0  0
   19.4352   18.1737   22.3445 H   0  0  0  0  0  0  0  0  0  0  0  0
   20.9385   19.6633   22.4822 C   0  0  0  0  0  0  0  0  0  0  0  0
   21.9150   19.9865   22.1231 H   0  0  0  0  0  0  0  0  0  0  0  0
   20.3124   20.6025   23.4993 C   0  0  0  0  0  0  0  0  0  0  0  0
   20.9959   20.7115   24.3523 H   0  0  0  0  0  0  0  0  0  0  0  0
   20.2313   21.6044   23.0564 H   0  0  0  0  0  0  0  0  0  0  0  0
   18.9240   20.1689   24.0193 C   0  0  0  0  0  0  0  0  0  0  0  0
   18.9775   19.1924   24.5182 H   0  0  0  0  0  0  0  0  0  0  0  0
   18.5407   20.8969   24.7460 H   0  0  0  0  0  0  0  0  0  0  0  0
   18.1993   20.1009   23.1974 H   0  0  0  0  0  0  0  0  0  0  0  0
  1  2  1  0  0  0  0
  1  3  2  0  0  0  0
  1  4  1  0  0  0  0
  4  5  1  0  0  0  0
  4  6  1  0  0  0  0
  4  7  1  0  0  0  0
  7  8  1  0  0  0  0
  7  9  2  0  0  0  0
  9 10  1  0  0  0  0
  9 11  1  0  0  0  0
 11 12  1  0  0  0  0
 11 13  1  0  0  0  0
 11 14  1  0  0  0  0
 14 15  1  0  0  0  0
 14 16  1  0  0  0  0
 14 17  1  0  0  0  0
M  END
> <VConfSearch Rank>
128

> <Conf_Id>
19

> <Delta U+W>
-0.496

> <U+W>
-49.923

> <U>
13.863

> <W>
-63.786

> <W(PB)>
-65.856

> <W(SA)>
2.070

> <Valence>
14.117

> <Coulomb>
-1.228

> <VdW>
0.974

> <VdW6>
-4.885

> <VdW12>
5.859

> <Bond>
0.094

> <Angle>
2.818

> <Pdih>
11.205

> <Idih>
0.000

> <Tether>
0.000

$$$$
VeraChem MOL file


 17 16  0  0  0  0  0  0  0  0999 V2000     
   22.9156   20.0098   22.5590 C   0  0  0  0  0  0  0  0  0  0  0  0
   22.8826   21.1027   22.0287 O   0  5  0  0  0  0  0  0  0  0  0  0
   23.4266   19.8036   23.6422 O   0  0  0  0  0  0  0  0  0  0  0  0
   22.2926   18.8307   21.8232 C   0  0  0  0  0  0  0  0  0  0  0  0
   22.9631   17.9715   21.9397 H   0  0  0  0  0  0  0  0  0  0  0  0
   22.2618   19.0711   20.7537 H   0  0  0  0  0  0  0  0  0  0  0  0
   20.9098   18.4866   22.3431 C   0  0  0  0  0  0  0  0  0  0  0  0
   20.8799   18.0889   23.3571 H   0  0  0  0  0  0  0  0  0  0  0  0
   19.7823   18.6509   21.6445 C   0  0  0  0  0  0  0  0  0  0  0  0
   19.8123   19.0533   20.6325 H   0  0  0  0  0  0  0  0  0  0  0  0
   18.4041   18.3098   22.1659 C   0  0  0  0  0  0  0  0  0  0  0  0
   17.8596   17.7195   21.4165 H   0  0  0  0  0  0  0  0  0  0  0  0
   18.4777   17.6852   23.0668 H   0  0  0  0  0  0  0  0  0  0  0  0
   17.6053   19.5861   22.4942 C   0  0  0  0  0  0  0  0  0  0  0  0
   17.4827   20.2122   21.6007 H   0  0  0  0  0  0  0  0  0  0  0  0
   16.6063   19.3329   22.8725 H   0  0  0  0  0  0  0  0  0  0  0  0
   18.1193   20.1812   23.2607 H   0  0  0  0  0  0  0  0  0  0  0  0
  1  2  1  0  0  0  0
  1  3  2  0  0  0  0
  1  4  1  0  0  0  0
  4  5  1  0  0  0  0
  4  6  1  0  0  0  0
  4  7  1  0  0  0  0
  7  8  1  0  0  0  0
  7  9  2  0  0  0  0
  9 10  1  0  0  0  0
  9 11  1  0  0  0  0
 11 12  1  0  0  0  0
 11 13  1  0  0  0  0
 11 14  1  0  0  0  0
 14 15  1  0  0  0  0
 14 16  1  0  0  0  0
 14 17  1  0  0  0  0
M  END
> <VConfSearch Rank>
129

> <Conf_Id>
7

> <Delta U+W>
-0.041

> <U+W>
-49.468

> <U>
14.121

> <W>
-63.589

> <W(PB)>
-65.660

> <W(SA)>
2.071

> <Valence>
15.230

> <Coulomb>
-1.333

> <VdW>
0.224

> <VdW6>
-4.212

> <VdW12>
4.436

> <Bond>
0.044

> <Angle>
2.230

> <Pdih>
12.956

> <Idih>
0.000

> <Tether>
0.000

$$$$
VeraChem MOL file


 17 16  0  0  0  0  0  0  0  0999 V2000     
   21.4350   21.7025   22.1256 C   0  0  0  0  0  0  0  0  0  0  0  0
   21.8731   21.6634   20.9926 O   0  5  0  0  0  0  0  0  0  0  0  0
   22.1241   21.9101   23.1049 O   0  0  0  0  0  0  0  0  0  0  0  0
   19.9352   21.5081   22.3267 C   0  0  0  0  0  0  0  0  0  0  0  0
   19.4227   21.9113   21.4455 H   0  0  0  0  0  0  0  0  0  0  0  0
   19.6253   22.1369   23.1696 H   0  0  0  0  0  0  0  0  0  0  0  0
   19.4849   20.0742   22.5672 C   0  0  0  0  0  0  0  0  0  0  0  0
   18.4111   19.9580   22.7083 H   0  0  0  0  0  0  0  0  0  0  0  0
   20.2785   18.9976   22.6128 C   0  0  0  0  0  0  0  0  0  0  0  0
   21.3554   19.0859   22.4740 H   0  0  0  0  0  0  0  0  0  0  0  0
   19.7795   17.5907   22.8570 C   0  0  0  0  0  0  0  0  0  0  0  0
   20.3957   17.1076   23.6274 H   0  0  0  0  0  0  0  0  0  0  0  0
   18.7506   17.6083   23.2419 H   0  0  0  0  0  0  0  0  0  0  0  0
   19.8257   16.7546   21.5633 C   0  0  0  0  0  0  0  0  0  0  0  0
   19.4639   15.7345   21.7466 H   0  0  0  0  0  0  0  0  0  0  0  0
   19.1954   17.2052   20.7853 H   0  0  0  0  0  0  0  0  0  0  0  0
   20.8511   16.6882   21.1765 H   0  0  0  0  0  0  0  0  0  0  0  0
  1  2  1  0  0  0  0
  1  3  2  0  0  0  0
  1  4  1  0  0  0  0
  4  5  1  0  0  0  0
  4  6  1  0  0  0  0
  4  7  1  0  0  0  0
  7  8  1  0  0  0  0
  7  9  2  0  0  0  0
  9 10  1  0  0  0  0
  9 11  1  0  0  0  0
 11 12  1  0  0  0  0
 11 13  1  0  0  0  0
 11 14  1  0  0  0  0
 14 15  1  0  0  0  0
 14 16  1  0  0  0  0
 14 17  1  0  0  0  0
M  END
> <VConfSearch Rank>
130

> <Conf_Id>
39

> <Delta U+W>
-0.422

> <U+W>
-49.849

> <U>
14.465

> <W>
-64.314

> <W(PB)>
-66.406

> <W(SA)>
2.093

> <Valence>
14.072

> <Coulomb>
-0.199

> <VdW>
0.592

> <VdW6>
-5.019

> <VdW12>
5.611

> <Bond>
0.085

> <Angle>
2.748

> <Pdih>
11.238

> <Idih>
0.001

> <Tether>
0.000

$$$$
VeraChem MOL file


 17 16  0  0  0  0  0  0  0  0999 V2000     
   21.2788   18.0285   19.4411 C   0  0  0  0  0  0  0  0  0  0  0  0
   21.6696   16.8794   19.5048 O   0  5  0  0  0  0  0  0  0  0  0  0
   21.8493   18.8984   18.8128 O   0  0  0  0  0  0  0  0  0  0  0  0
   20.0016   18.3947   20.1856 C   0  0  0  0  0  0  0  0  0  0  0  0
   19.2873   17.5747   20.0488 H   0  0  0  0  0  0  0  0  0  0  0  0
   19.5679   19.2811   19.7072 H   0  0  0  0  0  0  0  0  0  0  0  0
   20.2401   18.6366   21.6639 C   0  0  0  0  0  0  0  0  0  0  0  0
   20.5198   17.7551   22.2401 H   0  0  0  0  0  0  0  0  0  0  0  0
   20.1287   19.8288   22.2575 C   0  0  0  0  0  0  0  0  0  0  0  0
   19.8519   20.7103   21.6801 H   0  0  0  0  0  0  0  0  0  0  0  0
   20.3705   20.0688   23.7310 C   0  0  0  0  0  0  0  0  0  0  0  0
   20.8860   19.2091   24.1809 H   0  0  0  0  0  0  0  0  0  0  0  0
   21.0314   20.9363   23.8618 H   0  0  0  0  0  0  0  0  0  0  0  0
   19.0446   20.3159   24.4768 C   0  0  0  0  0  0  0  0  0  0  0  0
   18.3765   19.4498   24.3816 H   0  0  0  0  0  0  0  0  0  0  0  0
   19.2265   20.4900   25.5453 H   0  0  0  0  0  0  0  0  0  0  0  0
   18.5254   21.1946   24.0720 H   0  0  0  0  0  0  0  0  0  0  0  0
  1  2  1  0  0  0  0
  1  3  2  0  0  0  0
  1  4  1  0  0  0  0
  4  5  1  0  0  0  0
  4  6  1  0  0  0  0
  4  7  1  0  0  0  0
  7  8  1  0  0  0  0
  7  9  2  0  0  0  0
  9 10  1  0  0  0  0
  9 11  1  0  0  0  0
 11 12  1  0  0  0  0
 11 13  1  0  0  0  0
 11 14  1  0  0  0  0
 14 15  1  0  0  0  0
 14 16  1  0  0  0  0
 14 17  1  0  0  0  0
M  END
> <VConfSearch Rank>
131

> <Conf_Id>
38

> <Delta U+W>
0.000

> <U+W>
-49.427

> <U>
13.666

> <W>
-63.093

> <W(PB)>
-65.225

> <W(SA)>
2.132

> <Valence>
15.226

> <Coulomb>
-1.822

> <VdW>
0.261

> <VdW6>
-4.165

> <VdW12>
4.426

> <Bond>
0.044

> <Angle>
2.229

> <Pdih>
12.953

> <Idih>
0.000

> <Tether>
0.000

$$$$
VeraChem MOL file


 17 16  0  0  0  0  0  0  0  0999 V2000     
   18.7662   16.5672   23.0961 C   0  0  0  0  0  0  0  0  0  0  0  0
   18.9077   15.7176   22.2389 O   0  5  0  0  0  0  0  0  0  0  0  0
   17.7680   16.6705   23.7816 O   0  0  0  0  0  0  0  0  0  0  0  0
   19.9027   17.5539   23.3295 C   0  0  0  0  0  0  0  0  0  0  0  0
   20.8339   17.0943   22.9772 H   0  0  0  0  0  0  0  0  0  0  0  0
   20.0051   17.6971   24.4114 H   0  0  0  0  0  0  0  0  0  0  0  0
   19.6631   18.8877   22.6481 C   0  0  0  0  0  0  0  0  0  0  0  0
   18.8448   19.4790   23.0580 H   0  0  0  0  0  0  0  0  0  0  0  0
   20.3783   19.3424   21.6147 C   0  0  0  0  0  0  0  0  0  0  0  0
   21.1943   18.7492   21.2033 H   0  0  0  0  0  0  0  0  0  0  0  0
   20.1354   20.6709   20.9339 C   0  0  0  0  0  0  0  0  0  0  0  0
   20.1037   20.5292   19.8451 H   0  0  0  0  0  0  0  0  0  0  0  0
   19.1588   21.0802   21.2271 H   0  0  0  0  0  0  0  0  0  0  0  0
   21.2405   21.6850   21.2880 C   0  0  0  0  0  0  0  0  0  0  0  0
   22.2254   21.3177   20.9708 H   0  0  0  0  0  0  0  0  0  0  0  0
   21.0592   22.6466   20.7907 H   0  0  0  0  0  0  0  0  0  0  0  0
   21.2742   21.8625   22.3711 H   0  0  0  0  0  0  0  0  0  0  0  0
  1  2  1  0  0  0  0
  1  3  2  0  0  0  0
  1  4  1  0  0  0  0
  4  5  1  0  0  0  0
  4  6  1  0  0  0  0
  4  7  1  0  0  0  0
  7  8  1  0  0  0  0
  7  9  2  0  0  0  0
  9 10  1  0  0  0  0
  9 11  1  0  0  0  0
 11 12  1  0  0  0  0
 11 13  1  0  0  0  0
 11 14  1  0  0  0  0
 14 15  1  0  0  0  0
 14 16  1  0  0  0  0
 14 17  1  0  0  0  0
M  END
> <VConfSearch Rank>
132

> <Conf_Id>
35

> <Delta U+W>
-0.102

> <U+W>
-49.529

> <U>
13.666

> <W>
-63.195

> <W(PB)>
-65.299

> <W(SA)>
2.103

> <Valence>
15.226

> <Coulomb>
-1.822

> <VdW>
0.261

> <VdW6>
-4.165

> <VdW12>
4.426

> <Bond>
0.044

> <Angle>
2.229

> <Pdih>
12.953

> <Idih>
0.000

> <Tether>
0.000

$$$$
VeraChem MOL file


 17 16  0  0  0  0  0  0  0  0999 V2000     
   21.0887   16.3259   22.7193 C   0  0  0  0  0  0  0  0  0  0  0  0
   20.3704   15.5505   22.1194 O   0  5  0  0  0  0  0  0  0  0  0  0
   22.3005   16.2373   22.7443 O   0  0  0  0  0  0  0  0  0  0  0  0
   20.4319   17.4644   23.4887 C   0  0  0  0  0  0  0  0  0  0  0  0
   21.1183   17.7828   24.2824 H   0  0  0  0  0  0  0  0  0  0  0  0
   19.5375   17.0642   23.9801 H   0  0  0  0  0  0  0  0  0  0  0  0
   20.0561   18.6296   22.5928 C   0  0  0  0  0  0  0  0  0  0  0  0
   19.2586   18.4179   21.8827 H   0  0  0  0  0  0  0  0  0  0  0  0
   20.6440   19.8315   22.6443 C   0  0  0  0  0  0  0  0  0  0  0  0
   21.4420   20.0049   23.3656 H   0  0  0  0  0  0  0  0  0  0  0  0
   20.3215   21.0374   21.7781 C   0  0  0  0  0  0  0  0  0  0  0  0
   20.0482   21.8801   22.4273 H   0  0  0  0  0  0  0  0  0  0  0  0
   21.2332   21.3530   21.2531 H   0  0  0  0  0  0  0  0  0  0  0  0
   19.1970   20.8146   20.7428 C   0  0  0  0  0  0  0  0  0  0  0  0
   18.2531   20.5496   21.2371 H   0  0  0  0  0  0  0  0  0  0  0  0
   19.0254   21.7279   20.1584 H   0  0  0  0  0  0  0  0  0  0  0  0
   19.4604   20.0116   20.0419 H   0  0  0  0  0  0  0  0  0  0  0  0
  1  2  1  0  0  0  0
  1  3  2  0  0  0  0
  1  4  1  0  0  0  0
  4  5  1  0  0  0  0
  4  6  1  0  0  0  0
  4  7  1  0  0  0  0
  7  8  1  0  0  0  0
  7  9  2  0  0  0  0
  9 10  1  0  0  0  0
  9 11  1  0  0  0  0
 11 12  1  0  0  0  0
 11 13  1  0  0  0  0
 11 14  1  0  0  0  0
 14 15  1  0  0  0  0
 14 16  1  0  0  0  0
 14 17  1  0  0  0  0
M  END
> <VConfSearch Rank>
133

> <Conf_Id>
19

> <Delta U+W>
-0.496

> <U+W>
-49.923

> <U>
13.863

> <W>
-63.786

> <W(PB)>
-65.856

> <W(SA)>
2.070

> <Valence>
14.117

> <Coulomb>
-1.228

> <VdW>
0.974

> <VdW6>
-4.885

> <VdW12>
5.859

> <Bond>
0.094

> <Angle>
2.818

> <Pdih>
11.205

> <Idih>
0.000

> <Tether>
0.000

$$$$
VeraChem MOL file


 17 16  0  0  0  0  0  0  0  0999 V2000     
   22.0560   17.1849   23.4298 C   0  0  0  0  0  0  0  0  0  0  0  0
   21.3437   16.2386   23.7020 O   0  5  0  0  0  0  0  0  0  0  0  0
   23.1370   17.0775   22.8851 O   0  0  0  0  0  0  0  0  0  0  0  0
   21.5744   18.5816   23.8002 C   0  0  0  0  0  0  0  0  0  0  0  0
   22.4304   19.1345   24.2040 H   0  0  0  0  0  0  0  0  0  0  0  0
   20.8415   18.4882   24.6106 H   0  0  0  0  0  0  0  0  0  0  0  0
   20.9850   19.3255   22.6170 C   0  0  0  0  0  0  0  0  0  0  0  0
   21.6952   19.5926   21.8350 H   0  0  0  0  0  0  0  0  0  0  0  0
   19.6924   19.6437   22.4979 C   0  0  0  0  0  0  0  0  0  0  0  0
   18.9819   19.3719   23.2779 H   0  0  0  0  0  0  0  0  0  0  0  0
   19.1063   20.3830   21.3159 C   0  0  0  0  0  0  0  0  0  0  0  0
   18.4712   21.2059   21.6709 H   0  0  0  0  0  0  0  0  0  0  0  0
   19.9042   20.8378   20.7129 H   0  0  0  0  0  0  0  0  0  0  0  0
   18.2735   19.4369   20.4292 C   0  0  0  0  0  0  0  0  0  0  0  0
   17.4434   18.9969   20.9975 H   0  0  0  0  0  0  0  0  0  0  0  0
   17.8509   19.9784   19.5729 H   0  0  0  0  0  0  0  0  0  0  0  0
   18.8945   18.6183   20.0421 H   0  0  0  0  0  0  0  0  0  0  0  0
  1  2  1  0  0  0  0
  1  3  2  0  0  0  0
  1  4  1  0  0  0  0
  4  5  1  0  0  0  0
  4  6  1  0  0  0  0
  4  7  1  0  0  0  0
  7  8  1  0  0  0  0
  7  9  2  0  0  0  0
  9 10  1  0  0  0  0
  9 11  1  0  0  0  0
 11 12  1  0  0  0  0
 11 13  1  0  0  0  0
 11 14  1  0  0  0  0
 14 15  1  0  0  0  0
 14 16  1  0  0  0  0
 14 17  1  0  0  0  0
M  END
> <VConfSearch Rank>
134

> <Conf_Id>
7

> <Delta U+W>
-0.041

> <U+W>
-49.468

> <U>
14.121

> <W>
-63.589

> <W(PB)>
-65.660

> <W(SA)>
2.071

> <Valence>
15.230

> <Coulomb>
-1.333

> <VdW>
0.224

> <VdW6>
-4.212

> <VdW12>
4.436

> <Bond>
0.044

> <Angle>
2.230

> <Pdih>
12.956

> <Idih>
0.000

> <Tether>
0.000

$$$$
VeraChem MOL file


 17 16  0  0  0  0  0  0  0  0999 V2000     
   19.2717   21.6840   23.3037 C   0  0  0  0  0  0  0  0  0  0  0  0
   19.6858   21.6048   24.4435 O   0  5  0  0  0  0  0  0  0  0  0  0
   18.1115   21.9158   23.0256 O   0  0  0  0  0  0  0  0  0  0  0  0
   20.2668   21.5107   22.1603 C   0  0  0  0  0  0  0  0  0  0  0  0
   21.2377   21.8907   22.4991 H   0  0  0  0  0  0  0  0  0  0  0  0
   19.9548   22.1688   21.3410 H   0  0  0  0  0  0  0  0  0  0  0  0
   20.4287   20.0896   21.6398 C   0  0  0  0  0  0  0  0  0  0  0  0
   21.1435   19.9884   20.8241 H   0  0  0  0  0  0  0  0  0  0  0  0
   19.7862   19.0073   22.0946 C   0  0  0  0  0  0  0  0  0  0  0  0
   19.0673   19.0807   22.9098 H   0  0  0  0  0  0  0  0  0  0  0  0
   19.9827   17.6138   21.5401 C   0  0  0  0  0  0  0  0  0  0  0  0
   19.0055   17.1493   21.3506 H   0  0  0  0  0  0  0  0  0  0  0  0
   20.5052   17.6536   20.5744 H   0  0  0  0  0  0  0  0  0  0  0  0
   20.7871   16.7366   22.5193 C   0  0  0  0  0  0  0  0  0  0  0  0
   20.9254   15.7265   22.1125 H   0  0  0  0  0  0  0  0  0  0  0  0
   21.7795   17.1685   22.7043 H   0  0  0  0  0  0  0  0  0  0  0  0
   20.2678   16.6480   23.4826 H   0  0  0  0  0  0  0  0  0  0  0  0
  1  2  1  0  0  0  0
  1  3  2  0  0  0  0
  1  4  1  0  0  0  0
  4  5  1  0  0  0  0
  4  6  1  0  0  0  0
  4  7  1  0  0  0  0
  7  8  1  0  0  0  0
  7  9  2  0  0  0  0
  9 10  1  0  0  0  0
  9 11  1  0  0  0  0
 11 12  1  0  0  0  0
 11 13  1  0  0  0  0
 11 14  1  0  0  0  0
 14 15  1  0  0  0  0
 14 16  1  0  0  0  0
 14 17  1  0  0  0  0
M  END
> <VConfSearch Rank>
135

> <Conf_Id>
39

> <Delta U+W>
-0.422

> <U+W>
-49.849

> <U>
14.465

> <W>
-64.314

> <W(PB)>
-66.406

> <W(SA)>
2.093

> <Valence>
14.072

> <Coulomb>
-0.199

> <VdW>
0.592

> <VdW6>
-5.019

> <VdW12>
5.611

> <Bond>
0.085

> <Angle>
2.748

> <Pdih>
11.238

> <Idih>
0.001

> <Tether>
0.000

$$$$
VeraChem MOL file


 17 16  0  0  0  0  0  0  0  0999 V2000     
   17.2368   18.1257   21.4356 C   0  0  0  0  0  0  0  0  0  0  0  0
   16.8425   18.2802   20.2965 O   0  5  0  0  0  0  0  0  0  0  0  0
   16.5253   18.2393   22.4142 O   0  0  0  0  0  0  0  0  0  0  0  0
   18.7015   17.7648   21.6456 C   0  0  0  0  0  0  0  0  0  0  0  0
   18.9806   17.0363   20.8756 H   0  0  0  0  0  0  0  0  0  0  0  0
   18.7948   17.2593   22.6143 H   0  0  0  0  0  0  0  0  0  0  0  0
   19.6138   18.9744   21.5734 C   0  0  0  0  0  0  0  0  0  0  0  0
   19.6971   19.4360   20.5900 H   0  0  0  0  0  0  0  0  0  0  0  0
   20.2841   19.4730   22.6166 C   0  0  0  0  0  0  0  0  0  0  0  0
   20.1980   19.0126   23.6004 H   0  0  0  0  0  0  0  0  0  0  0  0
   21.1905   20.6815   22.5436 C   0  0  0  0  0  0  0  0  0  0  0  0
   21.0243   21.2305   21.6065 H   0  0  0  0  0  0  0  0  0  0  0  0
   20.9511   21.3744   23.3616 H   0  0  0  0  0  0  0  0  0  0  0  0
   22.6724   20.2688   22.6370 C   0  0  0  0  0  0  0  0  0  0  0  0
   22.9421   19.5950   21.8131 H   0  0  0  0  0  0  0  0  0  0  0  0
   23.3251   21.1499   22.5841 H   0  0  0  0  0  0  0  0  0  0  0  0
   22.8758   19.7506   23.5833 H   0  0  0  0  0  0  0  0  0  0  0  0
  1  2  1  0  0  0  0
  1  3  2  0  0  0  0
  1  4  1  0  0  0  0
  4  5  1  0  0  0  0
  4  6  1  0  0  0  0
  4  7  1  0  0  0  0
  7  8  1  0  0  0  0
  7  9  2  0  0  0  0
  9 10  1  0  0  0  0
  9 11  1  0  0  0  0
 11 12  1  0  0  0  0
 11 13  1  0  0  0  0
 11 14  1  0  0  0  0
 14 15  1  0  0  0  0
 14 16  1  0  0  0  0
 14 17  1  0  0  0  0
M  END
> <VConfSearch Rank>
136

> <Conf_Id>
38

> <Delta U+W>
0.000

> <U+W>
-49.427

> <U>
13.666

> <W>
-63.093

> <W(PB)>
-65.225

> <W(SA)>
2.132

> <Valence>
15.226

> <Coulomb>
-1.822

> <VdW>
0.261

> <VdW6>
-4.165

> <VdW12>
4.426

> <Bond>
0.044

> <Angle>
2.229

> <Pdih>
12.953

> <Idih>
0.000

> <Tether>
0.000

$$$$
VeraChem MOL file


 17 16  0  0  0  0  0  0  0  0999 V2000     
   23.0021   20.2756   22.8102 C   0  0  0  0  0  0  0  0  0  0  0  0
   23.4053   20.9866   21.9109 O   0  5  0  0  0  0  0  0  0  0  0  0
   23.7102   19.5017   23.4239 O   0  0  0  0  0  0  0  0  0  0  0  0
   21.5308   20.3614   23.1943 C   0  0  0  0  0  0  0  0  0  0  0  0
   21.1515   21.3422   22.8830 H   0  0  0  0  0  0  0  0  0  0  0  0
   21.4675   20.3255   24.2880 H   0  0  0  0  0  0  0  0  0  0  0  0
   20.7059   19.2422   22.5879 C   0  0  0  0  0  0  0  0  0  0  0  0
   20.9190   18.2457   22.9738 H   0  0  0  0  0  0  0  0  0  0  0  0
   19.7765   19.4205   21.6442 C   0  0  0  0  0  0  0  0  0  0  0  0
   19.5661   20.4167   21.2565 H   0  0  0  0  0  0  0  0  0  0  0  0
   18.9577   18.3028   21.0379 C   0  0  0  0  0  0  0  0  0  0  0  0
   18.9689   18.3870   19.9428 H   0  0  0  0  0  0  0  0  0  0  0  0
   19.3983   17.3267   21.2836 H   0  0  0  0  0  0  0  0  0  0  0  0
   17.5019   18.3465   21.5416 C   0  0  0  0  0  0  0  0  0  0  0  0
   17.0238   19.2984   21.2755 H   0  0  0  0  0  0  0  0  0  0  0  0
   16.9126   17.5336   21.0977 H   0  0  0  0  0  0  0  0  0  0  0  0
   17.4637   18.2381   22.6336 H   0  0  0  0  0  0  0  0  0  0  0  0
  1  2  1  0  0  0  0
  1  3  2  0  0  0  0
  1  4  1  0  0  0  0
  4  5  1  0  0  0  0
  4  6  1  0  0  0  0
  4  7  1  0  0  0  0
  7  8  1  0  0  0  0
  7  9  2  0  0  0  0
  9 10  1  0  0  0  0
  9 11  1  0  0  0  0
 11 12  1  0  0  0  0
 11 13  1  0  0  0  0
 11 14  1  0  0  0  0
 14 15  1  0  0  0  0
 14 16  1  0  0  0  0
 14 17  1  0  0  0  0
M  END
> <VConfSearch Rank>
137

> <Conf_Id>
35

> <Delta U+W>
-0.102

> <U+W>
-49.529

> <U>
13.666

> <W>
-63.195

> <W(PB)>
-65.299

> <W(SA)>
2.103

> <Valence>
15.226

> <Coulomb>
-1.822

> <VdW>
0.261

> <VdW6>
-4.165

> <VdW12>
4.426

> <Bond>
0.044

> <Angle>
2.229

> <Pdih>
12.953

> <Idih>
0.000

> <Tether>
0.000

$$$$
VeraChem MOL file


 17 16  0  0  0  0  0  0  0  0999 V2000     
   20.7284   21.8718   21.3305 C   0  0  0  0  0  0  0  0  0  0  0  0
   21.9252   22.0704   21.2586 O   0  5  0  0  0  0  0  0  0  0  0  0
   19.9371   22.2188   20.4760 O   0  0  0  0  0  0  0  0  0  0  0  0
   20.1921   21.1573   22.5640 C   0  0  0  0  0  0  0  0  0  0  0  0
   19.1378   21.4324   22.6883 H   0  0  0  0  0  0  0  0  0  0  0  0
   20.7297   21.5463   23.4364 H   0  0  0  0  0  0  0  0  0  0  0  0
   20.3566   19.6515   22.4801 C   0  0  0  0  0  0  0  0  0  0  0  0
   21.3879   19.3047   22.5139 H   0  0  0  0  0  0  0  0  0  0  0  0
   19.3350   18.7935   22.3672 C   0  0  0  0  0  0  0  0  0  0  0  0
   18.3162   19.1782   22.3321 H   0  0  0  0  0  0  0  0  0  0  0  0
   19.4271   17.2797   22.2749 C   0  0  0  0  0  0  0  0  0  0  0  0
   18.8425   16.8362   23.0922 H   0  0  0  0  0  0  0  0  0  0  0  0
   18.9379   16.9488   21.3488 H   0  0  0  0  0  0  0  0  0  0  0  0
   20.8623   16.7101   22.3163 C   0  0  0  0  0  0  0  0  0  0  0  0
   21.3649   16.9762   23.2554 H   0  0  0  0  0  0  0  0  0  0  0  0
   20.8439   15.6149   22.2437 H   0  0  0  0  0  0  0  0  0  0  0  0
   21.4621   17.0923   21.4798 H   0  0  0  0  0  0  0  0  0  0  0  0
  1  2  1  0  0  0  0
  1  3  2  0  0  0  0
  1  4  1  0  0  0  0
  4  5  1  0  0  0  0
  4  6  1  0  0  0  0
  4  7  1  0  0  0  0
  7  8  1  0  0  0  0
  7  9  2  0  0  0  0
  9 10  1  0  0  0  0
  9 11  1  0  0  0  0
 11 12  1  0  0  0  0
 11 13  1  0  0  0  0
 11 14  1  0  0  0  0
 14 15  1  0  0  0  0
 14 16  1  0  0  0  0
 14 17  1  0  0  0  0
M  END
> <VConfSearch Rank>
138

> <Conf_Id>
19

> <Delta U+W>
-0.496

> <U+W>
-49.923

> <U>
13.863

> <W>
-63.786

> <W(PB)>
-65.856

> <W(SA)>
2.070

> <Valence>
14.117

> <Coulomb>
-1.228

> <VdW>
0.974

> <VdW6>
-4.885

> <VdW12>
5.859

> <Bond>
0.094

> <Angle>
2.818

> <Pdih>
11.205

> <Idih>
0.000

> <Tether>
0.000

$$$$
VeraChem MOL file


 17 16  0  0  0  0  0  0  0  0999 V2000     
   22.2823   17.7547   20.6657 C   0  0  0  0  0  0  0  0  0  0  0  0
   22.3975   16.6883   21.2369 O   0  5  0  0  0  0  0  0  0  0  0  0
   22.2202   17.8664   19.4571 O   0  0  0  0  0  0  0  0  0  0  0  0
   22.2231   19.0226   21.5076 C   0  0  0  0  0  0  0  0  0  0  0  0
   22.8379   19.7826   21.0118 H   0  0  0  0  0  0  0  0  0  0  0  0
   22.6915   18.8131   22.4768 H   0  0  0  0  0  0  0  0  0  0  0  0
   20.8067   19.5346   21.6877 C   0  0  0  0  0  0  0  0  0  0  0  0
   20.3290   19.9092   20.7829 H   0  0  0  0  0  0  0  0  0  0  0  0
   20.1512   19.5371   22.8525 C   0  0  0  0  0  0  0  0  0  0  0  0
   20.6275   19.1576   23.7559 H   0  0  0  0  0  0  0  0  0  0  0  0
   18.7378   20.0454   23.0293 C   0  0  0  0  0  0  0  0  0  0  0  0
   18.6917   20.7197   23.8952 H   0  0  0  0  0  0  0  0  0  0  0  0
   18.4287   20.6338   22.1544 H   0  0  0  0  0  0  0  0  0  0  0  0
   17.7517   18.8788   23.2333 C   0  0  0  0  0  0  0  0  0  0  0  0
   18.0146   18.2953   24.1254 H   0  0  0  0  0  0  0  0  0  0  0  0
   16.7277   19.2533   23.3607 H   0  0  0  0  0  0  0  0  0  0  0  0
   17.7626   18.2035   22.3676 H   0  0  0  0  0  0  0  0  0  0  0  0
  1  2  1  0  0  0  0
  1  3  2  0  0  0  0
  1  4  1  0  0  0  0
  4  5  1  0  0  0  0
  4  6  1  0  0  0  0
  4  7  1  0  0  0  0
  7  8  1  0  0  0  0
  7  9  2  0  0  0  0
  9 10  1  0  0  0  0
  9 11  1  0  0  0  0
 11 12  1  0  0  0  0
 11 13  1  0  0  0  0
 11 14  1  0  0  0  0
 14 15  1  0  0  0  0
 14 16  1  0  0  0  0
 14 17  1  0  0  0  0
M  END
> <VConfSearch Rank>
139

> <Conf_Id>
7

> <Delta U+W>
-0.041

> <U+W>
-49.468

> <U>
14.121

> <W>
-63.589

> <W(PB)>
-65.660

> <W(SA)>
2.071

> <Valence>
15.230

> <Coulomb>
-1.333

> <VdW>
0.224

> <VdW6>
-4.212

> <VdW12>
4.436

> <Bond>
0.044

> <Angle>
2.230

> <Pdih>
12.956

> <Idih>
0.000

> <Tether>
0.000

$$$$
VeraChem MOL file


 17 16  0  0  0  0  0  0  0  0999 V2000     
   20.1495   16.7436   21.1572 C   0  0  0  0  0  0  0  0  0  0  0  0
   21.3118   16.4290   21.3218 O   0  5  0  0  0  0  0  0  0  0  0  0
   19.5919   16.7120   20.0778 O   0  0  0  0  0  0  0  0  0  0  0  0
   19.3389   17.1749   22.3756 C   0  0  0  0  0  0  0  0  0  0  0  0
   19.7193   16.6251   23.2444 H   0  0  0  0  0  0  0  0  0  0  0  0
   18.3074   16.8332   22.2307 H   0  0  0  0  0  0  0  0  0  0  0  0
   19.3449   18.6675   22.6739 C   0  0  0  0  0  0  0  0  0  0  0  0
   18.7602   18.9536   23.5474 H   0  0  0  0  0  0  0  0  0  0  0  0
   19.9894   19.6074   21.9724 C   0  0  0  0  0  0  0  0  0  0  0  0
   20.5817   19.3482   21.0956 H   0  0  0  0  0  0  0  0  0  0  0  0
   19.9617   21.0813   22.3112 C   0  0  0  0  0  0  0  0  0  0  0  0
   19.7455   21.6654   21.4064 H   0  0  0  0  0  0  0  0  0  0  0  0
   19.1554   21.2972   23.0256 H   0  0  0  0  0  0  0  0  0  0  0  0
   21.3073   21.5377   22.9078 C   0  0  0  0  0  0  0  0  0  0  0  0
   21.2820   22.6080   23.1504 H   0  0  0  0  0  0  0  0  0  0  0  0
   21.5328   20.9845   23.8291 H   0  0  0  0  0  0  0  0  0  0  0  0
   22.1277   21.3684   22.1981 H   0  0  0  0  0  0  0  0  0  0  0  0
  1  2  1  0  0  0  0
  1  3  2  0  0  0  0
  1  4  1  0  0  0  0
  4  5  1  0  0  0  0
  4  6  1  0  0  0  0
  4  7  1  0  0  0  0
  7  8  1  0  0  0  0
  7  9  2  0  0  0  0
  9 10  1  0  0  0  0
  9 11  1  0  0  0  0
 11 12  1  0  0  0  0
 11 13  1  0  0  0  0
 11 14  1  0  0  0  0
 14 15  1  0  0  0  0
 14 16  1  0  0  0  0
 14 17  1  0  0  0  0
M  END
> <VConfSearch Rank>
140

> <Conf_Id>
39

> <Delta U+W>
-0.422

> <U+W>
-49.849

> <U>
14.465

> <W>
-64.314

> <W(PB)>
-66.406

> <W(SA)>
2.093

> <Valence>
14.072

> <Coulomb>
-0.199

> <VdW>
0.592

> <VdW6>
-5.019

> <VdW12>
5.611

> <Bond>
0.085

> <Angle>
2.748

> <Pdih>
11.238

> <Idih>
0.001

> <Tether>
0.000

$$$$
VeraChem MOL file


 17 16  0  0  0  0  0  0  0  0999 V2000     
   21.9530   19.3137   19.5333 C   0  0  0  0  0  0  0  0  0  0  0  0
   22.6424   20.3020   19.3748 O   0  5  0  0  0  0  0  0  0  0  0  0
   21.3829   18.7397   18.6266 O   0  0  0  0  0  0  0  0  0  0  0  0
   21.8012   18.7631   20.9452 C   0  0  0  0  0  0  0  0  0  0  0  0
   22.7805   18.8208   21.4343 H   0  0  0  0  0  0  0  0  0  0  0  0
   21.5408   17.7003   20.8729 H   0  0  0  0  0  0  0  0  0  0  0  0
   20.7684   19.5219   21.7566 C   0  0  0  0  0  0  0  0  0  0  0  0
   21.0363   20.5478   22.0076 H   0  0  0  0  0  0  0  0  0  0  0  0
   19.6002   19.0085   22.1538 C   0  0  0  0  0  0  0  0  0  0  0  0
   19.3317   17.9835   21.8999 H   0  0  0  0  0  0  0  0  0  0  0  0
   18.5699   19.7678   22.9596 C   0  0  0  0  0  0  0  0  0  0  0  0
   18.7920   20.8438   22.9510 H   0  0  0  0  0  0  0  0  0  0  0  0
   17.5787   19.6468   22.5020 H   0  0  0  0  0  0  0  0  0  0  0  0
   18.5277   19.2674   24.4166 C   0  0  0  0  0  0  0  0  0  0  0  0
   19.5025   19.4022   24.9036 H   0  0  0  0  0  0  0  0  0  0  0  0
   17.7779   19.8216   24.9961 H   0  0  0  0  0  0  0  0  0  0  0  0
   18.2696   18.2010   24.4573 H   0  0  0  0  0  0  0  0  0  0  0  0
  1  2  1  0  0  0  0
  1  3  2  0  0  0  0
  1  4  1  0  0  0  0
  4  5  1  0  0  0  0
  4  6  1  0  0  0  0
  4  7  1  0  0  0  0
  7  8  1  0  0  0  0
  7  9  2  0  0  0  0
  9 10  1  0  0  0  0
  9 11  1  0  0  0  0
 11 12  1  0  0  0  0
 11 13  1  0  0  0  0
 11 14  1  0  0  0  0
 14 15  1  0  0  0  0
 14 16  1  0  0  0  0
 14 17  1  0  0  0  0
M  END
> <VConfSearch Rank>
141

> <Conf_Id>
38

> <Delta U+W>
0.000

> <U+W>
-49.427

> <U>
13.666

> <W>
-63.093

> <W(PB)>
-65.225

> <W(SA)>
2.132

> <Valence>
15.226

> <Coulomb>
-1.822

> <VdW>
0.261

> <VdW6>
-4.165

> <VdW12>
4.426

> <Bond>
0.044

> <Angle>
2.229

> <Pdih>
12.953

> <Idih>
0.000

> <Tether>
0.000

$$$$
VeraChem MOL file


 17 16  0  0  0  0  0  0  0  0999 V2000     
   17.0581   19.5251   22.9895 C   0  0  0  0  0  0  0  0  0  0  0  0
   16.5219   20.3897   22.3248 O   0  5  0  0  0  0  0  0  0  0  0  0
   16.8184   19.3363   24.1659 O   0  0  0  0  0  0  0  0  0  0  0  0
   18.0826   18.6245   22.3121 C   0  0  0  0  0  0  0  0  0  0  0  0
   17.8790   18.6232   21.2345 H   0  0  0  0  0  0  0  0  0  0  0  0
   17.9186   17.6018   22.6706 H   0  0  0  0  0  0  0  0  0  0  0  0
   19.5099   19.0530   22.5951 C   0  0  0  0  0  0  0  0  0  0  0  0
   19.8371   18.9277   23.6268 H   0  0  0  0  0  0  0  0  0  0  0  0
   20.3396   19.5555   21.6757 C   0  0  0  0  0  0  0  0  0  0  0  0
   20.0106   19.6835   20.6449 H   0  0  0  0  0  0  0  0  0  0  0  0
   21.7612   19.9859   21.9606 C   0  0  0  0  0  0  0  0  0  0  0  0
   21.9384   20.9837   21.5368 H   0  0  0  0  0  0  0  0  0  0  0  0
   21.9279   20.0690   23.0434 H   0  0  0  0  0  0  0  0  0  0  0  0
   22.7722   18.9874   21.3640 C   0  0  0  0  0  0  0  0  0  0  0  0
   22.6534   18.9131   20.2751 H   0  0  0  0  0  0  0  0  0  0  0  0
   23.8019   19.3053   21.5733 H   0  0  0  0  0  0  0  0  0  0  0  0
   22.6309   17.9865   21.7926 H   0  0  0  0  0  0  0  0  0  0  0  0
  1  2  1  0  0  0  0
  1  3  2  0  0  0  0
  1  4  1  0  0  0  0
  4  5  1  0  0  0  0
  4  6  1  0  0  0  0
  4  7  1  0  0  0  0
  7  8  1  0  0  0  0
  7  9  2  0  0  0  0
  9 10  1  0  0  0  0
  9 11  1  0  0  0  0
 11 12  1  0  0  0  0
 11 13  1  0  0  0  0
 11 14  1  0  0  0  0
 14 15  1  0  0  0  0
 14 16  1  0  0  0  0
 14 17  1  0  0  0  0
M  END
> <VConfSearch Rank>
142

> <Conf_Id>
35

> <Delta U+W>
-0.102

> <U+W>
-49.529

> <U>
13.666

> <W>
-63.195

> <W(PB)>
-65.299

> <W(SA)>
2.103

> <Valence>
15.226

> <Coulomb>
-1.822

> <VdW>
0.261

> <VdW6>
-4.165

> <VdW12>
4.426

> <Bond>
0.044

> <Angle>
2.229

> <Pdih>
12.953

> <Idih>
0.000

> <Tether>
0.000

$$$$
VeraChem MOL file


 17 16  0  0  0  0  0  0  0  0999 V2000     
   23.0940   19.5681   21.7116 C   0  0  0  0  0  0  0  0  0  0  0  0
   23.5573   18.6506   21.0631 O   0  5  0  0  0  0  0  0  0  0  0  0
   23.3177   20.7388   21.4745 O   0  0  0  0  0  0  0  0  0  0  0  0
   22.1919   19.2297   22.8912 C   0  0  0  0  0  0  0  0  0  0  0  0
   22.2171   20.0708   23.5945 H   0  0  0  0  0  0  0  0  0  0  0  0
   22.6266   18.3665   23.4083 H   0  0  0  0  0  0  0  0  0  0  0  0
   20.7699   18.9186   22.4639 C   0  0  0  0  0  0  0  0  0  0  0  0
   20.6584   17.9994   21.8914 H   0  0  0  0  0  0  0  0  0  0  0  0
   19.7174   19.6958   22.7481 C   0  0  0  0  0  0  0  0  0  0  0  0
   19.8685   20.6110   23.3197 H   0  0  0  0  0  0  0  0  0  0  0  0
   18.2722   19.4478   22.3501 C   0  0  0  0  0  0  0  0  0  0  0  0
   17.6527   19.4169   23.2567 H   0  0  0  0  0  0  0  0  0  0  0  0
   17.9085   20.3090   21.7735 H   0  0  0  0  0  0  0  0  0  0  0  0
   18.0329   18.1588   21.5332 C   0  0  0  0  0  0  0  0  0  0  0  0
   18.3355   17.2699   22.1020 H   0  0  0  0  0  0  0  0  0  0  0  0
   16.9689   18.0526   21.2848 H   0  0  0  0  0  0  0  0  0  0  0  0
   18.5974   18.1787   20.5917 H   0  0  0  0  0  0  0  0  0  0  0  0
  1  2  1  0  0  0  0
  1  3  2  0  0  0  0
  1  4  1  0  0  0  0
  4  5  1  0  0  0  0
  4  6  1  0  0  0  0
  4  7  1  0  0  0  0
  7  8  1  0  0  0  0
  7  9  2  0  0  0  0
  9 10  1  0  0  0  0
  9 11  1  0  0  0  0
 11 12  1  0  0  0  0
 11 13  1  0  0  0  0
 11 14  1  0  0  0  0
 14 15  1  0  0  0  0
 14 16  1  0  0  0  0
 14 17  1  0  0  0  0
M  END
> <VConfSearch Rank>
143

> <Conf_Id>
19

> <Delta U+W>
-0.496

> <U+W>
-49.923

> <U>
13.863

> <W>
-63.786

> <W(PB)>
-65.856

> <W(SA)>
2.070

> <Valence>
14.117

> <Coulomb>
-1.228

> <VdW>
0.974

> <VdW6>
-4.885

> <VdW12>
5.859

> <Bond>
0.094

> <Angle>
2.818

> <Pdih>
11.205

> <Idih>
0.000

> <Tether>
0.000

$$$$
VeraChem MOL file


 17 16  0  0  0  0  0  0  0  0999 V2000     
   20.7995   21.8405   22.9200 C   0  0  0  0  0  0  0  0  0  0  0  0
   20.3069   21.9454   24.0259 O   0  5  0  0  0  0  0  0  0  0  0  0
   21.9188   22.2252   22.6436 O   0  0  0  0  0  0  0  0  0  0  0  0
   19.9669   21.2022   21.8158 C   0  0  0  0  0  0  0  0  0  0  0  0
   20.1170   21.7888   20.9020 H   0  0  0  0  0  0  0  0  0  0  0  0
   18.9084   21.2954   22.0868 H   0  0  0  0  0  0  0  0  0  0  0  0
   20.3400   19.7525   21.5713 C   0  0  0  0  0  0  0  0  0  0  0  0
   21.3321   19.5922   21.1501 H   0  0  0  0  0  0  0  0  0  0  0  0
   19.5431   18.7152   21.8456 C   0  0  0  0  0  0  0  0  0  0  0  0
   18.5532   18.8757   22.2716 H   0  0  0  0  0  0  0  0  0  0  0  0
   19.9182   17.2701   21.6038 C   0  0  0  0  0  0  0  0  0  0  0  0
   19.1002   16.7571   21.0803 H   0  0  0  0  0  0  0  0  0  0  0  0
   20.7997   17.2059   20.9512 H   0  0  0  0  0  0  0  0  0  0  0  0
   20.2130   16.5454   22.9315 C   0  0  0  0  0  0  0  0  0  0  0  0
   19.3342   16.5604   23.5895 H   0  0  0  0  0  0  0  0  0  0  0  0
   20.4851   15.4974   22.7502 H   0  0  0  0  0  0  0  0  0  0  0  0
   21.0453   17.0268   23.4618 H   0  0  0  0  0  0  0  0  0  0  0  0
  1  2  1  0  0  0  0
  1  3  2  0  0  0  0
  1  4  1  0  0  0  0
  4  5  1  0  0  0  0
  4  6  1  0  0  0  0
  4  7  1  0  0  0  0
  7  8  1  0  0  0  0
  7  9  2  0  0  0  0
  9 10  1  0  0  0  0
  9 11  1  0  0  0  0
 11 12  1  0  0  0  0
 11 13  1  0  0  0  0
 11 14  1  0  0  0  0
 14 15  1  0  0  0  0
 14 16  1  0  0  0  0
 14 17  1  0  0  0  0
M  END
> <VConfSearch Rank>
144

> <Conf_Id>
7

> <Delta U+W>
-0.041

> <U+W>
-49.468

> <U>
14.121

> <W>
-63.589

> <W(PB)>
-65.660

> <W(SA)>
2.071

> <Valence>
15.230

> <Coulomb>
-1.333

> <VdW>
0.224

> <VdW6>
-4.212

> <VdW12>
4.436

> <Bond>
0.044

> <Angle>
2.230

> <Pdih>
12.956

> <Idih>
0.000

> <Tether>
0.000

$$$$
VeraChem MOL file


 17 16  0  0  0  0  0  0  0  0999 V2000     
   20.4716   16.5677   21.8274 C   0  0  0  0  0  0  0  0  0  0  0  0
   19.3226   16.2172   21.6436 O   0  5  0  0  0  0  0  0  0  0  0  0
   21.2050   16.0585   22.6521 O   0  0  0  0  0  0  0  0  0  0  0  0
   21.0325   17.6883   20.9573 C   0  0  0  0  0  0  0  0  0  0  0  0
   20.5489   17.6258   19.9755 H   0  0  0  0  0  0  0  0  0  0  0  0
   22.0946   17.4792   20.7840 H   0  0  0  0  0  0  0  0  0  0  0  0
   20.8739   19.0956   21.5154 C   0  0  0  0  0  0  0  0  0  0  0  0
   21.2811   19.8800   20.8787 H   0  0  0  0  0  0  0  0  0  0  0  0
   20.2948   19.4204   22.6773 C   0  0  0  0  0  0  0  0  0  0  0  0
   19.8789   18.6555   23.3321 H   0  0  0  0  0  0  0  0  0  0  0  0
   20.1638   20.8381   23.1880 C   0  0  0  0  0  0  0  0  0  0  0  0
   20.4897   20.8860   24.2358 H   0  0  0  0  0  0  0  0  0  0  0  0
   20.8206   21.5135   22.6225 H   0  0  0  0  0  0  0  0  0  0  0  0
   18.7084   21.3333   23.0796 C   0  0  0  0  0  0  0  0  0  0  0  0
   18.6190   22.3618   23.4527 H   0  0  0  0  0  0  0  0  0  0  0  0
   18.3684   21.3186   22.0356 H   0  0  0  0  0  0  0  0  0  0  0  0
   18.0337   20.6975   23.6677 H   0  0  0  0  0  0  0  0  0  0  0  0
  1  2  1  0  0  0  0
  1  3  2  0  0  0  0
  1  4  1  0  0  0  0
  4  5  1  0  0  0  0
  4  6  1  0  0  0  0
  4  7  1  0  0  0  0
  7  8  1  0  0  0  0
  7  9  2  0  0  0  0
  9 10  1  0  0  0  0
  9 11  1  0  0  0  0
 11 12  1  0  0  0  0
 11 13  1  0  0  0  0
 11 14  1  0  0  0  0
 14 15  1  0  0  0  0
 14 16  1  0  0  0  0
 14 17  1  0  0  0  0
M  END
> <VConfSearch Rank>
145

> <Conf_Id>
39

> <Delta U+W>
-0.422

> <U+W>
-49.849

> <U>
14.465

> <W>
-64.314

> <W(PB)>
-66.406

> <W(SA)>
2.093

> <Valence>
14.072

> <Coulomb>
-0.199

> <VdW>
0.592

> <VdW6>
-5.019

> <VdW12>
5.611

> <Bond>
0.085

> <Angle>
2.748

> <Pdih>
11.238

> <Idih>
0.001

> <Tether>
0.000

$$$$
VeraChem MOL file


 17 16  0  0  0  0  0  0  0  0999 V2000     
   20.4482   16.2934   23.1153 C   0  0  0  0  0  0  0  0  0  0  0  0
   21.4450   15.7048   22.7451 O   0  5  0  0  0  0  0  0  0  0  0  0
   19.3525   15.7741   23.1964 O   0  0  0  0  0  0  0  0  0  0  0  0
   20.5829   17.7600   23.5032 C   0  0  0  0  0  0  0  0  0  0  0  0
   21.5158   17.8728   24.0677 H   0  0  0  0  0  0  0  0  0  0  0  0
   19.7624   18.0110   24.1861 H   0  0  0  0  0  0  0  0  0  0  0  0
   20.5886   18.6814   22.2983 C   0  0  0  0  0  0  0  0  0  0  0  0
   21.4641   18.6000   21.6548 H   0  0  0  0  0  0  0  0  0  0  0  0
   19.6101   19.5441   22.0079 C   0  0  0  0  0  0  0  0  0  0  0  0
   18.7336   19.6229   22.6503 H   0  0  0  0  0  0  0  0  0  0  0  0
   19.6157   20.4594   20.8040 C   0  0  0  0  0  0  0  0  0  0  0  0
   20.3841   20.1439   20.0848 H   0  0  0  0  0  0  0  0  0  0  0  0
   18.6507   20.3932   20.2835 H   0  0  0  0  0  0  0  0  0  0  0  0
   19.8758   21.9203   21.2201 C   0  0  0  0  0  0  0  0  0  0  0  0
   20.8485   22.0159   21.7206 H   0  0  0  0  0  0  0  0  0  0  0  0
   19.8781   22.5798   20.3425 H   0  0  0  0  0  0  0  0  0  0  0  0
   19.0995   22.2751   21.9107 H   0  0  0  0  0  0  0  0  0  0  0  0
  1  2  1  0  0  0  0
  1  3  2  0  0  0  0
  1  4  1  0  0  0  0
  4  5  1  0  0  0  0
  4  6  1  0  0  0  0
  4  7  1  0  0  0  0
  7  8  1  0  0  0  0
  7  9  2  0  0  0  0
  9 10  1  0  0  0  0
  9 11  1  0  0  0  0
 11 12  1  0  0  0  0
 11 13  1  0  0  0  0
 11 14  1  0  0  0  0
 14 15  1  0  0  0  0
 14 16  1  0  0  0  0
 14 17  1  0  0  0  0
M  END
> <VConfSearch Rank>
146

> <Conf_Id>
38

> <Delta U+W>
0.000

> <U+W>
-49.427

> <U>
13.666

> <W>
-63.093

> <W(PB)>
-65.225

> <W(SA)>
2.132

> <Valence>
15.226

> <Coulomb>
-1.822

> <VdW>
0.261

> <VdW6>
-4.165

> <VdW12>
4.426

> <Bond>
0.044

> <Angle>
2.229

> <Pdih>
12.953

> <Idih>
0.000

> <Tether>
0.000

$$$$
VeraChem MOL file


 17 16  0  0  0  0  0  0  0  0999 V2000     
   17.9133   17.5298   23.6136 C   0  0  0  0  0  0  0  0  0  0  0  0
   16.9291   18.2131   23.8173 O   0  5  0  0  0  0  0  0  0  0  0  0
   18.3305   16.7014   24.3988 O   0  0  0  0  0  0  0  0  0  0  0  0
   18.6629   17.7164   22.3010 C   0  0  0  0  0  0  0  0  0  0  0  0
   17.9682   18.1412   21.5665 H   0  0  0  0  0  0  0  0  0  0  0  0
   18.9492   16.7238   21.9348 H   0  0  0  0  0  0  0  0  0  0  0  0
   19.8934   18.5900   22.4540 C   0  0  0  0  0  0  0  0  0  0  0  0
   20.7005   18.1573   23.0445 H   0  0  0  0  0  0  0  0  0  0  0  0
   20.0196   19.8096   21.9221 C   0  0  0  0  0  0  0  0  0  0  0  0
   19.2110   20.2429   21.3344 H   0  0  0  0  0  0  0  0  0  0  0  0
   21.2459   20.6808   22.0790 C   0  0  0  0  0  0  0  0  0  0  0  0
   20.9449   21.6938   22.3787 H   0  0  0  0  0  0  0  0  0  0  0  0
   21.8922   20.2943   22.8790 H   0  0  0  0  0  0  0  0  0  0  0  0
   22.0474   20.7508   20.7646 C   0  0  0  0  0  0  0  0  0  0  0  0
   21.4361   21.1703   19.9548 H   0  0  0  0  0  0  0  0  0  0  0  0
   22.9355   21.3849   20.8845 H   0  0  0  0  0  0  0  0  0  0  0  0
   22.3816   19.7508   20.4581 H   0  0  0  0  0  0  0  0  0  0  0  0
  1  2  1  0  0  0  0
  1  3  2  0  0  0  0
  1  4  1  0  0  0  0
  4  5  1  0  0  0  0
  4  6  1  0  0  0  0
  4  7  1  0  0  0  0
  7  8  1  0  0  0  0
  7  9  2  0  0  0  0
  9 10  1  0  0  0  0
  9 11  1  0  0  0  0
 11 12  1  0  0  0  0
 11 13  1  0  0  0  0
 11 14  1  0  0  0  0
 14 15  1  0  0  0  0
 14 16  1  0  0  0  0
 14 17  1  0  0  0  0
M  END
> <VConfSearch Rank>
147

> <Conf_Id>
35

> <Delta U+W>
-0.102

> <U+W>
-49.529

> <U>
13.666

> <W>
-63.195

> <W(PB)>
-65.299

> <W(SA)>
2.103

> <Valence>
15.226

> <Coulomb>
-1.822

> <VdW>
0.261

> <VdW6>
-4.165

> <VdW12>
4.426

> <Bond>
0.044

> <Angle>
2.229

> <Pdih>
12.953

> <Idih>
0.000

> <Tether>
0.000

$$$$
VeraChem MOL file


 17 16  0  0  0  0  0  0  0  0999 V2000     
   20.8443   17.4383   19.8451 C   0  0  0  0  0  0  0  0  0  0  0  0
   20.7944   18.1163   18.8377 O   0  5  0  0  0  0  0  0  0  0  0  0
   21.7389   16.6503   20.0811 O   0  0  0  0  0  0  0  0  0  0  0  0
   19.7186   17.5784   20.8614 C   0  0  0  0  0  0  0  0  0  0  0  0
   19.6695   16.6534   21.4485 H   0  0  0  0  0  0  0  0  0  0  0  0
   18.7758   17.6569   20.3078 H   0  0  0  0  0  0  0  0  0  0  0  0
   19.8960   18.7868   21.7613 C   0  0  0  0  0  0  0  0  0  0  0  0
   19.7953   19.7467   21.2579 H   0  0  0  0  0  0  0  0  0  0  0  0
   20.1615   18.7101   23.0714 C   0  0  0  0  0  0  0  0  0  0  0  0
   20.2597   17.7312   23.5397 H   0  0  0  0  0  0  0  0  0  0  0  0
   20.3544   19.8747   24.0280 C   0  0  0  0  0  0  0  0  0  0  0  0
   19.6268   19.7883   24.8464 H   0  0  0  0  0  0  0  0  0  0  0  0
   21.3420   19.7876   24.5008 H   0  0  0  0  0  0  0  0  0  0  0  0
   20.2260   21.2738   23.3862 C   0  0  0  0  0  0  0  0  0  0  0  0
   19.2289   21.4170   22.9495 H   0  0  0  0  0  0  0  0  0  0  0  0
   20.3789   22.0580   24.1390 H   0  0  0  0  0  0  0  0  0  0  0  0
   20.9756   21.4152   22.5966 H   0  0  0  0  0  0  0  0  0  0  0  0
  1  2  1  0  0  0  0
  1  3  2  0  0  0  0
  1  4  1  0  0  0  0
  4  5  1  0  0  0  0
  4  6  1  0  0  0  0
  4  7  1  0  0  0  0
  7  8  1  0  0  0  0
  7  9  2  0  0  0  0
  9 10  1  0  0  0  0
  9 11  1  0  0  0  0
 11 12  1  0  0  0  0
 11 13  1  0  0  0  0
 11 14  1  0  0  0  0
 14 15  1  0  0  0  0
 14 16  1  0  0  0  0
 14 17  1  0  0  0  0
M  END
> <VConfSearch Rank>
148

> <Conf_Id>
19

> <Delta U+W>
-0.496

> <U+W>
-49.923

> <U>
13.863

> <W>
-63.786

> <W(PB)>
-65.856

> <W(SA)>
2.070

> <Valence>
14.117

> <Coulomb>
-1.228

> <VdW>
0.974

> <VdW6>
-4.885

> <VdW12>
5.859

> <Bond>
0.094

> <Angle>
2.818

> <Pdih>
11.205

> <Idih>
0.000

> <Tether>
0.000

$$$$
VeraChem MOL file


 17 16  0  0  0  0  0  0  0  0999 V2000     
   20.5644   16.2956   23.0993 C   0  0  0  0  0  0  0  0  0  0  0  0
   20.7174   15.7070   22.0472 O   0  5  0  0  0  0  0  0  0  0  0  0
   21.2805   16.1370   24.0684 O   0  0  0  0  0  0  0  0  0  0  0  0
   19.4064   17.2781   23.2157 C   0  0  0  0  0  0  0  0  0  0  0  0
   18.9452   17.1367   24.1999 H   0  0  0  0  0  0  0  0  0  0  0  0
   18.6521   17.0098   22.4663 H   0  0  0  0  0  0  0  0  0  0  0  0
   19.8488   18.7195   23.0499 C   0  0  0  0  0  0  0  0  0  0  0  0
   20.4809   19.1067   23.8484 H   0  0  0  0  0  0  0  0  0  0  0  0
   19.5170   19.4924   22.0112 C   0  0  0  0  0  0  0  0  0  0  0  0
   18.8891   19.1031   21.2104 H   0  0  0  0  0  0  0  0  0  0  0  0
   19.9616   20.9285   21.8463 C   0  0  0  0  0  0  0  0  0  0  0  0
   19.0985   21.5567   21.5878 H   0  0  0  0  0  0  0  0  0  0  0  0
   20.3629   21.3177   22.7922 H   0  0  0  0  0  0  0  0  0  0  0  0
   21.0351   21.0528   20.7477 C   0  0  0  0  0  0  0  0  0  0  0  0
   20.6477   20.7063   19.7806 H   0  0  0  0  0  0  0  0  0  0  0  0
   21.3545   22.0967   20.6326 H   0  0  0  0  0  0  0  0  0  0  0  0
   21.9193   20.4514   20.9970 H   0  0  0  0  0  0  0  0  0  0  0  0
  1  2  1  0  0  0  0
  1  3  2  0  0  0  0
  1  4  1  0  0  0  0
  4  5  1  0  0  0  0
  4  6  1  0  0  0  0
  4  7  1  0  0  0  0
  7  8  1  0  0  0  0
  7  9  2  0  0  0  0
  9 10  1  0  0  0  0
  9 11  1  0  0  0  0
 11 12  1  0  0  0  0
 11 13  1  0  0  0  0
 11 14  1  0  0  0  0
 14 15  1  0  0  0  0
 14 16  1  0  0  0  0
 14 17  1  0  0  0  0
M  END
> <VConfSearch Rank>
149

> <Conf_Id>
7

> <Delta U+W>
-0.041

> <U+W>
-49.468

> <U>
14.121

> <W>
-63.589

> <W(PB)>
-65.660

> <W(SA)>
2.071

> <Valence>
15.230

> <Coulomb>
-1.333

> <VdW>
0.224

> <VdW6>
-4.212

> <VdW12>
4.436

> <Bond>
0.044

> <Angle>
2.230

> <Pdih>
12.956

> <Idih>
0.000

> <Tether>
0.000

$$$$
VeraChem MOL file


 17 16  0  0  0  0  0  0  0  0999 V2000     
   20.7953   21.9530   22.2764 C   0  0  0  0  0  0  0  0  0  0  0  0
   21.9946   21.8933   22.0889 O   0  5  0  0  0  0  0  0  0  0  0  0
   20.2905   22.5472   23.2087 O   0  0  0  0  0  0  0  0  0  0  0  0
   19.8727   21.2689   21.2723 C   0  0  0  0  0  0  0  0  0  0  0  0
   20.3532   21.3155   20.2881 H   0  0  0  0  0  0  0  0  0  0  0  0
   18.9600   21.8707   21.1909 H   0  0  0  0  0  0  0  0  0  0  0  0
   19.5062   19.8268   21.5933 C   0  0  0  0  0  0  0  0  0  0  0  0
   18.8469   19.3577   20.8640 H   0  0  0  0  0  0  0  0  0  0  0  0
   19.9196   19.1282   22.6572 C   0  0  0  0  0  0  0  0  0  0  0  0
   20.5797   19.5732   23.4008 H   0  0  0  0  0  0  0  0  0  0  0  0
   19.5239   17.6942   22.9313 C   0  0  0  0  0  0  0  0  0  0  0  0
   19.1952   17.5936   23.9745 H   0  0  0  0  0  0  0  0  0  0  0  0
   18.6711   17.4031   22.3027 H   0  0  0  0  0  0  0  0  0  0  0  0
   20.7015   16.7353   22.6690 C   0  0  0  0  0  0  0  0  0  0  0  0
   20.4092   15.6965   22.8707 H   0  0  0  0  0  0  0  0  0  0  0  0
   21.0313   16.7998   21.6237 H   0  0  0  0  0  0  0  0  0  0  0  0
   21.5565   16.9799   23.3128 H   0  0  0  0  0  0  0  0  0  0  0  0
  1  2  1  0  0  0  0
  1  3  2  0  0  0  0
  1  4  1  0  0  0  0
  4  5  1  0  0  0  0
  4  6  1  0  0  0  0
  4  7  1  0  0  0  0
  7  8  1  0  0  0  0
  7  9  2  0  0  0  0
  9 10  1  0  0  0  0
  9 11  1  0  0  0  0
 11 12  1  0  0  0  0
 11 13  1  0  0  0  0
 11 14  1  0  0  0  0
 14 15  1  0  0  0  0
 14 16  1  0  0  0  0
 14 17  1  0  0  0  0
M  END
> <VConfSearch Rank>
150

> <Conf_Id>
39

> <Delta U+W>
-0.422

> <U+W>
-49.849

> <U>
14.465

> <W>
-64.314

> <W(PB)>
-66.406

> <W(SA)>
2.093

> <Valence>
14.072

> <Coulomb>
-0.199

> <VdW>
0.592

> <VdW6>
-5.019

> <VdW12>
5.611

> <Bond>
0.085

> <Angle>
2.748

> <Pdih>
11.238

> <Idih>
0.001

> <Tether>
0.000

$$$$
VeraChem MOL file


 17 16  0  0  0  0  0  0  0  0999 V2000     
   20.4194   21.3285   19.7182 C   0  0  0  0  0  0  0  0  0  0  0  0
   20.5695   20.8539   18.6095 O   0  5  0  0  0  0  0  0  0  0  0  0
   21.0141   22.3114   20.1146 O   0  0  0  0  0  0  0  0  0  0  0  0
   19.4276   20.6564   20.6585 C   0  0  0  0  0  0  0  0  0  0  0  0
   18.5471   20.3734   20.0701 H   0  0  0  0  0  0  0  0  0  0  0  0
   19.0963   21.3982   21.3951 H   0  0  0  0  0  0  0  0  0  0  0  0
   20.0116   19.4348   21.3422 C   0  0  0  0  0  0  0  0  0  0  0  0
   20.2169   18.5887   20.6869 H   0  0  0  0  0  0  0  0  0  0  0  0
   20.2737   19.3596   22.6506 C   0  0  0  0  0  0  0  0  0  0  0  0
   20.0710   20.2070   23.3047 H   0  0  0  0  0  0  0  0  0  0  0  0
   20.8596   18.1420   23.3299 C   0  0  0  0  0  0  0  0  0  0  0  0
   21.2686   17.4457   22.5849 H   0  0  0  0  0  0  0  0  0  0  0  0
   21.6975   18.4435   23.9730 H   0  0  0  0  0  0  0  0  0  0  0  0
   19.7970   17.4157   24.1774 C   0  0  0  0  0  0  0  0  0  0  0  0
   18.9598   17.0816   23.5505 H   0  0  0  0  0  0  0  0  0  0  0  0
   20.2281   16.5335   24.6683 H   0  0  0  0  0  0  0  0  0  0  0  0
   19.3977   18.0780   24.9567 H   0  0  0  0  0  0  0  0  0  0  0  0
  1  2  1  0  0  0  0
  1  3  2  0  0  0  0
  1  4  1  0  0  0  0
  4  5  1  0  0  0  0
  4  6  1  0  0  0  0
  4  7  1  0  0  0  0
  7  8  1  0  0  0  0
  7  9  2  0  0  0  0
  9 10  1  0  0  0  0
  9 11  1  0  0  0  0
 11 12  1  0  0  0  0
 11 13  1  0  0  0  0
 11 14  1  0  0  0  0
 14 15  1  0  0  0  0
 14 16  1  0  0  0  0
 14 17  1  0  0  0  0
M  END
> <VConfSearch Rank>
151

> <Conf_Id>
38

> <Delta U+W>
0.000

> <U+W>
-49.427

> <U>
13.666

> <W>
-63.093

> <W(PB)>
-65.225

> <W(SA)>
2.132

> <Valence>
15.226

> <Coulomb>
-1.822

> <VdW>
0.261

> <VdW6>
-4.165

> <VdW12>
4.426

> <Bond>
0.044

> <Angle>
2.229

> <Pdih>
12.953

> <Idih>
0.000

> <Tether>
0.000

$$$$
VeraChem MOL file


 17 16  0  0  0  0  0  0  0  0999 V2000     
   21.2631   16.6433   23.4254 C   0  0  0  0  0  0  0  0  0  0  0  0
   21.3512   16.8075   24.6263 O   0  5  0  0  0  0  0  0  0  0  0  0
   22.0787   16.0249   22.7701 O   0  0  0  0  0  0  0  0  0  0  0  0
   20.0633   17.2393   22.7010 C   0  0  0  0  0  0  0  0  0  0  0  0
   19.2536   17.3707   23.4288 H   0  0  0  0  0  0  0  0  0  0  0  0
   19.7170   16.5042   21.9654 H   0  0  0  0  0  0  0  0  0  0  0  0
   20.3929   18.5499   22.0121 C   0  0  0  0  0  0  0  0  0  0  0  0
   21.0743   18.4717   21.1655 H   0  0  0  0  0  0  0  0  0  0  0  0
   19.9071   19.7377   22.3855 C   0  0  0  0  0  0  0  0  0  0  0  0
   19.2283   19.8155   23.2342 H   0  0  0  0  0  0  0  0  0  0  0  0
   20.2401   21.0439   21.6998 C   0  0  0  0  0  0  0  0  0  0  0  0
   20.5189   21.7960   22.4503 H   0  0  0  0  0  0  0  0  0  0  0  0
   21.1092   20.9206   21.0390 H   0  0  0  0  0  0  0  0  0  0  0  0
   19.0428   21.5585   20.8772 C   0  0  0  0  0  0  0  0  0  0  0  0
   18.1692   21.7274   21.5204 H   0  0  0  0  0  0  0  0  0  0  0  0
   19.2901   22.5068   20.3826 H   0  0  0  0  0  0  0  0  0  0  0  0
   18.7618   20.8332   20.1022 H   0  0  0  0  0  0  0  0  0  0  0  0
  1  2  1  0  0  0  0
  1  3  2  0  0  0  0
  1  4  1  0  0  0  0
  4  5  1  0  0  0  0
  4  6  1  0  0  0  0
  4  7  1  0  0  0  0
  7  8  1  0  0  0  0
  7  9  2  0  0  0  0
  9 10  1  0  0  0  0
  9 11  1  0  0  0  0
 11 12  1  0  0  0  0
 11 13  1  0  0  0  0
 11 14  1  0  0  0  0
 14 15  1  0  0  0  0
 14 16  1  0  0  0  0
 14 17  1  0  0  0  0
M  END
> <VConfSearch Rank>
152

> <Conf_Id>
35

> <Delta U+W>
-0.102

> <U+W>
-49.529

> <U>
13.666

> <W>
-63.195

> <W(PB)>
-65.299

> <W(SA)>
2.103

> <Valence>
15.226

> <Coulomb>
-1.822

> <VdW>
0.261

> <VdW6>
-4.165

> <VdW12>
4.426

> <Bond>
0.044

> <Angle>
2.229

> <Pdih>
12.953

> <Idih>
0.000

> <Tether>
0.000

$$$$
VeraChem MOL file


 17 16  0  0  0  0  0  0  0  0999 V2000     
   22.7316   17.8310   23.0999 C   0  0  0  0  0  0  0  0  0  0  0  0
   23.5494   17.8525   22.2011 O   0  5  0  0  0  0  0  0  0  0  0  0
   22.9900   18.1240   24.2506 O   0  0  0  0  0  0  0  0  0  0  0  0
   21.3084   17.4040   22.7655 C   0  0  0  0  0  0  0  0  0  0  0  0
   20.8389   17.0278   23.6823 H   0  0  0  0  0  0  0  0  0  0  0  0
   21.3671   16.5616   22.0666 H   0  0  0  0  0  0  0  0  0  0  0  0
   20.4926   18.5291   22.1571 C   0  0  0  0  0  0  0  0  0  0  0  0
   20.8172   18.8410   21.1659 H   0  0  0  0  0  0  0  0  0  0  0  0
   19.4554   19.1149   22.7684 C   0  0  0  0  0  0  0  0  0  0  0  0
   19.1623   18.7787   23.7624 H   0  0  0  0  0  0  0  0  0  0  0  0
   18.5997   20.2450   22.2213 C   0  0  0  0  0  0  0  0  0  0  0  0
   17.5505   19.9204   22.2009 H   0  0  0  0  0  0  0  0  0  0  0  0
   18.6337   21.0894   22.9230 H   0  0  0  0  0  0  0  0  0  0  0  0
   18.9995   20.7437   20.8151 C   0  0  0  0  0  0  0  0  0  0  0  0
   18.9247   19.9364   20.0747 H   0  0  0  0  0  0  0  0  0  0  0  0
   18.3372   21.5576   20.4927 H   0  0  0  0  0  0  0  0  0  0  0  0
   20.0287   21.1260   20.8106 H   0  0  0  0  0  0  0  0  0  0  0  0
  1  2  1  0  0  0  0
  1  3  2  0  0  0  0
  1  4  1  0  0  0  0
  4  5  1  0  0  0  0
  4  6  1  0  0  0  0
  4  7  1  0  0  0  0
  7  8  1  0  0  0  0
  7  9  2  0  0  0  0
  9 10  1  0  0  0  0
  9 11  1  0  0  0  0
 11 12  1  0  0  0  0
 11 13  1  0  0  0  0
 11 14  1  0  0  0  0
 14 15  1  0  0  0  0
 14 16  1  0  0  0  0
 14 17  1  0  0  0  0
M  END
> <VConfSearch Rank>
153

> <Conf_Id>
19

> <Delta U+W>
-0.496

> <U+W>
-49.923

> <U>
13.863

> <W>
-63.786

> <W(PB)>
-65.856

> <W(SA)>
2.070

> <Valence>
14.117

> <Coulomb>
-1.228

> <VdW>
0.974

> <VdW6>
-4.885

> <VdW12>
5.859

> <Bond>
0.094

> <Angle>
2.818

> <Pdih>
11.205

> <Idih>
0.000

> <Tether>
0.000

$$$$
VeraChem MOL file


 17 16  0  0  0  0  0  0  0  0999 V2000     
   19.8235   18.5605   25.0848 C   0  0  0  0  0  0  0  0  0  0  0  0
   20.8362   17.9472   25.3589 O   0  5  0  0  0  0  0  0  0  0  0  0
   19.3954   19.4828   25.7504 O   0  0  0  0  0  0  0  0  0  0  0  0
   19.0406   18.1454   23.8460 C   0  0  0  0  0  0  0  0  0  0  0  0
   17.9748   18.1672   24.1009 H   0  0  0  0  0  0  0  0  0  0  0  0
   19.2937   17.1040   23.6131 H   0  0  0  0  0  0  0  0  0  0  0  0
   19.3108   19.0492   22.6582 C   0  0  0  0  0  0  0  0  0  0  0  0
   18.9429   20.0700   22.7575 H   0  0  0  0  0  0  0  0  0  0  0  0
   19.9569   18.6647   21.5533 C   0  0  0  0  0  0  0  0  0  0  0  0
   20.3291   17.6453   21.4567 H   0  0  0  0  0  0  0  0  0  0  0  0
   20.2278   19.5684   20.3712 C   0  0  0  0  0  0  0  0  0  0  0  0
   19.9436   19.0579   19.4411 H   0  0  0  0  0  0  0  0  0  0  0  0
   19.6130   20.4769   20.4330 H   0  0  0  0  0  0  0  0  0  0  0  0
   21.7160   19.9636   20.3065 C   0  0  0  0  0  0  0  0  0  0  0  0
   22.3531   19.0752   20.2051 H   0  0  0  0  0  0  0  0  0  0  0  0
   21.9069   20.6196   19.4473 H   0  0  0  0  0  0  0  0  0  0  0  0
   22.0172   20.4981   21.2171 H   0  0  0  0  0  0  0  0  0  0  0  0
  1  2  1  0  0  0  0
  1  3  2  0  0  0  0
  1  4  1  0  0  0  0
  4  5  1  0  0  0  0
  4  6  1  0  0  0  0
  4  7  1  0  0  0  0
  7  8  1  0  0  0  0
  7  9  2  0  0  0  0
  9 10  1  0  0  0  0
  9 11  1  0  0  0  0
 11 12  1  0  0  0  0
 11 13  1  0  0  0  0
 11 14  1  0  0  0  0
 14 15  1  0  0  0  0
 14 16  1  0  0  0  0
 14 17  1  0  0  0  0
M  END
> <VConfSearch Rank>
154

> <Conf_Id>
7

> <Delta U+W>
-0.041

> <U+W>
-49.468

> <U>
14.121

> <W>
-63.589

> <W(PB)>
-65.660

> <W(SA)>
2.071

> <Valence>
15.230

> <Coulomb>
-1.333

> <VdW>
0.224

> <VdW6>
-4.212

> <VdW12>
4.436

> <Bond>
0.044

> <Angle>
2.230

> <Pdih>
12.956

> <Idih>
0.000

> <Tether>
0.000

$$$$
VeraChem MOL file


 17 16  0  0  0  0  0  0  0  0999 V2000     
   19.9215   17.0973   20.5777 C   0  0  0  0  0  0  0  0  0  0  0  0
   19.2790   17.5758   19.6638 O   0  5  0  0  0  0  0  0  0  0  0  0
   19.5965   16.0869   21.1698 O   0  0  0  0  0  0  0  0  0  0  0  0
   21.2201   17.7864   20.9855 C   0  0  0  0  0  0  0  0  0  0  0  0
   21.6555   18.2414   20.0881 H   0  0  0  0  0  0  0  0  0  0  0  0
   21.9265   17.0105   21.3029 H   0  0  0  0  0  0  0  0  0  0  0  0
   21.0912   18.8373   22.0790 C   0  0  0  0  0  0  0  0  0  0  0  0
   22.0297   19.3165   22.3548 H   0  0  0  0  0  0  0  0  0  0  0  0
   19.9585   19.1977   22.6940 C   0  0  0  0  0  0  0  0  0  0  0  0
   19.0065   18.7350   22.4365 H   0  0  0  0  0  0  0  0  0  0  0  0
   19.8846   20.2496   23.7784 C   0  0  0  0  0  0  0  0  0  0  0  0
   19.3014   19.8667   24.6268 H   0  0  0  0  0  0  0  0  0  0  0  0
   20.8882   20.4773   24.1632 H   0  0  0  0  0  0  0  0  0  0  0  0
   19.2350   21.5438   23.2510 C   0  0  0  0  0  0  0  0  0  0  0  0
   19.1827   22.3029   24.0422 H   0  0  0  0  0  0  0  0  0  0  0  0
   19.8160   21.9597   22.4173 H   0  0  0  0  0  0  0  0  0  0  0  0
   18.2144   21.3523   22.8943 H   0  0  0  0  0  0  0  0  0  0  0  0
  1  2  1  0  0  0  0
  1  3  2  0  0  0  0
  1  4  1  0  0  0  0
  4  5  1  0  0  0  0
  4  6  1  0  0  0  0
  4  7  1  0  0  0  0
  7  8  1  0  0  0  0
  7  9  2  0  0  0  0
  9 10  1  0  0  0  0
  9 11  1  0  0  0  0
 11 12  1  0  0  0  0
 11 13  1  0  0  0  0
 11 14  1  0  0  0  0
 14 15  1  0  0  0  0
 14 16  1  0  0  0  0
 14 17  1  0  0  0  0
M  END
> <VConfSearch Rank>
155

> <Conf_Id>
39

> <Delta U+W>
-0.422

> <U+W>
-49.849

> <U>
14.465

> <W>
-64.314

> <W(PB)>
-66.406

> <W(SA)>
2.093

> <Valence>
14.072

> <Coulomb>
-0.199

> <VdW>
0.592

> <VdW6>
-5.019

> <VdW12>
5.611

> <Bond>
0.085

> <Angle>
2.748

> <Pdih>
11.238

> <Idih>
0.001

> <Tether>
0.000

$$$$
VeraChem MOL file


 17 16  0  0  0  0  0  0  0  0999 V2000     
   21.6180   16.6303   22.9733 C   0  0  0  0  0  0  0  0  0  0  0  0
   22.8020   16.5685   22.7062 O   0  5  0  0  0  0  0  0  0  0  0  0
   20.8570   15.6880   22.8755 O   0  0  0  0  0  0  0  0  0  0  0  0
   21.0609   17.9609   23.4620 C   0  0  0  0  0  0  0  0  0  0  0  0
   21.7922   18.3969   24.1524 H   0  0  0  0  0  0  0  0  0  0  0  0
   20.1522   17.7600   24.0422 H   0  0  0  0  0  0  0  0  0  0  0  0
   20.7784   18.9249   22.3256 C   0  0  0  0  0  0  0  0  0  0  0  0
   21.6583   19.2971   21.8018 H   0  0  0  0  0  0  0  0  0  0  0  0
   19.5539   19.3145   21.9580 C   0  0  0  0  0  0  0  0  0  0  0  0
   18.6742   18.9396   22.4802 H   0  0  0  0  0  0  0  0  0  0  0  0
   19.2739   20.2730   20.8221 C   0  0  0  0  0  0  0  0  0  0  0  0
   20.1676   20.3977   20.1952 H   0  0  0  0  0  0  0  0  0  0  0  0
   18.4892   19.8602   20.1736 H   0  0  0  0  0  0  0  0  0  0  0  0
   18.8287   21.6487   21.3552 C   0  0  0  0  0  0  0  0  0  0  0  0
   19.6093   22.0933   21.9866 H   0  0  0  0  0  0  0  0  0  0  0  0
   18.6264   22.3396   20.5265 H   0  0  0  0  0  0  0  0  0  0  0  0
   17.9135   21.5590   21.9550 H   0  0  0  0  0  0  0  0  0  0  0  0
  1  2  1  0  0  0  0
  1  3  2  0  0  0  0
  1  4  1  0  0  0  0
  4  5  1  0  0  0  0
  4  6  1  0  0  0  0
  4  7  1  0  0  0  0
  7  8  1  0  0  0  0
  7  9  2  0  0  0  0
  9 10  1  0  0  0  0
  9 11  1  0  0  0  0
 11 12  1  0  0  0  0
 11 13  1  0  0  0  0
 11 14  1  0  0  0  0
 14 15  1  0  0  0  0
 14 16  1  0  0  0  0
 14 17  1  0  0  0  0
M  END
> <VConfSearch Rank>
156

> <Conf_Id>
38

> <Delta U+W>
0.000

> <U+W>
-49.427

> <U>
13.666

> <W>
-63.093

> <W(PB)>
-65.225

> <W(SA)>
2.132

> <Valence>
15.226

> <Coulomb>
-1.822

> <VdW>
0.261

> <VdW6>
-4.165

> <VdW12>
4.426

> <Bond>
0.044

> <Angle>
2.229

> <Pdih>
12.953

> <Idih>
0.000

> <Tether>
0.000

$$$$
VeraChem MOL file


 17 16  0  0  0  0  0  0  0  0999 V2000     
   22.0890   17.7980   20.1443 C   0  0  0  0  0  0  0  0  0  0  0  0
   21.8767   16.6020   20.1822 O   0  5  0  0  0  0  0  0  0  0  0  0
   23.1997   18.2804   20.0413 O   0  0  0  0  0  0  0  0  0  0  0  0
   20.8994   18.7456   20.2247 C   0  0  0  0  0  0  0  0  0  0  0  0
   20.0063   18.2043   19.8899 H   0  0  0  0  0  0  0  0  0  0  0  0
   21.0692   19.5578   19.5085 H   0  0  0  0  0  0  0  0  0  0  0  0
   20.7012   19.3124   21.6176 C   0  0  0  0  0  0  0  0  0  0  0  0
   21.4793   19.9957   21.9567 H   0  0  0  0  0  0  0  0  0  0  0  0
   19.6635   19.0193   22.4071 C   0  0  0  0  0  0  0  0  0  0  0  0
   18.8875   18.3335   22.0687 H   0  0  0  0  0  0  0  0  0  0  0  0
   19.4696   19.5823   23.7974 C   0  0  0  0  0  0  0  0  0  0  0  0
   19.2308   18.7695   24.4965 H   0  0  0  0  0  0  0  0  0  0  0  0
   20.3986   20.0453   24.1576 H   0  0  0  0  0  0  0  0  0  0  0  0
   18.3373   20.6275   23.8187 C   0  0  0  0  0  0  0  0  0  0  0  0
   17.3864   20.1815   23.4991 H   0  0  0  0  0  0  0  0  0  0  0  0
   18.2009   21.0319   24.8301 H   0  0  0  0  0  0  0  0  0  0  0  0
   18.5662   21.4641   23.1453 H   0  0  0  0  0  0  0  0  0  0  0  0
  1  2  1  0  0  0  0
  1  3  2  0  0  0  0
  1  4  1  0  0  0  0
  4  5  1  0  0  0  0
  4  6  1  0  0  0  0
  4  7  1  0  0  0  0
  7  8  1  0  0  0  0
  7  9  2  0  0  0  0
  9 10  1  0  0  0  0
  9 11  1  0  0  0  0
 11 12  1  0  0  0  0
 11 13  1  0  0  0  0
 11 14  1  0  0  0  0
 14 15  1  0  0  0  0
 14 16  1  0  0  0  0
 14 17  1  0  0  0  0
M  END
> <VConfSearch Rank>
157

> <Conf_Id>
35

> <Delta U+W>
-0.102

> <U+W>
-49.529

> <U>
13.666

> <W>
-63.195

> <W(PB)>
-65.299

> <W(SA)>
2.103

> <Valence>
15.226

> <Coulomb>
-1.822

> <VdW>
0.261

> <VdW6>
-4.165

> <VdW12>
4.426

> <Bond>
0.044

> <Angle>
2.229

> <Pdih>
12.953

> <Idih>
0.000

> <Tether>
0.000

$$$$
VeraChem MOL file


 17 16  0  0  0  0  0  0  0  0999 V2000     
   23.1369   18.6506   22.3154 C   0  0  0  0  0  0  0  0  0  0  0  0
   23.4254   18.0635   23.3396 O   0  5  0  0  0  0  0  0  0  0  0  0
   23.5824   18.3561   21.2237 O   0  0  0  0  0  0  0  0  0  0  0  0
   22.1717   19.8250   22.4086 C   0  0  0  0  0  0  0  0  0  0  0  0
   22.3474   20.4824   21.5486 H   0  0  0  0  0  0  0  0  0  0  0  0
   22.4274   20.3980   23.3074 H   0  0  0  0  0  0  0  0  0  0  0  0
   20.7221   19.3817   22.4689 C   0  0  0  0  0  0  0  0  0  0  0  0
   20.4451   18.8571   23.3817 H   0  0  0  0  0  0  0  0  0  0  0  0
   19.8332   19.5987   21.4915 C   0  0  0  0  0  0  0  0  0  0  0  0
   20.1484   20.1236   20.5902 H   0  0  0  0  0  0  0  0  0  0  0  0
   18.3725   19.1806   21.4839 C   0  0  0  0  0  0  0  0  0  0  0  0
   17.7468   20.0726   21.3449 H   0  0  0  0  0  0  0  0  0  0  0  0
   18.1869   18.5500   20.6039 H   0  0  0  0  0  0  0  0  0  0  0  0
   17.9028   18.4288   22.7489 C   0  0  0  0  0  0  0  0  0  0  0  0
   18.0234   19.0517   23.6450 H   0  0  0  0  0  0  0  0  0  0  0  0
   16.8414   18.1615   22.6659 H   0  0  0  0  0  0  0  0  0  0  0  0
   18.4730   17.5012   22.8903 H   0  0  0  0  0  0  0  0  0  0  0  0
  1  2  1  0  0  0  0
  1  3  2  0  0  0  0
  1  4  1  0  0  0  0
  4  5  1  0  0  0  0
  4  6  1  0  0  0  0
  4  7  1  0  0  0  0
  7  8  1  0  0  0  0
  7  9  2  0  0  0  0
  9 10  1  0  0  0  0
  9 11  1  0  0  0  0
 11 12  1  0  0  0  0
 11 13  1  0  0  0  0
 11 14  1  0  0  0  0
 14 15  1  0  0  0  0
 14 16  1  0  0  0  0
 14 17  1  0  0  0  0
M  END
> <VConfSearch Rank>
158

> <Conf_Id>
19

> <Delta U+W>
-0.496

> <U+W>
-49.923

> <U>
13.863

> <W>
-63.786

> <W(PB)>
-65.856

> <W(SA)>
2.070

> <Valence>
14.117

> <Coulomb>
-1.228

> <VdW>
0.974

> <VdW6>
-4.885

> <VdW12>
5.859

> <Bond>
0.094

> <Angle>
2.818

> <Pdih>
11.205

> <Idih>
0.000

> <Tether>
0.000

$$$$
VeraChem MOL file


 17 16  0  0  0  0  0  0  0  0999 V2000     
   22.7306   18.1371   23.2796 C   0  0  0  0  0  0  0  0  0  0  0  0
   22.4568   17.0237   23.6823 O   0  5  0  0  0  0  0  0  0  0  0  0
   23.7156   18.3873   22.6131 O   0  0  0  0  0  0  0  0  0  0  0  0
   21.7955   19.2849   23.6374 C   0  0  0  0  0  0  0  0  0  0  0  0
   22.4141   20.1489   23.9065 H   0  0  0  0  0  0  0  0  0  0  0  0
   21.2321   19.0017   24.5346 H   0  0  0  0  0  0  0  0  0  0  0  0
   20.8600   19.6481   22.5000 C   0  0  0  0  0  0  0  0  0  0  0  0
   21.3396   20.0861   21.6252 H   0  0  0  0  0  0  0  0  0  0  0  0
   19.5378   19.4545   22.5239 C   0  0  0  0  0  0  0  0  0  0  0  0
   19.0594   19.0117   23.3969 H   0  0  0  0  0  0  0  0  0  0  0  0
   18.6071   19.8146   21.3876 C   0  0  0  0  0  0  0  0  0  0  0  0
   17.7454   20.3737   21.7767 H   0  0  0  0  0  0  0  0  0  0  0  0
   19.1137   20.4750   20.6703 H   0  0  0  0  0  0  0  0  0  0  0  0
   18.1124   18.5516   20.6561 C   0  0  0  0  0  0  0  0  0  0  0  0
   17.5673   17.8900   21.3420 H   0  0  0  0  0  0  0  0  0  0  0  0
   17.4378   18.8187   19.8323 H   0  0  0  0  0  0  0  0  0  0  0  0
   18.9565   17.9885   20.2366 H   0  0  0  0  0  0  0  0  0  0  0  0
  1  2  1  0  0  0  0
  1  3  2  0  0  0  0
  1  4  1  0  0  0  0
  4  5  1  0  0  0  0
  4  6  1  0  0  0  0
  4  7  1  0  0  0  0
  7  8  1  0  0  0  0
  7  9  2  0  0  0  0
  9 10  1  0  0  0  0
  9 11  1  0  0  0  0
 11 12  1  0  0  0  0
 11 13  1  0  0  0  0
 11 14  1  0  0  0  0
 14 15  1  0  0  0  0
 14 16  1  0  0  0  0
 14 17  1  0  0  0  0
M  END
> <VConfSearch Rank>
159

> <Conf_Id>
7

> <Delta U+W>
-0.041

> <U+W>
-49.468

> <U>
14.121

> <W>
-63.589

> <W(PB)>
-65.660

> <W(SA)>
2.071

> <Valence>
15.230

> <Coulomb>
-1.333

> <VdW>
0.224

> <VdW6>
-4.212

> <VdW12>
4.436

> <Bond>
0.044

> <Angle>
2.230

> <Pdih>
12.956

> <Idih>
0.000

> <Tether>
0.000

$$$$
VeraChem MOL file


 17 16  0  0  0  0  0  0  0  0999 V2000     
   18.2105   17.9710   23.7656 C   0  0  0  0  0  0  0  0  0  0  0  0
   18.8801   17.5661   24.6955 O   0  5  0  0  0  0  0  0  0  0  0  0
   17.5049   17.2536   23.0841 O   0  0  0  0  0  0  0  0  0  0  0  0
   18.2353   19.4644   23.4546 C   0  0  0  0  0  0  0  0  0  0  0  0
   18.3817   20.0022   24.3986 H   0  0  0  0  0  0  0  0  0  0  0  0
   17.2390   19.7494   23.0968 H   0  0  0  0  0  0  0  0  0  0  0  0
   19.2858   19.9083   22.4465 C   0  0  0  0  0  0  0  0  0  0  0  0
   19.2860   20.9776   22.2390 H   0  0  0  0  0  0  0  0  0  0  0  0
   20.1683   19.1142   21.8287 C   0  0  0  0  0  0  0  0  0  0  0  0
   20.1899   18.0418   22.0190 H   0  0  0  0  0  0  0  0  0  0  0  0
   21.1934   19.6066   20.8314 C   0  0  0  0  0  0  0  0  0  0  0  0
   21.1768   18.9685   19.9375 H   0  0  0  0  0  0  0  0  0  0  0  0
   20.9477   20.6239   20.4969 H   0  0  0  0  0  0  0  0  0  0  0  0
   22.6083   19.5985   21.4421 C   0  0  0  0  0  0  0  0  0  0  0  0
   23.3481   19.9553   20.7138 H   0  0  0  0  0  0  0  0  0  0  0  0
   22.6559   20.2509   22.3240 H   0  0  0  0  0  0  0  0  0  0  0  0
   22.8956   18.5848   21.7510 H   0  0  0  0  0  0  0  0  0  0  0  0
  1  2  1  0  0  0  0
  1  3  2  0  0  0  0
  1  4  1  0  0  0  0
  4  5  1  0  0  0  0
  4  6  1  0  0  0  0
  4  7  1  0  0  0  0
  7  8  1  0  0  0  0
  7  9  2  0  0  0  0
  9 10  1  0  0  0  0
  9 11  1  0  0  0  0
 11 12  1  0  0  0  0
 11 13  1  0  0  0  0
 11 14  1  0  0  0  0
 14 15  1  0  0  0  0
 14 16  1  0  0  0  0
 14 17  1  0  0  0  0
M  END
> <VConfSearch Rank>
160

> <Conf_Id>
39

> <Delta U+W>
-0.422

> <U+W>
-49.849

> <U>
14.465

> <W>
-64.314

> <W(PB)>
-66.406

> <W(SA)>
2.093

> <Valence>
14.072

> <Coulomb>
-0.199

> <VdW>
0.592

> <VdW6>
-5.019

> <VdW12>
5.611

> <Bond>
0.085

> <Angle>
2.748

> <Pdih>
11.238

> <Idih>
0.001

> <Tether>
0.000

$$$$
VeraChem MOL file


 17 16  0  0  0  0  0  0  0  0999 V2000     
   18.4086   21.8308   22.8707 C   0  0  0  0  0  0  0  0  0  0  0  0
   17.2070   21.6754   22.9652 O   0  5  0  0  0  0  0  0  0  0  0  0
   18.9219   22.8133   22.3726 O   0  0  0  0  0  0  0  0  0  0  0  0
   19.3188   20.7361   23.4116 C   0  0  0  0  0  0  0  0  0  0  0  0
   18.8940   20.3851   24.3592 H   0  0  0  0  0  0  0  0  0  0  0  0
   20.2931   21.1831   23.6429 H   0  0  0  0  0  0  0  0  0  0  0  0
   19.4685   19.5756   22.4464 C   0  0  0  0  0  0  0  0  0  0  0  0
   18.5690   18.9805   22.2916 H   0  0  0  0  0  0  0  0  0  0  0  0
   20.6027   19.2708   21.8084 C   0  0  0  0  0  0  0  0  0  0  0  0
   21.5009   19.8681   21.9614 H   0  0  0  0  0  0  0  0  0  0  0  0
   20.7490   18.1155   20.8434 C   0  0  0  0  0  0  0  0  0  0  0  0
   19.7620   17.7327   20.5496 H   0  0  0  0  0  0  0  0  0  0  0  0
   21.2398   18.4609   19.9234 H   0  0  0  0  0  0  0  0  0  0  0  0
   21.5738   16.9733   21.4680 C   0  0  0  0  0  0  0  0  0  0  0  0
   21.0885   16.5938   22.3769 H   0  0  0  0  0  0  0  0  0  0  0  0
   21.6772   16.1382   20.7630 H   0  0  0  0  0  0  0  0  0  0  0  0
   22.5807   17.3188   21.7368 H   0  0  0  0  0  0  0  0  0  0  0  0
  1  2  1  0  0  0  0
  1  3  2  0  0  0  0
  1  4  1  0  0  0  0
  4  5  1  0  0  0  0
  4  6  1  0  0  0  0
  4  7  1  0  0  0  0
  7  8  1  0  0  0  0
  7  9  2  0  0  0  0
  9 10  1  0  0  0  0
  9 11  1  0  0  0  0
 11 12  1  0  0  0  0
 11 13  1  0  0  0  0
 11 14  1  0  0  0  0
 14 15  1  0  0  0  0
 14 16  1  0  0  0  0
 14 17  1  0  0  0  0
M  END
> <VConfSearch Rank>
161

> <Conf_Id>
38

> <Delta U+W>
0.000

> <U+W>
-49.427

> <U>
13.666

> <W>
-63.093

> <W(PB)>
-65.225

> <W(SA)>
2.132

> <Valence>
15.226

> <Coulomb>
-1.822

> <VdW>
0.261

> <VdW6>
-4.165

> <VdW12>
4.426

> <Bond>
0.044

> <Angle>
2.229

> <Pdih>
12.953

> <Idih>
0.000

> <Tether>
0.000

$$$$
VeraChem MOL file


 17 16  0  0  0  0  0  0  0  0999 V2000     
   18.3711   18.6068   24.6817 C   0  0  0  0  0  0  0  0  0  0  0  0
   18.0559   19.6462   25.2268 O   0  5  0  0  0  0  0  0  0  0  0  0
   18.6665   17.5941   25.2852 O   0  0  0  0  0  0  0  0  0  0  0  0
   18.3925   18.5673   23.1593 C   0  0  0  0  0  0  0  0  0  0  0  0
   17.7253   19.3537   22.7863 H   0  0  0  0  0  0  0  0  0  0  0  0
   17.9659   17.6083   22.8431 H   0  0  0  0  0  0  0  0  0  0  0  0
   19.7908   18.7271   22.5937 C   0  0  0  0  0  0  0  0  0  0  0  0
   20.4693   17.8974   22.7895 H   0  0  0  0  0  0  0  0  0  0  0  0
   20.2037   19.7933   21.9016 C   0  0  0  0  0  0  0  0  0  0  0  0
   19.5256   20.6240   21.7089 H   0  0  0  0  0  0  0  0  0  0  0  0
   21.5996   19.9527   21.3417 C   0  0  0  0  0  0  0  0  0  0  0  0
   21.9932   20.9441   21.6040 H   0  0  0  0  0  0  0  0  0  0  0  0
   22.2798   19.2149   21.7892 H   0  0  0  0  0  0  0  0  0  0  0  0
   21.6041   19.7870   19.8095 C   0  0  0  0  0  0  0  0  0  0  0  0
   20.9608   20.5380   19.3324 H   0  0  0  0  0  0  0  0  0  0  0  0
   22.6194   19.9044   19.4090 H   0  0  0  0  0  0  0  0  0  0  0  0
   21.2381   18.7920   19.5239 H   0  0  0  0  0  0  0  0  0  0  0  0
  1  2  1  0  0  0  0
  1  3  2  0  0  0  0
  1  4  1  0  0  0  0
  4  5  1  0  0  0  0
  4  6  1  0  0  0  0
  4  7  1  0  0  0  0
  7  8  1  0  0  0  0
  7  9  2  0  0  0  0
  9 10  1  0  0  0  0
  9 11  1  0  0  0  0
 11 12  1  0  0  0  0
 11 13  1  0  0  0  0
 11 14  1  0  0  0  0
 14 15  1  0  0  0  0
 14 16  1  0  0  0  0
 14 17  1  0  0  0  0
M  END
> <VConfSearch Rank>
162

> <Conf_Id>
35

> <Delta U+W>
-0.102

> <U+W>
-49.529

> <U>
13.666

> <W>
-63.195

> <W(PB)>
-65.299

> <W(SA)>
2.103

> <Valence>
15.226

> <Coulomb>
-1.822

> <VdW>
0.261

> <VdW6>
-4.165

> <VdW12>
4.426

> <Bond>
0.044

> <Angle>
2.229

> <Pdih>
12.953

> <Idih>
0.000

> <Tether>
0.000

$$$$
VeraChem MOL file


 17 16  0  0  0  0  0  0  0  0999 V2000     
   22.0748   19.9610   20.0743 C   0  0  0  0  0  0  0  0  0  0  0  0
   22.4142   21.1125   20.2634 O   0  5  0  0  0  0  0  0  0  0  0  0
   22.8481   19.0733   19.7733 O   0  0  0  0  0  0  0  0  0  0  0  0
   20.5979   19.6158   20.2135 C   0  0  0  0  0  0  0  0  0  0  0  0
   20.3985   18.7161   19.6190 H   0  0  0  0  0  0  0  0  0  0  0  0
   20.0197   20.4314   19.7641 H   0  0  0  0  0  0  0  0  0  0  0  0
   20.1818   19.4176   21.6589 C   0  0  0  0  0  0  0  0  0  0  0  0
   20.2065   20.3205   22.2666 H   0  0  0  0  0  0  0  0  0  0  0  0
   19.8143   18.2384   22.1755 C   0  0  0  0  0  0  0  0  0  0  0  0
   19.8060   17.3553   21.5374 H   0  0  0  0  0  0  0  0  0  0  0  0
   19.3908   17.9682   23.6095 C   0  0  0  0  0  0  0  0  0  0  0  0
   18.3835   17.5302   23.6075 H   0  0  0  0  0  0  0  0  0  0  0  0
   20.0470   17.1971   24.0355 H   0  0  0  0  0  0  0  0  0  0  0  0
   19.4003   19.2041   24.5361 C   0  0  0  0  0  0  0  0  0  0  0  0
   18.7120   19.9768   24.1693 H   0  0  0  0  0  0  0  0  0  0  0  0
   19.0847   18.9270   25.5504 H   0  0  0  0  0  0  0  0  0  0  0  0
   20.4066   19.6378   24.6039 H   0  0  0  0  0  0  0  0  0  0  0  0
  1  2  1  0  0  0  0
  1  3  2  0  0  0  0
  1  4  1  0  0  0  0
  4  5  1  0  0  0  0
  4  6  1  0  0  0  0
  4  7  1  0  0  0  0
  7  8  1  0  0  0  0
  7  9  2  0  0  0  0
  9 10  1  0  0  0  0
  9 11  1  0  0  0  0
 11 12  1  0  0  0  0
 11 13  1  0  0  0  0
 11 14  1  0  0  0  0
 14 15  1  0  0  0  0
 14 16  1  0  0  0  0
 14 17  1  0  0  0  0
M  END
> <VConfSearch Rank>
163

> <Conf_Id>
19

> <Delta U+W>
-0.496

> <U+W>
-49.923

> <U>
13.863

> <W>
-63.786

> <W(PB)>
-65.856

> <W(SA)>
2.070

> <Valence>
14.117

> <Coulomb>
-1.228

> <VdW>
0.974

> <VdW6>
-4.885

> <VdW12>
5.859

> <Bond>
0.094

> <Angle>
2.818

> <Pdih>
11.205

> <Idih>
0.000

> <Tether>
0.000

$$$$
VeraChem MOL file


 17 16  0  0  0  0  0  0  0  0999 V2000     
   21.0558   16.6780   23.6671 C   0  0  0  0  0  0  0  0  0  0  0  0
   22.2625   16.8219   23.6794 O   0  5  0  0  0  0  0  0  0  0  0  0
   20.4066   16.3637   24.6452 O   0  0  0  0  0  0  0  0  0  0  0  0
   20.3161   16.8923   22.3531 C   0  0  0  0  0  0  0  0  0  0  0  0
   19.5637   16.1007   22.2597 H   0  0  0  0  0  0  0  0  0  0  0  0
   21.0294   16.7556   21.5314 H   0  0  0  0  0  0  0  0  0  0  0  0
   19.6521   18.2539   22.2757 C   0  0  0  0  0  0  0  0  0  0  0  0
   18.8219   18.4062   22.9648 H   0  0  0  0  0  0  0  0  0  0  0  0
   20.0310   19.2282   21.4431 C   0  0  0  0  0  0  0  0  0  0  0  0
   20.8645   19.0772   20.7579 H   0  0  0  0  0  0  0  0  0  0  0  0
   19.3694   20.5863   21.3696 C   0  0  0  0  0  0  0  0  0  0  0  0
   19.1593   20.8404   20.3218 H   0  0  0  0  0  0  0  0  0  0  0  0
   18.4022   20.5713   21.8906 H   0  0  0  0  0  0  0  0  0  0  0  0
   20.2669   21.6734   21.9920 C   0  0  0  0  0  0  0  0  0  0  0  0
   21.2278   21.7372   21.4648 H   0  0  0  0  0  0  0  0  0  0  0  0
   19.7819   22.6567   21.9364 H   0  0  0  0  0  0  0  0  0  0  0  0
   20.4705   21.4530   23.0482 H   0  0  0  0  0  0  0  0  0  0  0  0
  1  2  1  0  0  0  0
  1  3  2  0  0  0  0
  1  4  1  0  0  0  0
  4  5  1  0  0  0  0
  4  6  1  0  0  0  0
  4  7  1  0  0  0  0
  7  8  1  0  0  0  0
  7  9  2  0  0  0  0
  9 10  1  0  0  0  0
  9 11  1  0  0  0  0
 11 12  1  0  0  0  0
 11 13  1  0  0  0  0
 11 14  1  0  0  0  0
 14 15  1  0  0  0  0
 14 16  1  0  0  0  0
 14 17  1  0  0  0  0
M  END
> <VConfSearch Rank>
164

> <Conf_Id>
7

> <Delta U+W>
-0.041

> <U+W>
-49.468

> <U>
14.121

> <W>
-63.589

> <W(PB)>
-65.660

> <W(SA)>
2.071

> <Valence>
15.230

> <Coulomb>
-1.333

> <VdW>
0.224

> <VdW6>
-4.212

> <VdW12>
4.436

> <Bond>
0.044

> <Angle>
2.230

> <Pdih>
12.956

> <Idih>
0.000

> <Tether>
0.000

$$$$
VeraChem MOL file


 17 16  0  0  0  0  0  0  0  0999 V2000     
   17.6039   18.8331   23.2924 C   0  0  0  0  0  0  0  0  0  0  0  0
   16.9108   19.2245   22.3740 O   0  5  0  0  0  0  0  0  0  0  0  0
   17.4962   19.2364   24.4338 O   0  0  0  0  0  0  0  0  0  0  0  0
   18.6464   17.7576   23.0026 C   0  0  0  0  0  0  0  0  0  0  0  0
   18.2585   17.1212   22.1986 H   0  0  0  0  0  0  0  0  0  0  0  0
   18.7200   17.1144   23.8872 H   0  0  0  0  0  0  0  0  0  0  0  0
   20.0301   18.2682   22.6263 C   0  0  0  0  0  0  0  0  0  0  0  0
   20.7587   17.4842   22.4238 H   0  0  0  0  0  0  0  0  0  0  0  0
   20.3955   19.5520   22.5297 C   0  0  0  0  0  0  0  0  0  0  0  0
   19.6863   20.3553   22.7261 H   0  0  0  0  0  0  0  0  0  0  0  0
   21.7877   20.0074   22.1526 C   0  0  0  0  0  0  0  0  0  0  0  0
   22.1297   20.7767   22.8582 H   0  0  0  0  0  0  0  0  0  0  0  0
   22.4991   19.1734   22.2266 H   0  0  0  0  0  0  0  0  0  0  0  0
   21.8153   20.5755   20.7203 C   0  0  0  0  0  0  0  0  0  0  0  0
   22.8275   20.9056   20.4525 H   0  0  0  0  0  0  0  0  0  0  0  0
   21.5013   19.8150   19.9932 H   0  0  0  0  0  0  0  0  0  0  0  0
   21.1403   21.4364   20.6275 H   0  0  0  0  0  0  0  0  0  0  0  0
  1  2  1  0  0  0  0
  1  3  2  0  0  0  0
  1  4  1  0  0  0  0
  4  5  1  0  0  0  0
  4  6  1  0  0  0  0
  4  7  1  0  0  0  0
  7  8  1  0  0  0  0
  7  9  2  0  0  0  0
  9 10  1  0  0  0  0
  9 11  1  0  0  0  0
 11 12  1  0  0  0  0
 11 13  1  0  0  0  0
 11 14  1  0  0  0  0
 14 15  1  0  0  0  0
 14 16  1  0  0  0  0
 14 17  1  0  0  0  0
M  END
> <VConfSearch Rank>
165

> <Conf_Id>
39

> <Delta U+W>
-0.422

> <U+W>
-49.849

> <U>
14.465

> <W>
-64.314

> <W(PB)>
-66.406

> <W(SA)>
2.093

> <Valence>
14.072

> <Coulomb>
-0.199

> <VdW>
0.592

> <VdW6>
-5.019

> <VdW12>
5.611

> <Bond>
0.085

> <Angle>
2.748

> <Pdih>
11.238

> <Idih>
0.001

> <Tether>
0.000

$$$$
VeraChem MOL file


 17 16  0  0  0  0  0  0  0  0999 V2000     
   22.2000   21.6469   22.2184 C   0  0  0  0  0  0  0  0  0  0  0  0
   21.7533   22.7704   22.0950 O   0  5  0  0  0  0  0  0  0  0  0  0
   23.2448   21.2804   21.7174 O   0  0  0  0  0  0  0  0  0  0  0  0
   21.4086   20.6471   23.0512 C   0  0  0  0  0  0  0  0  0  0  0  0
   21.0257   21.1743   23.9327 H   0  0  0  0  0  0  0  0  0  0  0  0
   22.1012   19.8778   23.4133 H   0  0  0  0  0  0  0  0  0  0  0  0
   20.2618   20.0254   22.2773 C   0  0  0  0  0  0  0  0  0  0  0  0
   19.4502   20.7059   22.0217 H   0  0  0  0  0  0  0  0  0  0  0  0
   20.2111   18.7406   21.9125 C   0  0  0  0  0  0  0  0  0  0  0  0
   21.0244   18.0613   22.1659 H   0  0  0  0  0  0  0  0  0  0  0  0
   19.0685   18.1232   21.1375 C   0  0  0  0  0  0  0  0  0  0  0  0
   18.4305   18.9060   20.7045 H   0  0  0  0  0  0  0  0  0  0  0  0
   19.4645   17.5382   20.2964 H   0  0  0  0  0  0  0  0  0  0  0  0
   18.2153   17.2116   22.0408 C   0  0  0  0  0  0  0  0  0  0  0  0
   17.7870   17.7811   22.8762 H   0  0  0  0  0  0  0  0  0  0  0  0
   17.3883   16.7660   21.4728 H   0  0  0  0  0  0  0  0  0  0  0  0
   18.8206   16.3959   22.4577 H   0  0  0  0  0  0  0  0  0  0  0  0
  1  2  1  0  0  0  0
  1  3  2  0  0  0  0
  1  4  1  0  0  0  0
  4  5  1  0  0  0  0
  4  6  1  0  0  0  0
  4  7  1  0  0  0  0
  7  8  1  0  0  0  0
  7  9  2  0  0  0  0
  9 10  1  0  0  0  0
  9 11  1  0  0  0  0
 11 12  1  0  0  0  0
 11 13  1  0  0  0  0
 11 14  1  0  0  0  0
 14 15  1  0  0  0  0
 14 16  1  0  0  0  0
 14 17  1  0  0  0  0
M  END
> <VConfSearch Rank>
166

> <Conf_Id>
38

> <Delta U+W>
0.000

> <U+W>
-49.427

> <U>
13.666

> <W>
-63.093

> <W(PB)>
-65.225

> <W(SA)>
2.132

> <Valence>
15.226

> <Coulomb>
-1.822

> <VdW>
0.261

> <VdW6>
-4.165

> <VdW12>
4.426

> <Bond>
0.044

> <Angle>
2.229

> <Pdih>
12.953

> <Idih>
0.000

> <Tether>
0.000

$$$$
VeraChem MOL file


 17 16  0  0  0  0  0  0  0  0999 V2000     
   20.2370   17.4222   24.6717 C   0  0  0  0  0  0  0  0  0  0  0  0
   20.3052   18.1233   25.6620 O   0  5  0  0  0  0  0  0  0  0  0  0
   20.8349   16.3711   24.5500 O   0  0  0  0  0  0  0  0  0  0  0  0
   19.3504   17.8812   23.5215 C   0  0  0  0  0  0  0  0  0  0  0  0
   18.5908   18.5618   23.9244 H   0  0  0  0  0  0  0  0  0  0  0  0
   18.8212   17.0024   23.1353 H   0  0  0  0  0  0  0  0  0  0  0  0
   20.1395   18.5445   22.4089 C   0  0  0  0  0  0  0  0  0  0  0  0
   20.8032   17.8840   21.8517 H   0  0  0  0  0  0  0  0  0  0  0  0
   20.0590   19.8428   22.1019 C   0  0  0  0  0  0  0  0  0  0  0  0
   19.3975   20.5034   22.6615 H   0  0  0  0  0  0  0  0  0  0  0  0
   20.8495   20.5034   20.9946 C   0  0  0  0  0  0  0  0  0  0  0  0
   21.3202   21.4213   21.3719 H   0  0  0  0  0  0  0  0  0  0  0  0
   21.6638   19.8465   20.6591 H   0  0  0  0  0  0  0  0  0  0  0  0
   19.9437   20.8459   19.7957 C   0  0  0  0  0  0  0  0  0  0  0  0
   19.1415   21.5332   20.0947 H   0  0  0  0  0  0  0  0  0  0  0  0
   20.5227   21.3255   18.9959 H   0  0  0  0  0  0  0  0  0  0  0  0
   19.4814   19.9387   19.3847 H   0  0  0  0  0  0  0  0  0  0  0  0
  1  2  1  0  0  0  0
  1  3  2  0  0  0  0
  1  4  1  0  0  0  0
  4  5  1  0  0  0  0
  4  6  1  0  0  0  0
  4  7  1  0  0  0  0
  7  8  1  0  0  0  0
  7  9  2  0  0  0  0
  9 10  1  0  0  0  0
  9 11  1  0  0  0  0
 11 12  1  0  0  0  0
 11 13  1  0  0  0  0
 11 14  1  0  0  0  0
 14 15  1  0  0  0  0
 14 16  1  0  0  0  0
 14 17  1  0  0  0  0
M  END
> <VConfSearch Rank>
167

> <Conf_Id>
35

> <Delta U+W>
-0.102

> <U+W>
-49.529

> <U>
13.666

> <W>
-63.195

> <W(PB)>
-65.299

> <W(SA)>
2.103

> <Valence>
15.226

> <Coulomb>
-1.822

> <VdW>
0.261

> <VdW6>
-4.165

> <VdW12>
4.426

> <Bond>
0.044

> <Angle>
2.229

> <Pdih>
12.953

> <Idih>
0.000

> <Tether>
0.000

$$$$
VeraChem MOL file


 17 16  0  0  0  0  0  0  0  0999 V2000     
   22.5514   20.1907   23.6496 C   0  0  0  0  0  0  0  0  0  0  0  0
   23.5163   19.4710   23.4820 O   0  5  0  0  0  0  0  0  0  0  0  0
   22.5950   21.4025   23.5692 O   0  0  0  0  0  0  0  0  0  0  0  0
   21.2181   19.5369   23.9881 C   0  0  0  0  0  0  0  0  0  0  0  0
   20.5985   20.2736   24.5134 H   0  0  0  0  0  0  0  0  0  0  0  0
   21.4147   18.7218   24.6941 H   0  0  0  0  0  0  0  0  0  0  0  0
   20.5059   19.0015   22.7603 C   0  0  0  0  0  0  0  0  0  0  0  0
   20.9973   18.1556   22.2828 H   0  0  0  0  0  0  0  0  0  0  0  0
   19.3665   19.5113   22.2758 C   0  0  0  0  0  0  0  0  0  0  0  0
   18.9060   20.3614   22.7782 H   0  0  0  0  0  0  0  0  0  0  0  0
   18.6040   19.0290   21.0533 C   0  0  0  0  0  0  0  0  0  0  0  0
   17.5809   18.7641   21.3526 H   0  0  0  0  0  0  0  0  0  0  0  0
   18.4981   19.8637   20.3473 H   0  0  0  0  0  0  0  0  0  0  0  0
   19.2405   17.8279   20.3197 C   0  0  0  0  0  0  0  0  0  0  0  0
   19.3126   16.9550   20.9817 H   0  0  0  0  0  0  0  0  0  0  0  0
   18.6333   17.5417   19.4512 H   0  0  0  0  0  0  0  0  0  0  0  0
   20.2475   18.0754   19.9589 H   0  0  0  0  0  0  0  0  0  0  0  0
  1  2  1  0  0  0  0
  1  3  2  0  0  0  0
  1  4  1  0  0  0  0
  4  5  1  0  0  0  0
  4  6  1  0  0  0  0
  4  7  1  0  0  0  0
  7  8  1  0  0  0  0
  7  9  2  0  0  0  0
  9 10  1  0  0  0  0
  9 11  1  0  0  0  0
 11 12  1  0  0  0  0
 11 13  1  0  0  0  0
 11 14  1  0  0  0  0
 14 15  1  0  0  0  0
 14 16  1  0  0  0  0
 14 17  1  0  0  0  0
M  END
> <VConfSearch Rank>
168

> <Conf_Id>
19

> <Delta U+W>
-0.496

> <U+W>
-49.923

> <U>
13.863

> <W>
-63.786

> <W(PB)>
-65.856

> <W(SA)>
2.070

> <Valence>
14.117

> <Coulomb>
-1.228

> <VdW>
0.974

> <VdW6>
-4.885

> <VdW12>
5.859

> <Bond>
0.094

> <Angle>
2.818

> <Pdih>
11.205

> <Idih>
0.000

> <Tether>
0.000

$$$$
VeraChem MOL file


 17 16  0  0  0  0  0  0  0  0999 V2000     
   18.7663   19.8242   24.6829 C   0  0  0  0  0  0  0  0  0  0  0  0
   17.8867   18.9884   24.7514 O   0  5  0  0  0  0  0  0  0  0  0  0
   19.4672   20.1407   25.6239 O   0  0  0  0  0  0  0  0  0  0  0  0
   18.9975   20.5219   23.3489 C   0  0  0  0  0  0  0  0  0  0  0  0
   19.1655   21.5858   23.5525 H   0  0  0  0  0  0  0  0  0  0  0  0
   18.0757   20.4496   22.7594 H   0  0  0  0  0  0  0  0  0  0  0  0
   20.1760   19.9447   22.5882 C   0  0  0  0  0  0  0  0  0  0  0  0
   21.1517   20.1173   23.0415 H   0  0  0  0  0  0  0  0  0  0  0  0
   20.0698   19.2603   21.4451 C   0  0  0  0  0  0  0  0  0  0  0  0
   19.0935   19.0836   20.9950 H   0  0  0  0  0  0  0  0  0  0  0  0
   21.2460   18.6830   20.6897 C   0  0  0  0  0  0  0  0  0  0  0  0
   21.1712   18.9497   19.6267 H   0  0  0  0  0  0  0  0  0  0  0  0
   22.1877   19.1135   21.0573 H   0  0  0  0  0  0  0  0  0  0  0  0
   21.2965   17.1494   20.8325 C   0  0  0  0  0  0  0  0  0  0  0  0
   20.3820   16.6888   20.4363 H   0  0  0  0  0  0  0  0  0  0  0  0
   22.1520   16.7358   20.2828 H   0  0  0  0  0  0  0  0  0  0  0  0
   21.3963   16.8593   21.8868 H   0  0  0  0  0  0  0  0  0  0  0  0
  1  2  1  0  0  0  0
  1  3  2  0  0  0  0
  1  4  1  0  0  0  0
  4  5  1  0  0  0  0
  4  6  1  0  0  0  0
  4  7  1  0  0  0  0
  7  8  1  0  0  0  0
  7  9  2  0  0  0  0
  9 10  1  0  0  0  0
  9 11  1  0  0  0  0
 11 12  1  0  0  0  0
 11 13  1  0  0  0  0
 11 14  1  0  0  0  0
 14 15  1  0  0  0  0
 14 16  1  0  0  0  0
 14 17  1  0  0  0  0
M  END
> <VConfSearch Rank>
169

> <Conf_Id>
7

> <Delta U+W>
-0.041

> <U+W>
-49.468

> <U>
14.121

> <W>
-63.589

> <W(PB)>
-65.660

> <W(SA)>
2.071

> <Valence>
15.230

> <Coulomb>
-1.333

> <VdW>
0.224

> <VdW6>
-4.212

> <VdW12>
4.436

> <Bond>
0.044

> <Angle>
2.230

> <Pdih>
12.956

> <Idih>
0.000

> <Tether>
0.000

$$$$
VeraChem MOL file


 17 16  0  0  0  0  0  0  0  0999 V2000     
   19.4691   20.2373   24.7682 C   0  0  0  0  0  0  0  0  0  0  0  0
   19.0230   19.2350   25.2910 O   0  5  0  0  0  0  0  0  0  0  0  0
   18.8639   21.2896   24.7087 O   0  0  0  0  0  0  0  0  0  0  0  0
   20.8754   20.1796   24.1794 C   0  0  0  0  0  0  0  0  0  0  0  0
   21.4627   19.4751   24.7798 H   0  0  0  0  0  0  0  0  0  0  0  0
   21.3410   21.1612   24.3255 H   0  0  0  0  0  0  0  0  0  0  0  0
   20.9571   19.7896   22.7103 C   0  0  0  0  0  0  0  0  0  0  0  0
   21.9697   19.7546   22.3103 H   0  0  0  0  0  0  0  0  0  0  0  0
   19.9211   19.4985   21.9148 C   0  0  0  0  0  0  0  0  0  0  0  0
   18.8987   19.5251   22.2900 H   0  0  0  0  0  0  0  0  0  0  0  0
   20.0568   19.1171   20.4574 C   0  0  0  0  0  0  0  0  0  0  0  0
   19.3480   19.7006   19.8543 H   0  0  0  0  0  0  0  0  0  0  0  0
   21.0618   19.3621   20.0871 H   0  0  0  0  0  0  0  0  0  0  0  0
   19.7901   17.6133   20.2516 C   0  0  0  0  0  0  0  0  0  0  0  0
   19.8885   17.3425   19.1923 H   0  0  0  0  0  0  0  0  0  0  0  0
   20.5043   17.0086   20.8259 H   0  0  0  0  0  0  0  0  0  0  0  0
   18.7763   17.3471   20.5787 H   0  0  0  0  0  0  0  0  0  0  0  0
  1  2  1  0  0  0  0
  1  3  2  0  0  0  0
  1  4  1  0  0  0  0
  4  5  1  0  0  0  0
  4  6  1  0  0  0  0
  4  7  1  0  0  0  0
  7  8  1  0  0  0  0
  7  9  2  0  0  0  0
  9 10  1  0  0  0  0
  9 11  1  0  0  0  0
 11 12  1  0  0  0  0
 11 13  1  0  0  0  0
 11 14  1  0  0  0  0
 14 15  1  0  0  0  0
 14 16  1  0  0  0  0
 14 17  1  0  0  0  0
M  END
> <VConfSearch Rank>
170

> <Conf_Id>
39

> <Delta U+W>
-0.422

> <U+W>
-49.849

> <U>
14.465

> <W>
-64.314

> <W(PB)>
-66.406

> <W(SA)>
2.093

> <Valence>
14.072

> <Coulomb>
-0.199

> <VdW>
0.592

> <VdW6>
-5.019

> <VdW12>
5.611

> <Bond>
0.085

> <Angle>
2.748

> <Pdih>
11.238

> <Idih>
0.001

> <Tether>
0.000

$$$$
VeraChem MOL file


 17 16  0  0  0  0  0  0  0  0999 V2000     
   18.9545   17.3387   24.3279 C   0  0  0  0  0  0  0  0  0  0  0  0
   17.9478   16.7215   24.0406 O   0  5  0  0  0  0  0  0  0  0  0  0
   19.1539   17.8271   25.4227 O   0  0  0  0  0  0  0  0  0  0  0  0
   20.0257   17.5032   23.2578 C   0  0  0  0  0  0  0  0  0  0  0  0
   20.1123   16.5512   22.7215 H   0  0  0  0  0  0  0  0  0  0  0  0
   20.9860   17.6782   23.7576 H   0  0  0  0  0  0  0  0  0  0  0  0
   19.7074   18.6222   22.2845 C   0  0  0  0  0  0  0  0  0  0  0  0
   18.8512   18.4438   21.6347 H   0  0  0  0  0  0  0  0  0  0  0  0
   20.3994   19.7623   22.1985 C   0  0  0  0  0  0  0  0  0  0  0  0
   21.2537   19.9413   22.8507 H   0  0  0  0  0  0  0  0  0  0  0  0
   20.0783   20.8786   21.2299 C   0  0  0  0  0  0  0  0  0  0  0  0
   19.0760   20.7396   20.8018 H   0  0  0  0  0  0  0  0  0  0  0  0
   20.0629   21.8389   21.7630 H   0  0  0  0  0  0  0  0  0  0  0  0
   21.1153   20.9395   20.0915 C   0  0  0  0  0  0  0  0  0  0  0  0
   21.1305   19.9978   19.5272 H   0  0  0  0  0  0  0  0  0  0  0  0
   20.8774   21.7517   19.3924 H   0  0  0  0  0  0  0  0  0  0  0  0
   22.1234   21.1165   20.4889 H   0  0  0  0  0  0  0  0  0  0  0  0
  1  2  1  0  0  0  0
  1  3  2  0  0  0  0
  1  4  1  0  0  0  0
  4  5  1  0  0  0  0
  4  6  1  0  0  0  0
  4  7  1  0  0  0  0
  7  8  1  0  0  0  0
  7  9  2  0  0  0  0
  9 10  1  0  0  0  0
  9 11  1  0  0  0  0
 11 12  1  0  0  0  0
 11 13  1  0  0  0  0
 11 14  1  0  0  0  0
 14 15  1  0  0  0  0
 14 16  1  0  0  0  0
 14 17  1  0  0  0  0
M  END
> <VConfSearch Rank>
171

> <Conf_Id>
38

> <Delta U+W>
0.000

> <U+W>
-49.427

> <U>
13.666

> <W>
-63.093

> <W(PB)>
-65.225

> <W(SA)>
2.132

> <Valence>
15.226

> <Coulomb>
-1.822

> <VdW>
0.261

> <VdW6>
-4.165

> <VdW12>
4.426

> <Bond>
0.044

> <Angle>
2.229

> <Pdih>
12.953

> <Idih>
0.000

> <Tether>
0.000

$$$$
VeraChem MOL file


 17 16  0  0  0  0  0  0  0  0999 V2000     
   18.9803   19.6725   19.1673 C   0  0  0  0  0  0  0  0  0  0  0  0
   19.1913   20.8170   18.8173 O   0  5  0  0  0  0  0  0  0  0  0  0
   17.9748   19.0552   18.8760 O   0  0  0  0  0  0  0  0  0  0  0  0
   20.0345   18.9698   20.0125 C   0  0  0  0  0  0  0  0  0  0  0  0
   21.0003   19.4564   19.8307 H   0  0  0  0  0  0  0  0  0  0  0  0
   20.1217   17.9389   19.6503 H   0  0  0  0  0  0  0  0  0  0  0  0
   19.6926   18.9753   21.4903 C   0  0  0  0  0  0  0  0  0  0  0  0
   18.8288   18.3729   21.7701 H   0  0  0  0  0  0  0  0  0  0  0  0
   20.3731   19.6579   22.4162 C   0  0  0  0  0  0  0  0  0  0  0  0
   21.2348   20.2626   22.1353 H   0  0  0  0  0  0  0  0  0  0  0  0
   20.0283   19.6654   23.8887 C   0  0  0  0  0  0  0  0  0  0  0  0
   20.0116   20.6989   24.2602 H   0  0  0  0  0  0  0  0  0  0  0  0
   19.0215   19.2561   24.0498 H   0  0  0  0  0  0  0  0  0  0  0  0
   21.0488   18.8441   24.7006 C   0  0  0  0  0  0  0  0  0  0  0  0
   22.0606   19.2552   24.5883 H   0  0  0  0  0  0  0  0  0  0  0  0
   20.7937   18.8538   25.7683 H   0  0  0  0  0  0  0  0  0  0  0  0
   21.0647   17.7992   24.3637 H   0  0  0  0  0  0  0  0  0  0  0  0
  1  2  1  0  0  0  0
  1  3  2  0  0  0  0
  1  4  1  0  0  0  0
  4  5  1  0  0  0  0
  4  6  1  0  0  0  0
  4  7  1  0  0  0  0
  7  8  1  0  0  0  0
  7  9  2  0  0  0  0
  9 10  1  0  0  0  0
  9 11  1  0  0  0  0
 11 12  1  0  0  0  0
 11 13  1  0  0  0  0
 11 14  1  0  0  0  0
 14 15  1  0  0  0  0
 14 16  1  0  0  0  0
 14 17  1  0  0  0  0
M  END
> <VConfSearch Rank>
172

> <Conf_Id>
35

> <Delta U+W>
-0.102

> <U+W>
-49.529

> <U>
13.666

> <W>
-63.195

> <W(PB)>
-65.299

> <W(SA)>
2.103

> <Valence>
15.226

> <Coulomb>
-1.822

> <VdW>
0.261

> <VdW6>
-4.165

> <VdW12>
4.426

> <Bond>
0.044

> <Angle>
2.229

> <Pdih>
12.953

> <Idih>
0.000

> <Tether>
0.000

$$$$
VeraChem MOL file


 17 16  0  0  0  0  0  0  0  0999 V2000     
   22.4317   20.7125   23.3095 C   0  0  0  0  0  0  0  0  0  0  0  0
   23.4309   20.5627   22.6342 O   0  5  0  0  0  0  0  0  0  0  0  0
   22.0388   21.7951   23.6974 O   0  0  0  0  0  0  0  0  0  0  0  0
   21.6351   19.4738   23.6976 C   0  0  0  0  0  0  0  0  0  0  0  0
   21.0673   19.7023   24.6075 H   0  0  0  0  0  0  0  0  0  0  0  0
   22.3496   18.6836   23.9558 H   0  0  0  0  0  0  0  0  0  0  0  0
   20.7169   19.0022   22.5858 C   0  0  0  0  0  0  0  0  0  0  0  0
   21.2293   18.6107   21.7088 H   0  0  0  0  0  0  0  0  0  0  0  0
   19.3805   19.0560   22.6473 C   0  0  0  0  0  0  0  0  0  0  0  0
   18.9030   19.4586   23.5401 H   0  0  0  0  0  0  0  0  0  0  0  0
   18.4037   18.6065   21.5737 C   0  0  0  0  0  0  0  0  0  0  0  0
   17.7301   17.8500   21.9985 H   0  0  0  0  0  0  0  0  0  0  0  0
   17.7606   19.4538   21.2998 H   0  0  0  0  0  0  0  0  0  0  0  0
   19.0569   18.0374   20.2949 C   0  0  0  0  0  0  0  0  0  0  0  0
   19.6662   17.1532   20.5236 H   0  0  0  0  0  0  0  0  0  0  0  0
   18.2882   17.7375   19.5709 H   0  0  0  0  0  0  0  0  0  0  0  0
   19.6982   18.7871   19.8130 H   0  0  0  0  0  0  0  0  0  0  0  0
  1  2  1  0  0  0  0
  1  3  2  0  0  0  0
  1  4  1  0  0  0  0
  4  5  1  0  0  0  0
  4  6  1  0  0  0  0
  4  7  1  0  0  0  0
  7  8  1  0  0  0  0
  7  9  2  0  0  0  0
  9 10  1  0  0  0  0
  9 11  1  0  0  0  0
 11 12  1  0  0  0  0
 11 13  1  0  0  0  0
 11 14  1  0  0  0  0
 14 15  1  0  0  0  0
 14 16  1  0  0  0  0
 14 17  1  0  0  0  0
M  END
> <VConfSearch Rank>
173

> <Conf_Id>
19

> <Delta U+W>
-0.496

> <U+W>
-49.923

> <U>
13.863

> <W>
-63.786

> <W(PB)>
-65.856

> <W(SA)>
2.070

> <Valence>
14.117

> <Coulomb>
-1.228

> <VdW>
0.974

> <VdW6>
-4.885

> <VdW12>
5.859

> <Bond>
0.094

> <Angle>
2.818

> <Pdih>
11.205

> <Idih>
0.000

> <Tether>
0.000

$$$$
VeraChem MOL file


 17 16  0  0  0  0  0  0  0  0999 V2000     
   19.5267   20.2348   24.8294 C   0  0  0  0  0  0  0  0  0  0  0  0
   20.3910   21.0807   24.9493 O   0  5  0  0  0  0  0  0  0  0  0  0
   18.3514   20.4372   25.0632 O   0  0  0  0  0  0  0  0  0  0  0  0
   19.9380   18.8415   24.3717 C   0  0  0  0  0  0  0  0  0  0  0  0
   19.3830   18.1138   24.9750 H   0  0  0  0  0  0  0  0  0  0  0  0
   21.0014   18.7047   24.6018 H   0  0  0  0  0  0  0  0  0  0  0  0
   19.6667   18.6109   22.8973 C   0  0  0  0  0  0  0  0  0  0  0  0
   18.6141   18.5776   22.6178 H   0  0  0  0  0  0  0  0  0  0  0  0
   20.6199   18.4620   21.9724 C   0  0  0  0  0  0  0  0  0  0  0  0
   21.6723   18.5005   22.2517 H   0  0  0  0  0  0  0  0  0  0  0  0
   20.3473   18.2350   20.5022 C   0  0  0  0  0  0  0  0  0  0  0  0
   20.9540   17.3950   20.1377 H   0  0  0  0  0  0  0  0  0  0  0  0
   19.2961   17.9566   20.3447 H   0  0  0  0  0  0  0  0  0  0  0  0
   20.6693   19.4970   19.6784 C   0  0  0  0  0  0  0  0  0  0  0  0
   21.7255   19.7764   19.7866 H   0  0  0  0  0  0  0  0  0  0  0  0
   20.4692   19.3269   18.6125 H   0  0  0  0  0  0  0  0  0  0  0  0
   20.0557   20.3454   20.0093 H   0  0  0  0  0  0  0  0  0  0  0  0
  1  2  1  0  0  0  0
  1  3  2  0  0  0  0
  1  4  1  0  0  0  0
  4  5  1  0  0  0  0
  4  6  1  0  0  0  0
  4  7  1  0  0  0  0
  7  8  1  0  0  0  0
  7  9  2  0  0  0  0
  9 10  1  0  0  0  0
  9 11  1  0  0  0  0
 11 12  1  0  0  0  0
 11 13  1  0  0  0  0
 11 14  1  0  0  0  0
 14 15  1  0  0  0  0
 14 16  1  0  0  0  0
 14 17  1  0  0  0  0
M  END
> <VConfSearch Rank>
174

> <Conf_Id>
7

> <Delta U+W>
-0.041

> <U+W>
-49.468

> <U>
14.121

> <W>
-63.589

> <W(PB)>
-65.660

> <W(SA)>
2.071

> <Valence>
15.230

> <Coulomb>
-1.333

> <VdW>
0.224

> <VdW6>
-4.212

> <VdW12>
4.436

> <Bond>
0.044

> <Angle>
2.230

> <Pdih>
12.956

> <Idih>
0.000

> <Tether>
0.000

$$$$
VeraChem MOL file


 17 16  0  0  0  0  0  0  0  0999 V2000     
   17.5078   18.9440   23.0686 C   0  0  0  0  0  0  0  0  0  0  0  0
   17.5888   17.9101   23.7022 O   0  5  0  0  0  0  0  0  0  0  0  0
   16.7243   19.1117   22.1548 O   0  0  0  0  0  0  0  0  0  0  0  0
   18.4195   20.1032   23.4592 C   0  0  0  0  0  0  0  0  0  0  0  0
   18.5918   20.0460   24.5403 H   0  0  0  0  0  0  0  0  0  0  0  0
   17.8679   21.0355   23.2909 H   0  0  0  0  0  0  0  0  0  0  0  0
   19.7554   20.1624   22.7322 C   0  0  0  0  0  0  0  0  0  0  0  0
   20.3904   20.9973   23.0260 H   0  0  0  0  0  0  0  0  0  0  0  0
   20.1844   19.2998   21.8033 C   0  0  0  0  0  0  0  0  0  0  0  0
   19.5696   18.4560   21.4922 H   0  0  0  0  0  0  0  0  0  0  0  0
   21.5238   19.4046   21.1083 C   0  0  0  0  0  0  0  0  0  0  0  0
   21.3880   19.2942   20.0239 H   0  0  0  0  0  0  0  0  0  0  0  0
   21.9656   20.3973   21.2711 H   0  0  0  0  0  0  0  0  0  0  0  0
   22.4974   18.3236   21.6167 C   0  0  0  0  0  0  0  0  0  0  0  0
   23.4669   18.4034   21.1081 H   0  0  0  0  0  0  0  0  0  0  0  0
   22.6687   18.4299   22.6960 H   0  0  0  0  0  0  0  0  0  0  0  0
   22.0972   17.3180   21.4317 H   0  0  0  0  0  0  0  0  0  0  0  0
  1  2  1  0  0  0  0
  1  3  2  0  0  0  0
  1  4  1  0  0  0  0
  4  5  1  0  0  0  0
  4  6  1  0  0  0  0
  4  7  1  0  0  0  0
  7  8  1  0  0  0  0
  7  9  2  0  0  0  0
  9 10  1  0  0  0  0
  9 11  1  0  0  0  0
 11 12  1  0  0  0  0
 11 13  1  0  0  0  0
 11 14  1  0  0  0  0
 14 15  1  0  0  0  0
 14 16  1  0  0  0  0
 14 17  1  0  0  0  0
M  END
> <VConfSearch Rank>
175

> <Conf_Id>
39

> <Delta U+W>
-0.422

> <U+W>
-49.849

> <U>
14.465

> <W>
-64.314

> <W(PB)>
-66.406

> <W(SA)>
2.093

> <Valence>
14.072

> <Coulomb>
-0.199

> <VdW>
0.592

> <VdW6>
-5.019

> <VdW12>
5.611

> <Bond>
0.085

> <Angle>
2.748

> <Pdih>
11.238

> <Idih>
0.001

> <Tether>
0.000

$$$$
VeraChem MOL file


 17 16  0  0  0  0  0  0  0  0999 V2000     
   18.8059   20.1720   24.8461 C   0  0  0  0  0  0  0  0  0  0  0  0
   17.6722   19.7898   25.0592 O   0  5  0  0  0  0  0  0  0  0  0  0
   19.2045   21.2844   25.1300 O   0  0  0  0  0  0  0  0  0  0  0  0
   19.7801   19.2008   24.1925 C   0  0  0  0  0  0  0  0  0  0  0  0
   19.6200   18.2134   24.6407 H   0  0  0  0  0  0  0  0  0  0  0  0
   20.7995   19.5099   24.4531 H   0  0  0  0  0  0  0  0  0  0  0  0
   19.6029   19.1246   22.6880 C   0  0  0  0  0  0  0  0  0  0  0  0
   18.6699   18.6734   22.3518 H   0  0  0  0  0  0  0  0  0  0  0  0
   20.5000   19.5691   21.8026 C   0  0  0  0  0  0  0  0  0  0  0  0
   21.4315   20.0229   22.1394 H   0  0  0  0  0  0  0  0  0  0  0  0
   20.3199   19.4958   20.3028 C   0  0  0  0  0  0  0  0  0  0  0  0
   19.2738   19.2727   20.0516 H   0  0  0  0  0  0  0  0  0  0  0  0
   20.5508   20.4712   19.8536 H   0  0  0  0  0  0  0  0  0  0  0  0
   21.2333   18.4177   19.6873 C   0  0  0  0  0  0  0  0  0  0  0  0
   21.0030   17.4280   20.1032 H   0  0  0  0  0  0  0  0  0  0  0  0
   21.0986   18.3697   18.5989 H   0  0  0  0  0  0  0  0  0  0  0  0
   22.2897   18.6368   19.8906 H   0  0  0  0  0  0  0  0  0  0  0  0
  1  2  1  0  0  0  0
  1  3  2  0  0  0  0
  1  4  1  0  0  0  0
  4  5  1  0  0  0  0
  4  6  1  0  0  0  0
  4  7  1  0  0  0  0
  7  8  1  0  0  0  0
  7  9  2  0  0  0  0
  9 10  1  0  0  0  0
  9 11  1  0  0  0  0
 11 12  1  0  0  0  0
 11 13  1  0  0  0  0
 11 14  1  0  0  0  0
 14 15  1  0  0  0  0
 14 16  1  0  0  0  0
 14 17  1  0  0  0  0
M  END
> <VConfSearch Rank>
176

> <Conf_Id>
38

> <Delta U+W>
0.000

> <U+W>
-49.427

> <U>
13.666

> <W>
-63.093

> <W(PB)>
-65.225

> <W(SA)>
2.132

> <Valence>
15.226

> <Coulomb>
-1.822

> <VdW>
0.261

> <VdW6>
-4.165

> <VdW12>
4.426

> <Bond>
0.044

> <Angle>
2.229

> <Pdih>
12.953

> <Idih>
0.000

> <Tether>
0.000

$$$$
VeraChem MOL file


 17 16  0  0  0  0  0  0  0  0999 V2000     
   21.2466   17.3230   24.3158 C   0  0  0  0  0  0  0  0  0  0  0  0
   22.1047   16.6215   23.8174 O   0  5  0  0  0  0  0  0  0  0  0  0
   20.4639   16.9308   25.1587 O   0  0  0  0  0  0  0  0  0  0  0  0
   21.1485   18.7745   23.8651 C   0  0  0  0  0  0  0  0  0  0  0  0
   22.1244   19.0765   23.4661 H   0  0  0  0  0  0  0  0  0  0  0  0
   20.9610   19.3891   24.7531 H   0  0  0  0  0  0  0  0  0  0  0  0
   20.0514   18.9916   22.8404 C   0  0  0  0  0  0  0  0  0  0  0  0
   19.0354   18.8659   23.2132 H   0  0  0  0  0  0  0  0  0  0  0  0
   20.2708   19.3123   21.5616 C   0  0  0  0  0  0  0  0  0  0  0  0
   21.2872   19.4347   21.1887 H   0  0  0  0  0  0  0  0  0  0  0  0
   19.1757   19.5245   20.5403 C   0  0  0  0  0  0  0  0  0  0  0  0
   19.4065   18.9601   19.6266 H   0  0  0  0  0  0  0  0  0  0  0  0
   18.2188   19.1375   20.9167 H   0  0  0  0  0  0  0  0  0  0  0  0
   19.0216   21.0188   20.1960 C   0  0  0  0  0  0  0  0  0  0  0  0
   19.9540   21.4233   19.7808 H   0  0  0  0  0  0  0  0  0  0  0  0
   18.2261   21.1664   19.4540 H   0  0  0  0  0  0  0  0  0  0  0  0
   18.7649   21.6006   21.0910 H   0  0  0  0  0  0  0  0  0  0  0  0
  1  2  1  0  0  0  0
  1  3  2  0  0  0  0
  1  4  1  0  0  0  0
  4  5  1  0  0  0  0
  4  6  1  0  0  0  0
  4  7  1  0  0  0  0
  7  8  1  0  0  0  0
  7  9  2  0  0  0  0
  9 10  1  0  0  0  0
  9 11  1  0  0  0  0
 11 12  1  0  0  0  0
 11 13  1  0  0  0  0
 11 14  1  0  0  0  0
 14 15  1  0  0  0  0
 14 16  1  0  0  0  0
 14 17  1  0  0  0  0
M  END
> <VConfSearch Rank>
177

> <Conf_Id>
35

> <Delta U+W>
-0.102

> <U+W>
-49.529

> <U>
13.666

> <W>
-63.195

> <W(PB)>
-65.299

> <W(SA)>
2.103

> <Valence>
15.226

> <Coulomb>
-1.822

> <VdW>
0.261

> <VdW6>
-4.165

> <VdW12>
4.426

> <Bond>
0.044

> <Angle>
2.229

> <Pdih>
12.953

> <Idih>
0.000

> <Tether>
0.000

$$$$
VeraChem MOL file


 17 16  0  0  0  0  0  0  0  0999 V2000     
   18.2954   20.7176   23.7434 C   0  0  0  0  0  0  0  0  0  0  0  0
   17.2739   20.8647   23.1016 O   0  5  0  0  0  0  0  0  0  0  0  0
   18.3118   20.4236   24.9224 O   0  0  0  0  0  0  0  0  0  0  0  0
   19.6262   20.9227   23.0316 C   0  0  0  0  0  0  0  0  0  0  0  0
   20.3812   21.1808   23.7839 H   0  0  0  0  0  0  0  0  0  0  0  0
   19.5222   21.7912   22.3710 H   0  0  0  0  0  0  0  0  0  0  0  0
   20.0490   19.7064   22.2296 C   0  0  0  0  0  0  0  0  0  0  0  0
   19.4221   19.4914   21.3659 H   0  0  0  0  0  0  0  0  0  0  0  0
   21.1003   18.9367   22.5379 C   0  0  0  0  0  0  0  0  0  0  0  0
   21.7021   19.1806   23.4128 H   0  0  0  0  0  0  0  0  0  0  0  0
   21.5766   17.7065   21.7840 C   0  0  0  0  0  0  0  0  0  0  0  0
   22.6202   17.8582   21.4768 H   0  0  0  0  0  0  0  0  0  0  0  0
   21.5932   16.8508   22.4726 H   0  0  0  0  0  0  0  0  0  0  0  0
   20.7355   17.3363   20.5425 C   0  0  0  0  0  0  0  0  0  0  0  0
   20.7410   18.1503   19.8057 H   0  0  0  0  0  0  0  0  0  0  0  0
   21.1415   16.4399   20.0559 H   0  0  0  0  0  0  0  0  0  0  0  0
   19.6945   17.1254   20.8206 H   0  0  0  0  0  0  0  0  0  0  0  0
  1  2  1  0  0  0  0
  1  3  2  0  0  0  0
  1  4  1  0  0  0  0
  4  5  1  0  0  0  0
  4  6  1  0  0  0  0
  4  7  1  0  0  0  0
  7  8  1  0  0  0  0
  7  9  2  0  0  0  0
  9 10  1  0  0  0  0
  9 11  1  0  0  0  0
 11 12  1  0  0  0  0
 11 13  1  0  0  0  0
 11 14  1  0  0  0  0
 14 15  1  0  0  0  0
 14 16  1  0  0  0  0
 14 17  1  0  0  0  0
M  END
> <VConfSearch Rank>
178

> <Conf_Id>
19

> <Delta U+W>
-0.496

> <U+W>
-49.923

> <U>
13.863

> <W>
-63.786

> <W(PB)>
-65.856

> <W(SA)>
2.070

> <Valence>
14.117

> <Coulomb>
-1.228

> <VdW>
0.974

> <VdW6>
-4.885

> <VdW12>
5.859

> <Bond>
0.094

> <Angle>
2.818

> <Pdih>
11.205

> <Idih>
0.000

> <Tether>
0.000

$$$$
VeraChem MOL file


 17 16  0  0  0  0  0  0  0  0999 V2000     
   20.0128   20.7974   24.5773 C   0  0  0  0  0  0  0  0  0  0  0  0
   18.9993   20.4064   25.1222 O   0  5  0  0  0  0  0  0  0  0  0  0
   21.0568   20.9995   25.1656 O   0  0  0  0  0  0  0  0  0  0  0  0
   19.9716   21.0593   23.0775 C   0  0  0  0  0  0  0  0  0  0  0  0
   20.5187   21.9894   22.8851 H   0  0  0  0  0  0  0  0  0  0  0  0
   18.9285   21.2348   22.7882 H   0  0  0  0  0  0  0  0  0  0  0  0
   20.5753   19.9239   22.2729 C   0  0  0  0  0  0  0  0  0  0  0  0
   21.6499   19.7893   22.3924 H   0  0  0  0  0  0  0  0  0  0  0  0
   19.8751   19.1175   21.4694 C   0  0  0  0  0  0  0  0  0  0  0  0
   18.7998   19.2493   21.3543 H   0  0  0  0  0  0  0  0  0  0  0  0
   20.4786   17.9841   20.6702 C   0  0  0  0  0  0  0  0  0  0  0  0
   20.1270   18.0348   19.6308 H   0  0  0  0  0  0  0  0  0  0  0  0
   21.5729   18.0766   20.6379 H   0  0  0  0  0  0  0  0  0  0  0  0
   20.1001   16.6180   21.2747 C   0  0  0  0  0  0  0  0  0  0  0  0
   19.0107   16.4819   21.2837 H   0  0  0  0  0  0  0  0  0  0  0  0
   20.5409   15.7992   20.6912 H   0  0  0  0  0  0  0  0  0  0  0  0
   20.4635   16.5347   22.3075 H   0  0  0  0  0  0  0  0  0  0  0  0
  1  2  1  0  0  0  0
  1  3  2  0  0  0  0
  1  4  1  0  0  0  0
  4  5  1  0  0  0  0
  4  6  1  0  0  0  0
  4  7  1  0  0  0  0
  7  8  1  0  0  0  0
  7  9  2  0  0  0  0
  9 10  1  0  0  0  0
  9 11  1  0  0  0  0
 11 12  1  0  0  0  0
 11 13  1  0  0  0  0
 11 14  1  0  0  0  0
 14 15  1  0  0  0  0
 14 16  1  0  0  0  0
 14 17  1  0  0  0  0
M  END
> <VConfSearch Rank>
179

> <Conf_Id>
7

> <Delta U+W>
-0.041

> <U+W>
-49.468

> <U>
14.121

> <W>
-63.589

> <W(PB)>
-65.660

> <W(SA)>
2.071

> <Valence>
15.230

> <Coulomb>
-1.333

> <VdW>
0.224

> <VdW6>
-4.212

> <VdW12>
4.436

> <Bond>
0.044

> <Angle>
2.230

> <Pdih>
12.956

> <Idih>
0.000

> <Tether>
0.000

$$$$
VeraChem MOL file


 17 16  0  0  0  0  0  0  0  0999 V2000     
   20.3347   21.9349   21.5607 C   0  0  0  0  0  0  0  0  0  0  0  0
   21.4068   21.9397   20.9884 O   0  5  0  0  0  0  0  0  0  0  0  0
   20.0639   22.6763   22.4849 O   0  0  0  0  0  0  0  0  0  0  0  0
   19.2614   20.9655   21.0750 C   0  0  0  0  0  0  0  0  0  0  0  0
   19.3924   20.8324   19.9948 H   0  0  0  0  0  0  0  0  0  0  0  0
   18.2873   21.4517   21.2028 H   0  0  0  0  0  0  0  0  0  0  0  0
   19.2465   19.6055   21.7585 C   0  0  0  0  0  0  0  0  0  0  0  0
   18.4728   18.9293   21.3970 H   0  0  0  0  0  0  0  0  0  0  0  0
   20.0795   19.2016   22.7249 C   0  0  0  0  0  0  0  0  0  0  0  0
   20.8624   19.8577   23.1037 H   0  0  0  0  0  0  0  0  0  0  0  0
   20.0212   17.8364   23.3736 C   0  0  0  0  0  0  0  0  0  0  0  0
   20.0593   17.9435   24.4661 H   0  0  0  0  0  0  0  0  0  0  0  0
   19.0703   17.3387   23.1388 H   0  0  0  0  0  0  0  0  0  0  0  0
   21.1906   16.9496   22.9032 C   0  0  0  0  0  0  0  0  0  0  0  0
   21.1441   15.9610   23.3780 H   0  0  0  0  0  0  0  0  0  0  0  0
   21.1585   16.8071   21.8150 H   0  0  0  0  0  0  0  0  0  0  0  0
   22.1557   17.4059   23.1598 H   0  0  0  0  0  0  0  0  0  0  0  0
  1  2  1  0  0  0  0
  1  3  2  0  0  0  0
  1  4  1  0  0  0  0
  4  5  1  0  0  0  0
  4  6  1  0  0  0  0
  4  7  1  0  0  0  0
  7  8  1  0  0  0  0
  7  9  2  0  0  0  0
  9 10  1  0  0  0  0
  9 11  1  0  0  0  0
 11 12  1  0  0  0  0
 11 13  1  0  0  0  0
 11 14  1  0  0  0  0
 14 15  1  0  0  0  0
 14 16  1  0  0  0  0
 14 17  1  0  0  0  0
M  END
> <VConfSearch Rank>
180

> <Conf_Id>
39

> <Delta U+W>
-0.422

> <U+W>
-49.849

> <U>
14.465

> <W>
-64.314

> <W(PB)>
-66.406

> <W(SA)>
2.093

> <Valence>
14.072

> <Coulomb>
-0.199

> <VdW>
0.592

> <VdW6>
-5.019

> <VdW12>
5.611

> <Bond>
0.085

> <Angle>
2.748

> <Pdih>
11.238

> <Idih>
0.001

> <Tether>
0.000

$$$$
VeraChem MOL file


 17 16  0  0  0  0  0  0  0  0999 V2000     
   19.8479   22.2284   23.2091 C   0  0  0  0  0  0  0  0  0  0  0  0
   18.7832   22.7847   23.0246 O   0  5  0  0  0  0  0  0  0  0  0  0
   20.9232   22.7859   23.1110 O   0  0  0  0  0  0  0  0  0  0  0  0
   19.8309   20.7536   23.5892 C   0  0  0  0  0  0  0  0  0  0  0  0
   19.0128   20.6010   24.3026 H   0  0  0  0  0  0  0  0  0  0  0  0
   20.7642   20.5248   24.1178 H   0  0  0  0  0  0  0  0  0  0  0  0
   19.6501   19.8461   22.3874 C   0  0  0  0  0  0  0  0  0  0  0  0
   18.6752   19.9030   21.9041 H   0  0  0  0  0  0  0  0  0  0  0  0
   20.5930   19.0224   21.9196 C   0  0  0  0  0  0  0  0  0  0  0  0
   21.5687   18.9682   22.4015 H   0  0  0  0  0  0  0  0  0  0  0  0
   20.4123   18.1210   20.7188 C   0  0  0  0  0  0  0  0  0  0  0  0
   19.5220   18.4166   20.1467 H   0  0  0  0  0  0  0  0  0  0  0  0
   21.2712   18.2277   20.0425 H   0  0  0  0  0  0  0  0  0  0  0  0
   20.2764   16.6471   21.1481 C   0  0  0  0  0  0  0  0  0  0  0  0
   19.4076   16.5110   21.8055 H   0  0  0  0  0  0  0  0  0  0  0  0
   20.1462   15.9978   20.2726 H   0  0  0  0  0  0  0  0  0  0  0  0
   21.1709   16.3129   21.6900 H   0  0  0  0  0  0  0  0  0  0  0  0
  1  2  1  0  0  0  0
  1  3  2  0  0  0  0
  1  4  1  0  0  0  0
  4  5  1  0  0  0  0
  4  6  1  0  0  0  0
  4  7  1  0  0  0  0
  7  8  1  0  0  0  0
  7  9  2  0  0  0  0
  9 10  1  0  0  0  0
  9 11  1  0  0  0  0
 11 12  1  0  0  0  0
 11 13  1  0  0  0  0
 11 14  1  0  0  0  0
 14 15  1  0  0  0  0
 14 16  1  0  0  0  0
 14 17  1  0  0  0  0
M  END
> <VConfSearch Rank>
181

> <Conf_Id>
38

> <Delta U+W>
0.000

> <U+W>
-49.427

> <U>
13.666

> <W>
-63.093

> <W(PB)>
-65.225

> <W(SA)>
2.132

> <Valence>
15.226

> <Coulomb>
-1.822

> <VdW>
0.261

> <VdW6>
-4.165

> <VdW12>
4.426

> <Bond>
0.044

> <Angle>
2.229

> <Pdih>
12.953

> <Idih>
0.000

> <Tether>
0.000

$$$$
VeraChem MOL file


 17 16  0  0  0  0  0  0  0  0999 V2000     
   18.3931   19.6839   24.7466 C   0  0  0  0  0  0  0  0  0  0  0  0
   19.0474   20.3312   25.5402 O   0  5  0  0  0  0  0  0  0  0  0  0
   17.6564   18.7725   25.0683 O   0  0  0  0  0  0  0  0  0  0  0  0
   18.4965   20.0359   23.2684 C   0  0  0  0  0  0  0  0  0  0  0  0
   18.8237   21.0793   23.1862 H   0  0  0  0  0  0  0  0  0  0  0  0
   17.4891   19.9811   22.8398 H   0  0  0  0  0  0  0  0  0  0  0  0
   19.4337   19.1112   22.5152 C   0  0  0  0  0  0  0  0  0  0  0  0
   19.0909   18.0818   22.4158 H   0  0  0  0  0  0  0  0  0  0  0  0
   20.6061   19.4896   21.9970 C   0  0  0  0  0  0  0  0  0  0  0  0
   20.9498   20.5184   22.0996 H   0  0  0  0  0  0  0  0  0  0  0  0
   21.5413   18.5652   21.2498 C   0  0  0  0  0  0  0  0  0  0  0  0
   22.5624   18.6774   21.6387 H   0  0  0  0  0  0  0  0  0  0  0  0
   21.2557   17.5167   21.4114 H   0  0  0  0  0  0  0  0  0  0  0  0
   21.5307   18.8696   19.7391 C   0  0  0  0  0  0  0  0  0  0  0  0
   21.8498   19.9021   19.5452 H   0  0  0  0  0  0  0  0  0  0  0  0
   22.2116   18.1963   19.2023 H   0  0  0  0  0  0  0  0  0  0  0  0
   20.5234   18.7389   19.3221 H   0  0  0  0  0  0  0  0  0  0  0  0
  1  2  1  0  0  0  0
  1  3  2  0  0  0  0
  1  4  1  0  0  0  0
  4  5  1  0  0  0  0
  4  6  1  0  0  0  0
  4  7  1  0  0  0  0
  7  8  1  0  0  0  0
  7  9  2  0  0  0  0
  9 10  1  0  0  0  0
  9 11  1  0  0  0  0
 11 12  1  0  0  0  0
 11 13  1  0  0  0  0
 11 14  1  0  0  0  0
 14 15  1  0  0  0  0
 14 16  1  0  0  0  0
 14 17  1  0  0  0  0
M  END
> <VConfSearch Rank>
182

> <Conf_Id>
35

> <Delta U+W>
-0.102

> <U+W>
-49.529

> <U>
13.666

> <W>
-63.195

> <W(PB)>
-65.299

> <W(SA)>
2.103

> <Valence>
15.226

> <Coulomb>
-1.822

> <VdW>
0.261

> <VdW6>
-4.165

> <VdW12>
4.426

> <Bond>
0.044

> <Angle>
2.229

> <Pdih>
12.953

> <Idih>
0.000

> <Tether>
0.000

$$$$
VeraChem MOL file


 17 16  0  0  0  0  0  0  0  0999 V2000     
   21.3909   20.8735   20.1558 C   0  0  0  0  0  0  0  0  0  0  0  0
   20.9451   20.5905   19.0611 O   0  5  0  0  0  0  0  0  0  0  0  0
   21.4959   22.0131   20.5645 O   0  0  0  0  0  0  0  0  0  0  0  0
   21.8511   19.7370   21.0593 C   0  0  0  0  0  0  0  0  0  0  0  0
   22.5864   20.1379   21.7671 H   0  0  0  0  0  0  0  0  0  0  0  0
   22.3743   19.0038   20.4347 H   0  0  0  0  0  0  0  0  0  0  0  0
   20.6988   19.0719   21.7882 C   0  0  0  0  0  0  0  0  0  0  0  0
   20.0152   18.5177   21.1474 H   0  0  0  0  0  0  0  0  0  0  0  0
   20.5085   19.1477   23.1113 C   0  0  0  0  0  0  0  0  0  0  0  0
   21.2114   19.7154   23.7201 H   0  0  0  0  0  0  0  0  0  0  0  0
   19.3785   18.5120   23.9036 C   0  0  0  0  0  0  0  0  0  0  0  0
   19.8074   17.8549   24.6722 H   0  0  0  0  0  0  0  0  0  0  0  0
   18.8425   19.2977   24.4529 H   0  0  0  0  0  0  0  0  0  0  0  0
   18.3646   17.7063   23.0616 C   0  0  0  0  0  0  0  0  0  0  0  0
   18.8579   16.8760   22.5393 H   0  0  0  0  0  0  0  0  0  0  0  0
   17.5823   17.2817   23.7040 H   0  0  0  0  0  0  0  0  0  0  0  0
   17.8760   18.3461   22.3151 H   0  0  0  0  0  0  0  0  0  0  0  0
  1  2  1  0  0  0  0
  1  3  2  0  0  0  0
  1  4  1  0  0  0  0
  4  5  1  0  0  0  0
  4  6  1  0  0  0  0
  4  7  1  0  0  0  0
  7  8  1  0  0  0  0
  7  9  2  0  0  0  0
  9 10  1  0  0  0  0
  9 11  1  0  0  0  0
 11 12  1  0  0  0  0
 11 13  1  0  0  0  0
 11 14  1  0  0  0  0
 14 15  1  0  0  0  0
 14 16  1  0  0  0  0
 14 17  1  0  0  0  0
M  END
> <VConfSearch Rank>
183

> <Conf_Id>
19

> <Delta U+W>
-0.496

> <U+W>
-49.923

> <U>
13.863

> <W>
-63.786

> <W(PB)>
-65.856

> <W(SA)>
2.070

> <Valence>
14.117

> <Coulomb>
-1.228

> <VdW>
0.974

> <VdW6>
-4.885

> <VdW12>
5.859

> <Bond>
0.094

> <Angle>
2.818

> <Pdih>
11.205

> <Idih>
0.000

> <Tether>
0.000

$$$$
VeraChem MOL file


 17 16  0  0  0  0  0  0  0  0999 V2000     
   20.5311   21.9454   21.7871 C   0  0  0  0  0  0  0  0  0  0  0  0
   21.1277   22.2794   22.7918 O   0  5  0  0  0  0  0  0  0  0  0  0
   20.8545   22.2906   20.6676 O   0  0  0  0  0  0  0  0  0  0  0  0
   19.3049   21.0546   21.9375 C   0  0  0  0  0  0  0  0  0  0  0  0
   18.5344   21.4276   21.2529 H   0  0  0  0  0  0  0  0  0  0  0  0
   18.9155   21.1757   22.9556 H   0  0  0  0  0  0  0  0  0  0  0  0
   19.6052   19.5979   21.6400 C   0  0  0  0  0  0  0  0  0  0  0  0
   19.8499   19.3762   20.6016 H   0  0  0  0  0  0  0  0  0  0  0  0
   19.5902   18.6254   22.5566 C   0  0  0  0  0  0  0  0  0  0  0  0
   19.3505   18.8485   23.5958 H   0  0  0  0  0  0  0  0  0  0  0  0
   19.8928   17.1739   22.2584 C   0  0  0  0  0  0  0  0  0  0  0  0
   19.1178   16.5345   22.7024 H   0  0  0  0  0  0  0  0  0  0  0  0
   19.8701   16.9912   21.1752 H   0  0  0  0  0  0  0  0  0  0  0  0
   21.2723   16.7707   22.8145 C   0  0  0  0  0  0  0  0  0  0  0  0
   21.3107   16.9067   23.9033 H   0  0  0  0  0  0  0  0  0  0  0  0
   21.4870   15.7168   22.5950 H   0  0  0  0  0  0  0  0  0  0  0  0
   22.0670   17.3812   22.3656 H   0  0  0  0  0  0  0  0  0  0  0  0
  1  2  1  0  0  0  0
  1  3  2  0  0  0  0
  1  4  1  0  0  0  0
  4  5  1  0  0  0  0
  4  6  1  0  0  0  0
  4  7  1  0  0  0  0
  7  8  1  0  0  0  0
  7  9  2  0  0  0  0
  9 10  1  0  0  0  0
  9 11  1  0  0  0  0
 11 12  1  0  0  0  0
 11 13  1  0  0  0  0
 11 14  1  0  0  0  0
 14 15  1  0  0  0  0
 14 16  1  0  0  0  0
 14 17  1  0  0  0  0
M  END
> <VConfSearch Rank>
184

> <Conf_Id>
7

> <Delta U+W>
-0.041

> <U+W>
-49.468

> <U>
14.121

> <W>
-63.589

> <W(PB)>
-65.660

> <W(SA)>
2.071

> <Valence>
15.230

> <Coulomb>
-1.333

> <VdW>
0.224

> <VdW6>
-4.212

> <VdW12>
4.436

> <Bond>
0.044

> <Angle>
2.230

> <Pdih>
12.956

> <Idih>
0.000

> <Tether>
0.000

$$$$
VeraChem MOL file


 17 16  0  0  0  0  0  0  0  0999 V2000     
   22.7751   18.8003   22.9036 C   0  0  0  0  0  0  0  0  0  0  0  0
   23.1273   19.9073   23.2605 O   0  5  0  0  0  0  0  0  0  0  0  0
   23.3463   18.1587   22.0439 O   0  0  0  0  0  0  0  0  0  0  0  0
   21.5676   18.1703   23.5913 C   0  0  0  0  0  0  0  0  0  0  0  0
   21.5461   18.5280   24.6273 H   0  0  0  0  0  0  0  0  0  0  0  0
   21.7404   17.0893   23.6492 H   0  0  0  0  0  0  0  0  0  0  0  0
   20.2222   18.4375   22.9314 C   0  0  0  0  0  0  0  0  0  0  0  0
   19.3741   17.9787   23.4382 H   0  0  0  0  0  0  0  0  0  0  0  0
   20.0186   19.1638   21.8260 C   0  0  0  0  0  0  0  0  0  0  0  0
   20.8491   19.6340   21.3007 H   0  0  0  0  0  0  0  0  0  0  0  0
   18.6578   19.3981   21.2086 C   0  0  0  0  0  0  0  0  0  0  0  0
   18.7029   19.2045   20.1283 H   0  0  0  0  0  0  0  0  0  0  0  0
   17.9206   18.6972   21.6238 H   0  0  0  0  0  0  0  0  0  0  0  0
   18.1808   20.8432   21.4520 C   0  0  0  0  0  0  0  0  0  0  0  0
   17.1938   21.0079   21.0007 H   0  0  0  0  0  0  0  0  0  0  0  0
   18.1034   21.0522   22.5271 H   0  0  0  0  0  0  0  0  0  0  0  0
   18.8812   21.5658   21.0129 H   0  0  0  0  0  0  0  0  0  0  0  0
  1  2  1  0  0  0  0
  1  3  2  0  0  0  0
  1  4  1  0  0  0  0
  4  5  1  0  0  0  0
  4  6  1  0  0  0  0
  4  7  1  0  0  0  0
  7  8  1  0  0  0  0
  7  9  2  0  0  0  0
  9 10  1  0  0  0  0
  9 11  1  0  0  0  0
 11 12  1  0  0  0  0
 11 13  1  0  0  0  0
 11 14  1  0  0  0  0
 14 15  1  0  0  0  0
 14 16  1  0  0  0  0
 14 17  1  0  0  0  0
M  END
> <VConfSearch Rank>
185

> <Conf_Id>
39

> <Delta U+W>
-0.422

> <U+W>
-49.849

> <U>
14.465

> <W>
-64.314

> <W(PB)>
-66.406

> <W(SA)>
2.093

> <Valence>
14.072

> <Coulomb>
-0.199

> <VdW>
0.592

> <VdW6>
-5.019

> <VdW12>
5.611

> <Bond>
0.085

> <Angle>
2.748

> <Pdih>
11.238

> <Idih>
0.001

> <Tether>
0.000

$$$$
VeraChem MOL file


 17 16  0  0  0  0  0  0  0  0999 V2000     
   21.8214   21.8198   21.3293 C   0  0  0  0  0  0  0  0  0  0  0  0
   22.8887   21.9496   21.8960 O   0  5  0  0  0  0  0  0  0  0  0  0
   21.0712   22.7451   21.0891 O   0  0  0  0  0  0  0  0  0  0  0  0
   21.4060   20.4211   20.8925 C   0  0  0  0  0  0  0  0  0  0  0  0
   22.2935   19.9181   20.4913 H   0  0  0  0  0  0  0  0  0  0  0  0
   20.6913   20.5178   20.0664 H   0  0  0  0  0  0  0  0  0  0  0  0
   20.8162   19.6087   22.0295 C   0  0  0  0  0  0  0  0  0  0  0  0
   21.5171   19.3340   22.8172 H   0  0  0  0  0  0  0  0  0  0  0  0
   19.5344   19.2372   22.1011 C   0  0  0  0  0  0  0  0  0  0  0  0
   18.8334   19.5147   21.3145 H   0  0  0  0  0  0  0  0  0  0  0  0
   18.9472   18.4303   23.2375 C   0  0  0  0  0  0  0  0  0  0  0  0
   19.6355   18.4148   24.0937 H   0  0  0  0  0  0  0  0  0  0  0  0
   18.0196   18.9033   23.5873 H   0  0  0  0  0  0  0  0  0  0  0  0
   18.6512   16.9841   22.7948 C   0  0  0  0  0  0  0  0  0  0  0  0
   19.5699   16.4818   22.4644 H   0  0  0  0  0  0  0  0  0  0  0  0
   18.2247   16.4038   23.6233 H   0  0  0  0  0  0  0  0  0  0  0  0
   17.9345   16.9679   21.9633 H   0  0  0  0  0  0  0  0  0  0  0  0
  1  2  1  0  0  0  0
  1  3  2  0  0  0  0
  1  4  1  0  0  0  0
  4  5  1  0  0  0  0
  4  6  1  0  0  0  0
  4  7  1  0  0  0  0
  7  8  1  0  0  0  0
  7  9  2  0  0  0  0
  9 10  1  0  0  0  0
  9 11  1  0  0  0  0
 11 12  1  0  0  0  0
 11 13  1  0  0  0  0
 11 14  1  0  0  0  0
 14 15  1  0  0  0  0
 14 16  1  0  0  0  0
 14 17  1  0  0  0  0
M  END
> <VConfSearch Rank>
186

> <Conf_Id>
38

> <Delta U+W>
0.000

> <U+W>
-49.427

> <U>
13.666

> <W>
-63.093

> <W(PB)>
-65.225

> <W(SA)>
2.132

> <Valence>
15.226

> <Coulomb>
-1.822

> <VdW>
0.261

> <VdW6>
-4.165

> <VdW12>
4.426

> <Bond>
0.044

> <Angle>
2.229

> <Pdih>
12.953

> <Idih>
0.000

> <Tether>
0.000

$$$$
VeraChem MOL file


 17 16  0  0  0  0  0  0  0  0999 V2000     
   17.4472   20.9696   22.5009 C   0  0  0  0  0  0  0  0  0  0  0  0
   17.2930   21.6941   21.5374 O   0  5  0  0  0  0  0  0  0  0  0  0
   17.1800   21.2999   23.6396 O   0  0  0  0  0  0  0  0  0  0  0  0
   17.9999   19.5693   22.2705 C   0  0  0  0  0  0  0  0  0  0  0  0
   17.7872   19.2828   21.2336 H   0  0  0  0  0  0  0  0  0  0  0  0
   17.4428   18.8791   22.9146 H   0  0  0  0  0  0  0  0  0  0  0  0
   19.4845   19.4747   22.5671 C   0  0  0  0  0  0  0  0  0  0  0  0
   19.7574   19.5891   23.6157 H   0  0  0  0  0  0  0  0  0  0  0  0
   20.4242   19.2697   21.6391 C   0  0  0  0  0  0  0  0  0  0  0  0
   20.1508   19.1586   20.5903 H   0  0  0  0  0  0  0  0  0  0  0  0
   21.9044   19.1796   21.9361 C   0  0  0  0  0  0  0  0  0  0  0  0
   22.4618   19.8212   21.2403 H   0  0  0  0  0  0  0  0  0  0  0  0
   22.1168   19.5524   22.9476 H   0  0  0  0  0  0  0  0  0  0  0  0
   22.4070   17.7281   21.8114 C   0  0  0  0  0  0  0  0  0  0  0  0
   22.2417   17.3422   20.7970 H   0  0  0  0  0  0  0  0  0  0  0  0
   23.4817   17.6692   22.0274 H   0  0  0  0  0  0  0  0  0  0  0  0
   21.8812   17.0715   22.5171 H   0  0  0  0  0  0  0  0  0  0  0  0
  1  2  1  0  0  0  0
  1  3  2  0  0  0  0
  1  4  1  0  0  0  0
  4  5  1  0  0  0  0
  4  6  1  0  0  0  0
  4  7  1  0  0  0  0
  7  8  1  0  0  0  0
  7  9  2  0  0  0  0
  9 10  1  0  0  0  0
  9 11  1  0  0  0  0
 11 12  1  0  0  0  0
 11 13  1  0  0  0  0
 11 14  1  0  0  0  0
 14 15  1  0  0  0  0
 14 16  1  0  0  0  0
 14 17  1  0  0  0  0
M  END
> <VConfSearch Rank>
187

> <Conf_Id>
35

> <Delta U+W>
-0.102

> <U+W>
-49.529

> <U>
13.666

> <W>
-63.195

> <W(PB)>
-65.299

> <W(SA)>
2.103

> <Valence>
15.226

> <Coulomb>
-1.822

> <VdW>
0.261

> <VdW6>
-4.165

> <VdW12>
4.426

> <Bond>
0.044

> <Angle>
2.229

> <Pdih>
12.953

> <Idih>
0.000

> <Tether>
0.000

$$$$
VeraChem MOL file


 17 16  0  0  0  0  0  0  0  0999 V2000     
   20.0991   20.5014   24.7965 C   0  0  0  0  0  0  0  0  0  0  0  0
   19.2523   19.9901   25.5026 O   0  5  0  0  0  0  0  0  0  0  0  0
   21.2082   20.8049   25.1897 O   0  0  0  0  0  0  0  0  0  0  0  0
   19.7457   20.7850   23.3424 C   0  0  0  0  0  0  0  0  0  0  0  0
   20.3945   21.5929   22.9832 H   0  0  0  0  0  0  0  0  0  0  0  0
   18.7175   21.1640   23.3156 H   0  0  0  0  0  0  0  0  0  0  0  0
   19.8700   19.5543   22.4642 C   0  0  0  0  0  0  0  0  0  0  0  0
   19.1401   18.7734   22.6705 H   0  0  0  0  0  0  0  0  0  0  0  0
   20.7960   19.4092   21.5081 C   0  0  0  0  0  0  0  0  0  0  0  0
   21.5130   20.2108   21.3333 H   0  0  0  0  0  0  0  0  0  0  0  0
   20.9796   18.2068   20.5975 C   0  0  0  0  0  0  0  0  0  0  0  0
   20.9086   18.5368   19.5522 H   0  0  0  0  0  0  0  0  0  0  0  0
   22.0016   17.8223   20.7167 H   0  0  0  0  0  0  0  0  0  0  0  0
   19.9785   17.0537   20.8301 C   0  0  0  0  0  0  0  0  0  0  0  0
   18.9461   17.3891   20.6659 H   0  0  0  0  0  0  0  0  0  0  0  0
   20.1771   16.2259   20.1370 H   0  0  0  0  0  0  0  0  0  0  0  0
   20.0591   16.6625   21.8528 H   0  0  0  0  0  0  0  0  0  0  0  0
  1  2  1  0  0  0  0
  1  3  2  0  0  0  0
  1  4  1  0  0  0  0
  4  5  1  0  0  0  0
  4  6  1  0  0  0  0
  4  7  1  0  0  0  0
  7  8  1  0  0  0  0
  7  9  2  0  0  0  0
  9 10  1  0  0  0  0
  9 11  1  0  0  0  0
 11 12  1  0  0  0  0
 11 13  1  0  0  0  0
 11 14  1  0  0  0  0
 14 15  1  0  0  0  0
 14 16  1  0  0  0  0
 14 17  1  0  0  0  0
M  END
> <VConfSearch Rank>
188

> <Conf_Id>
19

> <Delta U+W>
-0.496

> <U+W>
-49.923

> <U>
13.863

> <W>
-63.786

> <W(PB)>
-65.856

> <W(SA)>
2.070

> <Valence>
14.117

> <Coulomb>
-1.228

> <VdW>
0.974

> <VdW6>
-4.885

> <VdW12>
5.859

> <Bond>
0.094

> <Angle>
2.818

> <Pdih>
11.205

> <Idih>
0.000

> <Tether>
0.000

$$$$
VeraChem MOL file


 17 16  0  0  0  0  0  0  0  0999 V2000     
   19.5382   21.2353   24.0888 C   0  0  0  0  0  0  0  0  0  0  0  0
   18.8785   20.6647   24.9350 O   0  5  0  0  0  0  0  0  0  0  0  0
   20.4444   22.0027   24.3477 O   0  0  0  0  0  0  0  0  0  0  0  0
   19.2062   20.9850   22.6236 C   0  0  0  0  0  0  0  0  0  0  0  0
   19.2538   21.9471   22.1006 H   0  0  0  0  0  0  0  0  0  0  0  0
   18.1681   20.6369   22.5616 H   0  0  0  0  0  0  0  0  0  0  0  0
   20.1521   19.9922   21.9751 C   0  0  0  0  0  0  0  0  0  0  0  0
   21.1797   20.3359   21.8601 H   0  0  0  0  0  0  0  0  0  0  0  0
   19.7949   18.7708   21.5669 C   0  0  0  0  0  0  0  0  0  0  0  0
   18.7685   18.4257   21.6868 H   0  0  0  0  0  0  0  0  0  0  0  0
   20.7404   17.7813   20.9231 C   0  0  0  0  0  0  0  0  0  0  0  0
   20.2821   17.3672   20.0149 H   0  0  0  0  0  0  0  0  0  0  0  0
   21.6661   18.2828   20.6088 H   0  0  0  0  0  0  0  0  0  0  0  0
   21.0860   16.6347   21.8931 C   0  0  0  0  0  0  0  0  0  0  0  0
   20.1813   16.0903   22.1941 H   0  0  0  0  0  0  0  0  0  0  0  0
   21.7726   15.9200   21.4211 H   0  0  0  0  0  0  0  0  0  0  0  0
   21.5686   17.0233   22.7996 H   0  0  0  0  0  0  0  0  0  0  0  0
  1  2  1  0  0  0  0
  1  3  2  0  0  0  0
  1  4  1  0  0  0  0
  4  5  1  0  0  0  0
  4  6  1  0  0  0  0
  4  7  1  0  0  0  0
  7  8  1  0  0  0  0
  7  9  2  0  0  0  0
  9 10  1  0  0  0  0
  9 11  1  0  0  0  0
 11 12  1  0  0  0  0
 11 13  1  0  0  0  0
 11 14  1  0  0  0  0
 14 15  1  0  0  0  0
 14 16  1  0  0  0  0
 14 17  1  0  0  0  0
M  END
> <VConfSearch Rank>
189

> <Conf_Id>
7

> <Delta U+W>
-0.041

> <U+W>
-49.468

> <U>
14.121

> <W>
-63.589

> <W(PB)>
-65.660

> <W(SA)>
2.071

> <Valence>
15.230

> <Coulomb>
-1.333

> <VdW>
0.224

> <VdW6>
-4.212

> <VdW12>
4.436

> <Bond>
0.044

> <Angle>
2.230

> <Pdih>
12.956

> <Idih>
0.000

> <Tether>
0.000

$$$$
VeraChem MOL file


 17 16  0  0  0  0  0  0  0  0999 V2000     
   17.7190   18.0138   22.7450 C   0  0  0  0  0  0  0  0  0  0  0  0
   17.6091   17.3372   21.7414 O   0  5  0  0  0  0  0  0  0  0  0  0
   16.8652   18.7889   23.1289 O   0  0  0  0  0  0  0  0  0  0  0  0
   18.9845   17.8614   23.5833 C   0  0  0  0  0  0  0  0  0  0  0  0
   19.3272   16.8243   23.4895 H   0  0  0  0  0  0  0  0  0  0  0  0
   18.7080   17.9934   24.6358 H   0  0  0  0  0  0  0  0  0  0  0  0
   20.1231   18.8086   23.2323 C   0  0  0  0  0  0  0  0  0  0  0  0
   21.0166   18.6830   23.8426 H   0  0  0  0  0  0  0  0  0  0  0  0
   20.1043   19.7390   22.2704 C   0  0  0  0  0  0  0  0  0  0  0  0
   19.2240   19.8845   21.6454 H   0  0  0  0  0  0  0  0  0  0  0  0
   21.2653   20.6583   21.9623 C   0  0  0  0  0  0  0  0  0  0  0  0
   20.9074   21.6939   21.8853 H   0  0  0  0  0  0  0  0  0  0  0  0
   21.9995   20.6387   22.7794 H   0  0  0  0  0  0  0  0  0  0  0  0
   21.9568   20.2545   20.6456 C   0  0  0  0  0  0  0  0  0  0  0  0
   22.7974   20.9256   20.4263 H   0  0  0  0  0  0  0  0  0  0  0  0
   22.3461   19.2297   20.7081 H   0  0  0  0  0  0  0  0  0  0  0  0
   21.2539   20.3023   19.8036 H   0  0  0  0  0  0  0  0  0  0  0  0
  1  2  1  0  0  0  0
  1  3  2  0  0  0  0
  1  4  1  0  0  0  0
  4  5  1  0  0  0  0
  4  6  1  0  0  0  0
  4  7  1  0  0  0  0
  7  8  1  0  0  0  0
  7  9  2  0  0  0  0
  9 10  1  0  0  0  0
  9 11  1  0  0  0  0
 11 12  1  0  0  0  0
 11 13  1  0  0  0  0
 11 14  1  0  0  0  0
 14 15  1  0  0  0  0
 14 16  1  0  0  0  0
 14 17  1  0  0  0  0
M  END
> <VConfSearch Rank>
190

> <Conf_Id>
39

> <Delta U+W>
-0.422

> <U+W>
-49.849

> <U>
14.465

> <W>
-64.314

> <W(PB)>
-66.406

> <W(SA)>
2.093

> <Valence>
14.072

> <Coulomb>
-0.199

> <VdW>
0.592

> <VdW6>
-5.019

> <VdW12>
5.611

> <Bond>
0.085

> <Angle>
2.748

> <Pdih>
11.238

> <Idih>
0.001

> <Tether>
0.000

$$$$
VeraChem MOL file


 17 16  0  0  0  0  0  0  0  0999 V2000     
   18.9102   18.4051   19.3080 C   0  0  0  0  0  0  0  0  0  0  0  0
   19.6603   18.4651   18.3537 O   0  5  0  0  0  0  0  0  0  0  0  0
   17.7379   18.7222   19.2623 O   0  0  0  0  0  0  0  0  0  0  0  0
   19.4706   17.8997   20.6309 C   0  0  0  0  0  0  0  0  0  0  0  0
   20.1332   17.0542   20.4128 H   0  0  0  0  0  0  0  0  0  0  0  0
   18.6386   17.5091   21.2291 H   0  0  0  0  0  0  0  0  0  0  0  0
   20.2282   18.9731   21.3889 C   0  0  0  0  0  0  0  0  0  0  0  0
   21.1608   19.2974   20.9280 H   0  0  0  0  0  0  0  0  0  0  0  0
   19.8166   19.5117   22.5407 C   0  0  0  0  0  0  0  0  0  0  0  0
   18.8826   19.1890   22.9995 H   0  0  0  0  0  0  0  0  0  0  0  0
   20.5716   20.5846   23.2931 C   0  0  0  0  0  0  0  0  0  0  0  0
   21.3454   21.0307   22.6533 H   0  0  0  0  0  0  0  0  0  0  0  0
   19.8850   21.3962   23.5698 H   0  0  0  0  0  0  0  0  0  0  0  0
   21.2285   20.0118   24.5641 C   0  0  0  0  0  0  0  0  0  0  0  0
   21.9396   19.2146   24.3100 H   0  0  0  0  0  0  0  0  0  0  0  0
   21.7742   20.7950   25.1061 H   0  0  0  0  0  0  0  0  0  0  0  0
   20.4725   19.5927   25.2410 H   0  0  0  0  0  0  0  0  0  0  0  0
  1  2  1  0  0  0  0
  1  3  2  0  0  0  0
  1  4  1  0  0  0  0
  4  5  1  0  0  0  0
  4  6  1  0  0  0  0
  4  7  1  0  0  0  0
  7  8  1  0  0  0  0
  7  9  2  0  0  0  0
  9 10  1  0  0  0  0
  9 11  1  0  0  0  0
 11 12  1  0  0  0  0
 11 13  1  0  0  0  0
 11 14  1  0  0  0  0
 14 15  1  0  0  0  0
 14 16  1  0  0  0  0
 14 17  1  0  0  0  0
M  END
> <VConfSearch Rank>
191

> <Conf_Id>
38

> <Delta U+W>
0.000

> <U+W>
-49.427

> <U>
13.666

> <W>
-63.093

> <W(PB)>
-65.225

> <W(SA)>
2.132

> <Valence>
15.226

> <Coulomb>
-1.822

> <VdW>
0.261

> <VdW6>
-4.165

> <VdW12>
4.426

> <Bond>
0.044

> <Angle>
2.229

> <Pdih>
12.953

> <Idih>
0.000

> <Tether>
0.000

$$$$
VeraChem MOL file


 17 16  0  0  0  0  0  0  0  0999 V2000     
   18.1312   20.6111   20.0096 C   0  0  0  0  0  0  0  0  0  0  0  0
   18.4543   20.2698   18.8890 O   0  5  0  0  0  0  0  0  0  0  0  0
   17.7245   21.7234   20.2824 O   0  0  0  0  0  0  0  0  0  0  0  0
   18.2356   19.5892   21.1341 C   0  0  0  0  0  0  0  0  0  0  0  0
   18.1932   18.5866   20.6916 H   0  0  0  0  0  0  0  0  0  0  0  0
   17.3483   19.6974   21.7685 H   0  0  0  0  0  0  0  0  0  0  0  0
   19.4934   19.7646   21.9635 C   0  0  0  0  0  0  0  0  0  0  0  0
   19.5321   20.6737   22.5630 H   0  0  0  0  0  0  0  0  0  0  0  0
   20.5066   18.8933   21.9850 C   0  0  0  0  0  0  0  0  0  0  0  0
   20.4686   17.9861   21.3828 H   0  0  0  0  0  0  0  0  0  0  0  0
   21.7617   19.0719   22.8096 C   0  0  0  0  0  0  0  0  0  0  0  0
   22.6457   18.8931   22.1826 H   0  0  0  0  0  0  0  0  0  0  0  0
   21.8380   20.1053   23.1748 H   0  0  0  0  0  0  0  0  0  0  0  0
   21.7785   18.1046   24.0092 C   0  0  0  0  0  0  0  0  0  0  0  0
   21.7419   17.0606   23.6712 H   0  0  0  0  0  0  0  0  0  0  0  0
   22.6919   18.2383   24.6034 H   0  0  0  0  0  0  0  0  0  0  0  0
   20.9162   18.2821   24.6653 H   0  0  0  0  0  0  0  0  0  0  0  0
  1  2  1  0  0  0  0
  1  3  2  0  0  0  0
  1  4  1  0  0  0  0
  4  5  1  0  0  0  0
  4  6  1  0  0  0  0
  4  7  1  0  0  0  0
  7  8  1  0  0  0  0
  7  9  2  0  0  0  0
  9 10  1  0  0  0  0
  9 11  1  0  0  0  0
 11 12  1  0  0  0  0
 11 13  1  0  0  0  0
 11 14  1  0  0  0  0
 14 15  1  0  0  0  0
 14 16  1  0  0  0  0
 14 17  1  0  0  0  0
M  END
> <VConfSearch Rank>
192

> <Conf_Id>
35

> <Delta U+W>
-0.102

> <U+W>
-49.529

> <U>
13.666

> <W>
-63.195

> <W(PB)>
-65.299

> <W(SA)>
2.103

> <Valence>
15.226

> <Coulomb>
-1.822

> <VdW>
0.261

> <VdW6>
-4.165

> <VdW12>
4.426

> <Bond>
0.044

> <Angle>
2.229

> <Pdih>
12.953

> <Idih>
0.000

> <Tether>
0.000

$$$$
VeraChem MOL file


 17 16  0  0  0  0  0  0  0  0999 V2000     
   17.6833   20.5954   22.0685 C   0  0  0  0  0  0  0  0  0  0  0  0
   17.8422   21.7187   22.5043 O   0  5  0  0  0  0  0  0  0  0  0  0
   17.0792   20.3518   21.0425 O   0  0  0  0  0  0  0  0  0  0  0  0
   18.2657   19.4301   22.8576 C   0  0  0  0  0  0  0  0  0  0  0  0
   17.6990   18.5264   22.6032 H   0  0  0  0  0  0  0  0  0  0  0  0
   18.0934   19.6273   23.9220 H   0  0  0  0  0  0  0  0  0  0  0  0
   19.7476   19.2359   22.5975 C   0  0  0  0  0  0  0  0  0  0  0  0
   20.3836   20.0351   22.9742 H   0  0  0  0  0  0  0  0  0  0  0  0
   20.2611   18.1799   21.9541 C   0  0  0  0  0  0  0  0  0  0  0  0
   19.5927   17.4016   21.5873 H   0  0  0  0  0  0  0  0  0  0  0  0
   21.7290   17.9242   21.6567 C   0  0  0  0  0  0  0  0  0  0  0  0
   22.0189   16.9595   22.0947 H   0  0  0  0  0  0  0  0  0  0  0  0
   21.8575   17.8062   20.5722 H   0  0  0  0  0  0  0  0  0  0  0  0
   22.6967   19.0172   22.1615 C   0  0  0  0  0  0  0  0  0  0  0  0
   22.6345   19.1252   23.2523 H   0  0  0  0  0  0  0  0  0  0  0  0
   23.7334   18.7604   21.9079 H   0  0  0  0  0  0  0  0  0  0  0  0
   22.4688   19.9879   21.7019 H   0  0  0  0  0  0  0  0  0  0  0  0
  1  2  1  0  0  0  0
  1  3  2  0  0  0  0
  1  4  1  0  0  0  0
  4  5  1  0  0  0  0
  4  6  1  0  0  0  0
  4  7  1  0  0  0  0
  7  8  1  0  0  0  0
  7  9  2  0  0  0  0
  9 10  1  0  0  0  0
  9 11  1  0  0  0  0
 11 12  1  0  0  0  0
 11 13  1  0  0  0  0
 11 14  1  0  0  0  0
 14 15  1  0  0  0  0
 14 16  1  0  0  0  0
 14 17  1  0  0  0  0
M  END
> <VConfSearch Rank>
193

> <Conf_Id>
19

> <Delta U+W>
-0.496

> <U+W>
-49.923

> <U>
13.863

> <W>
-63.786

> <W(PB)>
-65.856

> <W(SA)>
2.070

> <Valence>
14.117

> <Coulomb>
-1.228

> <VdW>
0.974

> <VdW6>
-4.885

> <VdW12>
5.859

> <Bond>
0.094

> <Angle>
2.818

> <Pdih>
11.205

> <Idih>
0.000

> <Tether>
0.000

$$$$
VeraChem MOL file


 17 16  0  0  0  0  0  0  0  0999 V2000     
   20.5446   19.6454   25.0636 C   0  0  0  0  0  0  0  0  0  0  0  0
   21.7429   19.4941   25.1977 O   0  5  0  0  0  0  0  0  0  0  0  0
   19.9331   20.5957   25.5107 O   0  0  0  0  0  0  0  0  0  0  0  0
   19.7628   18.5821   24.3034 C   0  0  0  0  0  0  0  0  0  0  0  0
   18.8262   18.4046   24.8444 H   0  0  0  0  0  0  0  0  0  0  0  0
   20.3345   17.6468   24.3360 H   0  0  0  0  0  0  0  0  0  0  0  0
   19.4685   18.9896   22.8723 C   0  0  0  0  0  0  0  0  0  0  0  0
   18.7758   19.8230   22.7592 H   0  0  0  0  0  0  0  0  0  0  0  0
   20.0045   18.4016   21.7984 C   0  0  0  0  0  0  0  0  0  0  0  0
   20.7011   17.5716   21.9122 H   0  0  0  0  0  0  0  0  0  0  0  0
   19.7119   18.8114   20.3723 C   0  0  0  0  0  0  0  0  0  0  0  0
   19.4751   17.9226   19.7720 H   0  0  0  0  0  0  0  0  0  0  0  0
   18.8282   19.4631   20.3332 H   0  0  0  0  0  0  0  0  0  0  0  0
   20.9151   19.5463   19.7499 C   0  0  0  0  0  0  0  0  0  0  0  0
   21.8048   18.9030   19.7404 H   0  0  0  0  0  0  0  0  0  0  0  0
   20.6972   19.8418   18.7153 H   0  0  0  0  0  0  0  0  0  0  0  0
   21.1551   20.4534   20.3202 H   0  0  0  0  0  0  0  0  0  0  0  0
  1  2  1  0  0  0  0
  1  3  2  0  0  0  0
  1  4  1  0  0  0  0
  4  5  1  0  0  0  0
  4  6  1  0  0  0  0
  4  7  1  0  0  0  0
  7  8  1  0  0  0  0
  7  9  2  0  0  0  0
  9 10  1  0  0  0  0
  9 11  1  0  0  0  0
 11 12  1  0  0  0  0
 11 13  1  0  0  0  0
 11 14  1  0  0  0  0
 14 15  1  0  0  0  0
 14 16  1  0  0  0  0
 14 17  1  0  0  0  0
M  END
> <VConfSearch Rank>
194

> <Conf_Id>
7

> <Delta U+W>
-0.041

> <U+W>
-49.468

> <U>
14.121

> <W>
-63.589

> <W(PB)>
-65.660

> <W(SA)>
2.071

> <Valence>
15.230

> <Coulomb>
-1.333

> <VdW>
0.224

> <VdW6>
-4.212

> <VdW12>
4.436

> <Bond>
0.044

> <Angle>
2.230

> <Pdih>
12.956

> <Idih>
0.000

> <Tether>
0.000

$$$$
VeraChem MOL file


 17 16  0  0  0  0  0  0  0  0999 V2000     
   21.6707   17.3550   21.0113 C   0  0  0  0  0  0  0  0  0  0  0  0
   21.7678   16.5243   21.8930 O   0  5  0  0  0  0  0  0  0  0  0  0
   22.6261   17.8386   20.4365 O   0  0  0  0  0  0  0  0  0  0  0  0
   20.2736   17.7940   20.5837 C   0  0  0  0  0  0  0  0  0  0  0  0
   19.5984   16.9401   20.7133 H   0  0  0  0  0  0  0  0  0  0  0  0
   20.3002   17.9963   19.5066 H   0  0  0  0  0  0  0  0  0  0  0  0
   19.7120   19.0041   21.3165 C   0  0  0  0  0  0  0  0  0  0  0  0
   18.7140   19.3005   20.9958 H   0  0  0  0  0  0  0  0  0  0  0  0
   20.3288   19.6948   22.2826 C   0  0  0  0  0  0  0  0  0  0  0  0
   21.3264   19.4190   22.6224 H   0  0  0  0  0  0  0  0  0  0  0  0
   19.7258   20.8942   22.9796 C   0  0  0  0  0  0  0  0  0  0  0  0
   20.4576   21.7128   23.0080 H   0  0  0  0  0  0  0  0  0  0  0  0
   18.8567   21.2678   22.4207 H   0  0  0  0  0  0  0  0  0  0  0  0
   19.2946   20.5406   24.4162 C   0  0  0  0  0  0  0  0  0  0  0  0
   18.8591   21.4148   24.9176 H   0  0  0  0  0  0  0  0  0  0  0  0
   18.5427   19.7405   24.4117 H   0  0  0  0  0  0  0  0  0  0  0  0
   20.1529   20.1997   25.0099 H   0  0  0  0  0  0  0  0  0  0  0  0
  1  2  1  0  0  0  0
  1  3  2  0  0  0  0
  1  4  1  0  0  0  0
  4  5  1  0  0  0  0
  4  6  1  0  0  0  0
  4  7  1  0  0  0  0
  7  8  1  0  0  0  0
  7  9  2  0  0  0  0
  9 10  1  0  0  0  0
  9 11  1  0  0  0  0
 11 12  1  0  0  0  0
 11 13  1  0  0  0  0
 11 14  1  0  0  0  0
 14 15  1  0  0  0  0
 14 16  1  0  0  0  0
 14 17  1  0  0  0  0
M  END
> <VConfSearch Rank>
195

> <Conf_Id>
39

> <Delta U+W>
-0.422

> <U+W>
-49.849

> <U>
14.465

> <W>
-64.314

> <W(PB)>
-66.406

> <W(SA)>
2.093

> <Valence>
14.072

> <Coulomb>
-0.199

> <VdW>
0.592

> <VdW6>
-5.019

> <VdW12>
5.611

> <Bond>
0.085

> <Angle>
2.748

> <Pdih>
11.238

> <Idih>
0.001

> <Tether>
0.000

$$$$
VeraChem MOL file


 17 16  0  0  0  0  0  0  0  0999 V2000     
   19.9146   17.6638   24.8234 C   0  0  0  0  0  0  0  0  0  0  0  0
   19.8019   16.4572   24.7328 O   0  5  0  0  0  0  0  0  0  0  0  0
   19.3165   18.3351   25.6410 O   0  0  0  0  0  0  0  0  0  0  0  0
   20.8617   18.3705   23.8626 C   0  0  0  0  0  0  0  0  0  0  0  0
   21.7609   17.7517   23.7627 H   0  0  0  0  0  0  0  0  0  0  0  0
   21.1729   19.3167   24.3214 H   0  0  0  0  0  0  0  0  0  0  0  0
   20.2378   18.6062   22.5002 C   0  0  0  0  0  0  0  0  0  0  0  0
   20.0483   17.7077   21.9138 H   0  0  0  0  0  0  0  0  0  0  0  0
   19.9247   19.8119   22.0159 C   0  0  0  0  0  0  0  0  0  0  0  0
   20.1118   20.7098   22.6041 H   0  0  0  0  0  0  0  0  0  0  0  0
   19.2992   20.0447   20.6588 C   0  0  0  0  0  0  0  0  0  0  0  0
   18.9112   19.1026   20.2476 H   0  0  0  0  0  0  0  0  0  0  0  0
   18.4407   20.7227   20.7577 H   0  0  0  0  0  0  0  0  0  0  0  0
   20.3200   20.6485   19.6747 C   0  0  0  0  0  0  0  0  0  0  0  0
   21.1768   19.9753   19.5398 H   0  0  0  0  0  0  0  0  0  0  0  0
   19.8602   20.8158   18.6920 H   0  0  0  0  0  0  0  0  0  0  0  0
   20.6966   21.6119   20.0429 H   0  0  0  0  0  0  0  0  0  0  0  0
  1  2  1  0  0  0  0
  1  3  2  0  0  0  0
  1  4  1  0  0  0  0
  4  5  1  0  0  0  0
  4  6  1  0  0  0  0
  4  7  1  0  0  0  0
  7  8  1  0  0  0  0
  7  9  2  0  0  0  0
  9 10  1  0  0  0  0
  9 11  1  0  0  0  0
 11 12  1  0  0  0  0
 11 13  1  0  0  0  0
 11 14  1  0  0  0  0
 14 15  1  0  0  0  0
 14 16  1  0  0  0  0
 14 17  1  0  0  0  0
M  END
> <VConfSearch Rank>
196

> <Conf_Id>
38

> <Delta U+W>
0.000

> <U+W>
-49.427

> <U>
13.666

> <W>
-63.093

> <W(PB)>
-65.225

> <W(SA)>
2.132

> <Valence>
15.226

> <Coulomb>
-1.822

> <VdW>
0.261

> <VdW6>
-4.165

> <VdW12>
4.426

> <Bond>
0.044

> <Angle>
2.229

> <Pdih>
12.953

> <Idih>
0.000

> <Tether>
0.000

$$$$
VeraChem MOL file


 17 16  0  0  0  0  0  0  0  0999 V2000     
   17.0151   18.8256   21.4799 C   0  0  0  0  0  0  0  0  0  0  0  0
   16.7231   17.6704   21.7187 O   0  5  0  0  0  0  0  0  0  0  0  0
   16.5544   19.4566   20.5490 O   0  0  0  0  0  0  0  0  0  0  0  0
   18.0081   19.5244   22.3993 C   0  0  0  0  0  0  0  0  0  0  0  0
   17.9934   19.0153   23.3705 H   0  0  0  0  0  0  0  0  0  0  0  0
   17.6476   20.5458   22.5672 H   0  0  0  0  0  0  0  0  0  0  0  0
   19.4108   19.5553   21.8229 C   0  0  0  0  0  0  0  0  0  0  0  0
   19.5368   20.1801   20.9392 H   0  0  0  0  0  0  0  0  0  0  0  0
   20.4460   18.8783   22.3292 C   0  0  0  0  0  0  0  0  0  0  0  0
   20.3186   18.2513   23.2111 H   0  0  0  0  0  0  0  0  0  0  0  0
   21.8431   18.9073   21.7508 C   0  0  0  0  0  0  0  0  0  0  0  0
   22.2242   17.8819   21.6508 H   0  0  0  0  0  0  0  0  0  0  0  0
   21.8321   19.3395   20.7407 H   0  0  0  0  0  0  0  0  0  0  0  0
   22.7958   19.7245   22.6449 C   0  0  0  0  0  0  0  0  0  0  0  0
   22.8559   19.2915   23.6520 H   0  0  0  0  0  0  0  0  0  0  0  0
   23.8081   19.7413   22.2205 H   0  0  0  0  0  0  0  0  0  0  0  0
   22.4485   20.7619   22.7388 H   0  0  0  0  0  0  0  0  0  0  0  0
  1  2  1  0  0  0  0
  1  3  2  0  0  0  0
  1  4  1  0  0  0  0
  4  5  1  0  0  0  0
  4  6  1  0  0  0  0
  4  7  1  0  0  0  0
  7  8  1  0  0  0  0
  7  9  2  0  0  0  0
  9 10  1  0  0  0  0
  9 11  1  0  0  0  0
 11 12  1  0  0  0  0
 11 13  1  0  0  0  0
 11 14  1  0  0  0  0
 14 15  1  0  0  0  0
 14 16  1  0  0  0  0
 14 17  1  0  0  0  0
M  END
> <VConfSearch Rank>
197

> <Conf_Id>
35

> <Delta U+W>
-0.102

> <U+W>
-49.529

> <U>
13.666

> <W>
-63.195

> <W(PB)>
-65.299

> <W(SA)>
2.103

> <Valence>
15.226

> <Coulomb>
-1.822

> <VdW>
0.261

> <VdW6>
-4.165

> <VdW12>
4.426

> <Bond>
0.044

> <Angle>
2.229

> <Pdih>
12.953

> <Idih>
0.000

> <Tether>
0.000

$$$$
VeraChem MOL file


 17 16  0  0  0  0  0  0  0  0999 V2000     
   23.0102   19.9940   22.5707 C   0  0  0  0  0  0  0  0  0  0  0  0
   23.3073   19.9472   23.7482 O   0  5  0  0  0  0  0  0  0  0  0  0
   23.7283   19.5849   21.6797 O   0  0  0  0  0  0  0  0  0  0  0  0
   21.6686   20.6079   22.1926 C   0  0  0  0  0  0  0  0  0  0  0  0
   21.7341   20.9642   21.1576 H   0  0  0  0  0  0  0  0  0  0  0  0
   21.5136   21.4893   22.8256 H   0  0  0  0  0  0  0  0  0  0  0  0
   20.5167   19.6356   22.3630 C   0  0  0  0  0  0  0  0  0  0  0  0
   20.2989   19.3656   23.3948 H   0  0  0  0  0  0  0  0  0  0  0  0
   19.8101   19.1288   21.3448 C   0  0  0  0  0  0  0  0  0  0  0  0
   20.0602   19.4189   20.3249 H   0  0  0  0  0  0  0  0  0  0  0  0
   18.6509   18.1513   21.4424 C   0  0  0  0  0  0  0  0  0  0  0  0
   17.7679   18.5962   20.9639 H   0  0  0  0  0  0  0  0  0  0  0  0
   18.8882   17.2570   20.8504 H   0  0  0  0  0  0  0  0  0  0  0  0
   18.2810   17.7198   22.8787 C   0  0  0  0  0  0  0  0  0  0  0  0
   17.9849   18.5850   23.4862 H   0  0  0  0  0  0  0  0  0  0  0  0
   17.4390   17.0156   22.8641 H   0  0  0  0  0  0  0  0  0  0  0  0
   19.1270   17.2220   23.3706 H   0  0  0  0  0  0  0  0  0  0  0  0
  1  2  1  0  0  0  0
  1  3  2  0  0  0  0
  1  4  1  0  0  0  0
  4  5  1  0  0  0  0
  4  6  1  0  0  0  0
  4  7  1  0  0  0  0
  7  8  1  0  0  0  0
  7  9  2  0  0  0  0
  9 10  1  0  0  0  0
  9 11  1  0  0  0  0
 11 12  1  0  0  0  0
 11 13  1  0  0  0  0
 11 14  1  0  0  0  0
 14 15  1  0  0  0  0
 14 16  1  0  0  0  0
 14 17  1  0  0  0  0
M  END
> <VConfSearch Rank>
198

> <Conf_Id>
19

> <Delta U+W>
-0.496

> <U+W>
-49.923

> <U>
13.863

> <W>
-63.786

> <W(PB)>
-65.856

> <W(SA)>
2.070

> <Valence>
14.117

> <Coulomb>
-1.228

> <VdW>
0.974

> <VdW6>
-4.885

> <VdW12>
5.859

> <Bond>
0.094

> <Angle>
2.818

> <Pdih>
11.205

> <Idih>
0.000

> <Tether>
0.000

$$$$
VeraChem MOL file


 17 16  0  0  0  0  0  0  0  0999 V2000     
   17.3009   19.2214   22.8703 C   0  0  0  0  0  0  0  0  0  0  0  0
   16.9505   20.2150   22.2648 O   0  5  0  0  0  0  0  0  0  0  0  0
   16.6839   18.1744   22.8581 O   0  0  0  0  0  0  0  0  0  0  0  0
   18.5768   19.2928   23.6990 C   0  0  0  0  0  0  0  0  0  0  0  0
   18.3897   18.7750   24.6468 H   0  0  0  0  0  0  0  0  0  0  0  0
   18.7705   20.3448   23.9409 H   0  0  0  0  0  0  0  0  0  0  0  0
   19.7650   18.6702   22.9909 C   0  0  0  0  0  0  0  0  0  0  0  0
   19.7114   17.5905   22.8544 H   0  0  0  0  0  0  0  0  0  0  0  0
   20.8186   19.3598   22.5433 C   0  0  0  0  0  0  0  0  0  0  0  0
   20.8692   20.4401   22.6755 H   0  0  0  0  0  0  0  0  0  0  0  0
   22.0010   18.7374   21.8348 C   0  0  0  0  0  0  0  0  0  0  0  0
   22.9356   19.1062   22.2787 H   0  0  0  0  0  0  0  0  0  0  0  0
   21.9978   17.6466   21.9672 H   0  0  0  0  0  0  0  0  0  0  0  0
   21.9812   19.0682   20.3298 C   0  0  0  0  0  0  0  0  0  0  0  0
   22.0229   20.1531   20.1667 H   0  0  0  0  0  0  0  0  0  0  0  0
   22.8410   18.6137   19.8206 H   0  0  0  0  0  0  0  0  0  0  0  0
   21.0655   18.6867   19.8590 H   0  0  0  0  0  0  0  0  0  0  0  0
  1  2  1  0  0  0  0
  1  3  2  0  0  0  0
  1  4  1  0  0  0  0
  4  5  1  0  0  0  0
  4  6  1  0  0  0  0
  4  7  1  0  0  0  0
  7  8  1  0  0  0  0
  7  9  2  0  0  0  0
  9 10  1  0  0  0  0
  9 11  1  0  0  0  0
 11 12  1  0  0  0  0
 11 13  1  0  0  0  0
 11 14  1  0  0  0  0
 14 15  1  0  0  0  0
 14 16  1  0  0  0  0
 14 17  1  0  0  0  0
M  END
> <VConfSearch Rank>
199

> <Conf_Id>
7

> <Delta U+W>
-0.041

> <U+W>
-49.468

> <U>
14.121

> <W>
-63.589

> <W(PB)>
-65.660

> <W(SA)>
2.071

> <Valence>
15.230

> <Coulomb>
-1.333

> <VdW>
0.224

> <VdW6>
-4.212

> <VdW12>
4.436

> <Bond>
0.044

> <Angle>
2.230

> <Pdih>
12.956

> <Idih>
0.000

> <Tether>
0.000

$$$$
VeraChem MOL file


 17 16  0  0  0  0  0  0  0  0999 V2000     
   18.3452   19.0946   24.3662 C   0  0  0  0  0  0  0  0  0  0  0  0
   19.0990   18.8575   25.2896 O   0  5  0  0  0  0  0  0  0  0  0  0
   17.3820   18.4060   24.0922 O   0  0  0  0  0  0  0  0  0  0  0  0
   18.6059   20.3389   23.5229 C   0  0  0  0  0  0  0  0  0  0  0  0
   19.0529   21.0990   24.1742 H   0  0  0  0  0  0  0  0  0  0  0  0
   17.6355   20.7423   23.2108 H   0  0  0  0  0  0  0  0  0  0  0  0
   19.4890   20.1312   22.3006 C   0  0  0  0  0  0  0  0  0  0  0  0
   19.6621   21.0318   21.7129 H   0  0  0  0  0  0  0  0  0  0  0  0
   20.0427   18.9746   21.9176 C   0  0  0  0  0  0  0  0  0  0  0  0
   19.8863   18.0597   22.4879 H   0  0  0  0  0  0  0  0  0  0  0  0
   20.9136   18.8211   20.6904 C   0  0  0  0  0  0  0  0  0  0  0  0
   20.5809   17.9523   20.1065 H   0  0  0  0  0  0  0  0  0  0  0  0
   20.8142   19.6977   20.0355 H   0  0  0  0  0  0  0  0  0  0  0  0
   22.3935   18.6414   21.0808 C   0  0  0  0  0  0  0  0  0  0  0  0
   23.0205   18.5291   20.1868 H   0  0  0  0  0  0  0  0  0  0  0  0
   22.7562   19.5110   21.6446 H   0  0  0  0  0  0  0  0  0  0  0  0
   22.5280   17.7487   21.7057 H   0  0  0  0  0  0  0  0  0  0  0  0
  1  2  1  0  0  0  0
  1  3  2  0  0  0  0
  1  4  1  0  0  0  0
  4  5  1  0  0  0  0
  4  6  1  0  0  0  0
  4  7  1  0  0  0  0
  7  8  1  0  0  0  0
  7  9  2  0  0  0  0
  9 10  1  0  0  0  0
  9 11  1  0  0  0  0
 11 12  1  0  0  0  0
 11 13  1  0  0  0  0
 11 14  1  0  0  0  0
 14 15  1  0  0  0  0
 14 16  1  0  0  0  0
 14 17  1  0  0  0  0
M  END
> <VConfSearch Rank>
200

> <Conf_Id>
39

> <Delta U+W>
-0.422

> <U+W>
-49.849

> <U>
14.465

> <W>
-64.314

> <W(PB)>
-66.406

> <W(SA)>
2.093

> <Valence>
14.072

> <Coulomb>
-0.199

> <VdW>
0.592

> <VdW6>
-5.019

> <VdW12>
5.611

> <Bond>
0.085

> <Angle>
2.748

> <Pdih>
11.238

> <Idih>
0.001

> <Tether>
0.000

$$$$
VeraChem MOL file


 17 16  0  0  0  0  0  0  0  0999 V2000     
   20.2896   21.3100   24.5215 C   0  0  0  0  0  0  0  0  0  0  0  0
   20.5512   22.4632   24.2412 O   0  5  0  0  0  0  0  0  0  0  0  0
   20.7410   20.7355   25.4926 O   0  0  0  0  0  0  0  0  0  0  0  0
   19.3398   20.5467   23.6077 C   0  0  0  0  0  0  0  0  0  0  0  0
   18.5305   21.2283   23.3214 H   0  0  0  0  0  0  0  0  0  0  0  0
   18.8851   19.7342   24.1871 H   0  0  0  0  0  0  0  0  0  0  0  0
   20.0315   20.0101   22.3690 C   0  0  0  0  0  0  0  0  0  0  0  0
   20.3697   20.7660   21.6609 H   0  0  0  0  0  0  0  0  0  0  0  0
   20.2346   18.7119   22.1251 C   0  0  0  0  0  0  0  0  0  0  0  0
   19.8988   17.9567   22.8350 H   0  0  0  0  0  0  0  0  0  0  0  0
   20.9278   18.1788   20.8911 C   0  0  0  0  0  0  0  0  0  0  0  0
   21.4546   18.9878   20.3665 H   0  0  0  0  0  0  0  0  0  0  0  0
   21.6899   17.4435   21.1826 H   0  0  0  0  0  0  0  0  0  0  0  0
   19.9190   17.5198   19.9303 C   0  0  0  0  0  0  0  0  0  0  0  0
   19.1607   18.2440   19.6045 H   0  0  0  0  0  0  0  0  0  0  0  0
   20.4279   17.1344   19.0372 H   0  0  0  0  0  0  0  0  0  0  0  0
   19.4042   16.6813   20.4175 H   0  0  0  0  0  0  0  0  0  0  0  0
  1  2  1  0  0  0  0
  1  3  2  0  0  0  0
  1  4  1  0  0  0  0
  4  5  1  0  0  0  0
  4  6  1  0  0  0  0
  4  7  1  0  0  0  0
  7  8  1  0  0  0  0
  7  9  2  0  0  0  0
  9 10  1  0  0  0  0
  9 11  1  0  0  0  0
 11 12  1  0  0  0  0
 11 13  1  0  0  0  0
 11 14  1  0  0  0  0
 14 15  1  0  0  0  0
 14 16  1  0  0  0  0
 14 17  1  0  0  0  0
M  END
> <VConfSearch Rank>
201

> <Conf_Id>
38

> <Delta U+W>
0.000

> <U+W>
-49.427

> <U>
13.666

> <W>
-63.093

> <W(PB)>
-65.225

> <W(SA)>
2.132

> <Valence>
15.226

> <Coulomb>
-1.822

> <VdW>
0.261

> <VdW6>
-4.165

> <VdW12>
4.426

> <Bond>
0.044

> <Angle>
2.229

> <Pdih>
12.953

> <Idih>
0.000

> <Tether>
0.000

$$$$
VeraChem MOL file


 17 16  0  0  0  0  0  0  0  0999 V2000     
   22.2403   21.3678   21.1227 C   0  0  0  0  0  0  0  0  0  0  0  0
   22.7296   21.9173   22.0899 O   0  5  0  0  0  0  0  0  0  0  0  0
   22.0058   21.9359   20.0743 O   0  0  0  0  0  0  0  0  0  0  0  0
   21.9070   19.8853   21.2262 C   0  0  0  0  0  0  0  0  0  0  0  0
   22.5361   19.4461   22.0098 H   0  0  0  0  0  0  0  0  0  0  0  0
   22.1942   19.4107   20.2809 H   0  0  0  0  0  0  0  0  0  0  0  0
   20.4370   19.6387   21.5073 C   0  0  0  0  0  0  0  0  0  0  0  0
   19.7578   19.9040   20.6977 H   0  0  0  0  0  0  0  0  0  0  0  0
   19.9652   19.1364   22.6525 C   0  0  0  0  0  0  0  0  0  0  0  0
   20.6447   18.8743   23.4628 H   0  0  0  0  0  0  0  0  0  0  0  0
   18.4988   18.8949   22.9324 C   0  0  0  0  0  0  0  0  0  0  0  0
   18.2349   19.3127   23.9134 H   0  0  0  0  0  0  0  0  0  0  0  0
   17.8754   19.4133   22.1910 H   0  0  0  0  0  0  0  0  0  0  0  0
   18.1714   17.3891   22.9105 C   0  0  0  0  0  0  0  0  0  0  0  0
   18.7536   16.8506   23.6698 H   0  0  0  0  0  0  0  0  0  0  0  0
   17.1062   17.2200   23.1150 H   0  0  0  0  0  0  0  0  0  0  0  0
   18.4033   16.9539   21.9295 H   0  0  0  0  0  0  0  0  0  0  0  0
  1  2  1  0  0  0  0
  1  3  2  0  0  0  0
  1  4  1  0  0  0  0
  4  5  1  0  0  0  0
  4  6  1  0  0  0  0
  4  7  1  0  0  0  0
  7  8  1  0  0  0  0
  7  9  2  0  0  0  0
  9 10  1  0  0  0  0
  9 11  1  0  0  0  0
 11 12  1  0  0  0  0
 11 13  1  0  0  0  0
 11 14  1  0  0  0  0
 14 15  1  0  0  0  0
 14 16  1  0  0  0  0
 14 17  1  0  0  0  0
M  END
> <VConfSearch Rank>
202

> <Conf_Id>
35

> <Delta U+W>
-0.102

> <U+W>
-49.529

> <U>
13.666

> <W>
-63.195

> <W(PB)>
-65.299

> <W(SA)>
2.103

> <Valence>
15.226

> <Coulomb>
-1.822

> <VdW>
0.261

> <VdW6>
-4.165

> <VdW12>
4.426

> <Bond>
0.044

> <Angle>
2.229

> <Pdih>
12.953

> <Idih>
0.000

> <Tether>
0.000

$$$$
VeraChem MOL file


 17 16  0  0  0  0  0  0  0  0999 V2000     
   21.5151   21.6915   22.7645 C   0  0  0  0  0  0  0  0  0  0  0  0
   20.6869   22.5804   22.7370 O   0  5  0  0  0  0  0  0  0  0  0  0
   22.3602   21.5871   23.6316 O   0  0  0  0  0  0  0  0  0  0  0  0
   21.4972   20.6585   21.6455 C   0  0  0  0  0  0  0  0  0  0  0  0
   22.5002   20.2226   21.5651 H   0  0  0  0  0  0  0  0  0  0  0  0
   21.3012   21.1869   20.7053 H   0  0  0  0  0  0  0  0  0  0  0  0
   20.4509   19.5823   21.8656 C   0  0  0  0  0  0  0  0  0  0  0  0
   19.4212   19.9291   21.7976 H   0  0  0  0  0  0  0  0  0  0  0  0
   20.7401   18.3020   22.1297 C   0  0  0  0  0  0  0  0  0  0  0  0
   21.7828   17.9927   22.1946 H   0  0  0  0  0  0  0  0  0  0  0  0
   19.7464   17.1767   22.3638 C   0  0  0  0  0  0  0  0  0  0  0  0
   19.9346   16.3771   21.6347 H   0  0  0  0  0  0  0  0  0  0  0  0
   19.9397   16.7297   23.3484 H   0  0  0  0  0  0  0  0  0  0  0  0
   18.2606   17.5915   22.2832 C   0  0  0  0  0  0  0  0  0  0  0  0
   18.0172   17.9940   21.2912 H   0  0  0  0  0  0  0  0  0  0  0  0
   17.6092   16.7266   22.4640 H   0  0  0  0  0  0  0  0  0  0  0  0
   18.0233   18.3543   23.0364 H   0  0  0  0  0  0  0  0  0  0  0  0
  1  2  1  0  0  0  0
  1  3  2  0  0  0  0
  1  4  1  0  0  0  0
  4  5  1  0  0  0  0
  4  6  1  0  0  0  0
  4  7  1  0  0  0  0
  7  8  1  0  0  0  0
  7  9  2  0  0  0  0
  9 10  1  0  0  0  0
  9 11  1  0  0  0  0
 11 12  1  0  0  0  0
 11 13  1  0  0  0  0
 11 14  1  0  0  0  0
 14 15  1  0  0  0  0
 14 16  1  0  0  0  0
 14 17  1  0  0  0  0
M  END
> <VConfSearch Rank>
203

> <Conf_Id>
19

> <Delta U+W>
-0.496

> <U+W>
-49.923

> <U>
13.863

> <W>
-63.786

> <W(PB)>
-65.856

> <W(SA)>
2.070

> <Valence>
14.117

> <Coulomb>
-1.228

> <VdW>
0.974

> <VdW6>
-4.885

> <VdW12>
5.859

> <Bond>
0.094

> <Angle>
2.818

> <Pdih>
11.205

> <Idih>
0.000

> <Tether>
0.000

$$$$
VeraChem MOL file


 17 16  0  0  0  0  0  0  0  0999 V2000     
   18.6311   16.5752   21.9070 C   0  0  0  0  0  0  0  0  0  0  0  0
   19.1414   15.8554   22.7426 O   0  5  0  0  0  0  0  0  0  0  0  0
   17.4300   16.6906   21.7626 O   0  0  0  0  0  0  0  0  0  0  0  0
   19.5448   17.3688   20.9821 C   0  0  0  0  0  0  0  0  0  0  0  0
   19.1236   17.3180   19.9714 H   0  0  0  0  0  0  0  0  0  0  0  0
   20.5194   16.8671   20.9492 H   0  0  0  0  0  0  0  0  0  0  0  0
   19.6924   18.8157   21.4129 C   0  0  0  0  0  0  0  0  0  0  0  0
   18.7915   19.4219   21.3228 H   0  0  0  0  0  0  0  0  0  0  0  0
   20.8249   19.3478   21.8824 C   0  0  0  0  0  0  0  0  0  0  0  0
   21.7240   18.7398   21.9772 H   0  0  0  0  0  0  0  0  0  0  0  0
   20.9692   20.7901   22.3142 C   0  0  0  0  0  0  0  0  0  0  0  0
   21.8713   21.2242   21.8622 H   0  0  0  0  0  0  0  0  0  0  0  0
   20.1186   21.3858   21.9551 H   0  0  0  0  0  0  0  0  0  0  0  0
   21.0583   20.9021   23.8486 C   0  0  0  0  0  0  0  0  0  0  0  0
   21.9242   20.3467   24.2322 H   0  0  0  0  0  0  0  0  0  0  0  0
   21.1624   21.9507   24.1564 H   0  0  0  0  0  0  0  0  0  0  0  0
   20.1546   20.4960   24.3221 H   0  0  0  0  0  0  0  0  0  0  0  0
  1  2  1  0  0  0  0
  1  3  2  0  0  0  0
  1  4  1  0  0  0  0
  4  5  1  0  0  0  0
  4  6  1  0  0  0  0
  4  7  1  0  0  0  0
  7  8  1  0  0  0  0
  7  9  2  0  0  0  0
  9 10  1  0  0  0  0
  9 11  1  0  0  0  0
 11 12  1  0  0  0  0
 11 13  1  0  0  0  0
 11 14  1  0  0  0  0
 14 15  1  0  0  0  0
 14 16  1  0  0  0  0
 14 17  1  0  0  0  0
M  END
> <VConfSearch Rank>
204

> <Conf_Id>
7

> <Delta U+W>
-0.041

> <U+W>
-49.468

> <U>
14.121

> <W>
-63.589

> <W(PB)>
-65.660

> <W(SA)>
2.071

> <Valence>
15.230

> <Coulomb>
-1.333

> <VdW>
0.224

> <VdW6>
-4.212

> <VdW12>
4.436

> <Bond>
0.044

> <Angle>
2.230

> <Pdih>
12.956

> <Idih>
0.000

> <Tether>
0.000

$$$$
VeraChem MOL file


 17 16  0  0  0  0  0  0  0  0999 V2000     
   21.5424   17.3948   20.8155 C   0  0  0  0  0  0  0  0  0  0  0  0
   21.9329   16.6633   21.7041 O   0  5  0  0  0  0  0  0  0  0  0  0
   22.2789   17.9076   19.9959 O   0  0  0  0  0  0  0  0  0  0  0  0
   20.0443   17.6613   20.7059 C   0  0  0  0  0  0  0  0  0  0  0  0
   19.5169   16.7651   21.0531 H   0  0  0  0  0  0  0  0  0  0  0  0
   19.7982   17.7628   19.6425 H   0  0  0  0  0  0  0  0  0  0  0  0
   19.5362   18.8785   21.4656 C   0  0  0  0  0  0  0  0  0  0  0  0
   18.4645   19.0505   21.3738 H   0  0  0  0  0  0  0  0  0  0  0  0
   20.2789   19.7110   22.2048 C   0  0  0  0  0  0  0  0  0  0  0  0
   21.3524   19.5611   22.3138 H   0  0  0  0  0  0  0  0  0  0  0  0
   19.7237   20.9103   22.9405 C   0  0  0  0  0  0  0  0  0  0  0  0
   20.3462   21.7916   22.7352 H   0  0  0  0  0  0  0  0  0  0  0  0
   18.7128   21.1482   22.5817 H   0  0  0  0  0  0  0  0  0  0  0  0
   19.6787   20.6557   24.4598 C   0  0  0  0  0  0  0  0  0  0  0  0
   19.2764   21.5296   24.9886 H   0  0  0  0  0  0  0  0  0  0  0  0
   19.0403   19.7931   24.6917 H   0  0  0  0  0  0  0  0  0  0  0  0
   20.6837   20.4525   24.8525 H   0  0  0  0  0  0  0  0  0  0  0  0
  1  2  1  0  0  0  0
  1  3  2  0  0  0  0
  1  4  1  0  0  0  0
  4  5  1  0  0  0  0
  4  6  1  0  0  0  0
  4  7  1  0  0  0  0
  7  8  1  0  0  0  0
  7  9  2  0  0  0  0
  9 10  1  0  0  0  0
  9 11  1  0  0  0  0
 11 12  1  0  0  0  0
 11 13  1  0  0  0  0
 11 14  1  0  0  0  0
 14 15  1  0  0  0  0
 14 16  1  0  0  0  0
 14 17  1  0  0  0  0
M  END
> <VConfSearch Rank>
205

> <Conf_Id>
39

> <Delta U+W>
-0.422

> <U+W>
-49.849

> <U>
14.465

> <W>
-64.314

> <W(PB)>
-66.406

> <W(SA)>
2.093

> <Valence>
14.072

> <Coulomb>
-0.199

> <VdW>
0.592

> <VdW6>
-5.019

> <VdW12>
5.611

> <Bond>
0.085

> <Angle>
2.748

> <Pdih>
11.238

> <Idih>
0.001

> <Tether>
0.000

$$$$
VeraChem MOL file


 17 16  0  0  0  0  0  0  0  0999 V2000     
   22.5605   17.5136   23.0594 C   0  0  0  0  0  0  0  0  0  0  0  0
   22.9369   17.6813   24.2027 O   0  5  0  0  0  0  0  0  0  0  0  0
   23.3146   17.3411   22.1221 O   0  0  0  0  0  0  0  0  0  0  0  0
   21.0615   17.5145   22.7896 C   0  0  0  0  0  0  0  0  0  0  0  0
   20.5744   16.9646   23.6031 H   0  0  0  0  0  0  0  0  0  0  0  0
   20.8787   16.9509   21.8668 H   0  0  0  0  0  0  0  0  0  0  0  0
   20.4896   18.9161   22.6930 C   0  0  0  0  0  0  0  0  0  0  0  0
   20.4901   19.4837   23.6231 H   0  0  0  0  0  0  0  0  0  0  0  0
   20.0114   19.4563   21.5679 C   0  0  0  0  0  0  0  0  0  0  0  0
   20.0140   18.8892   20.6376 H   0  0  0  0  0  0  0  0  0  0  0  0
   19.4450   20.8554   21.4727 C   0  0  0  0  0  0  0  0  0  0  0  0
   19.7106   21.4392   22.3648 H   0  0  0  0  0  0  0  0  0  0  0  0
   19.8864   21.3762   20.6122 H   0  0  0  0  0  0  0  0  0  0  0  0
   17.9116   20.8230   21.3223 C   0  0  0  0  0  0  0  0  0  0  0  0
   17.4456   20.3288   22.1850 H   0  0  0  0  0  0  0  0  0  0  0  0
   17.5065   21.8409   21.2530 H   0  0  0  0  0  0  0  0  0  0  0  0
   17.6183   20.2773   20.4159 H   0  0  0  0  0  0  0  0  0  0  0  0
  1  2  1  0  0  0  0
  1  3  2  0  0  0  0
  1  4  1  0  0  0  0
  4  5  1  0  0  0  0
  4  6  1  0  0  0  0
  4  7  1  0  0  0  0
  7  8  1  0  0  0  0
  7  9  2  0  0  0  0
  9 10  1  0  0  0  0
  9 11  1  0  0  0  0
 11 12  1  0  0  0  0
 11 13  1  0  0  0  0
 11 14  1  0  0  0  0
 14 15  1  0  0  0  0
 14 16  1  0  0  0  0
 14 17  1  0  0  0  0
M  END
> <VConfSearch Rank>
206

> <Conf_Id>
38

> <Delta U+W>
0.000

> <U+W>
-49.427

> <U>
13.666

> <W>
-63.093

> <W(PB)>
-65.225

> <W(SA)>
2.132

> <Valence>
15.226

> <Coulomb>
-1.822

> <VdW>
0.261

> <VdW6>
-4.165

> <VdW12>
4.426

> <Bond>
0.044

> <Angle>
2.229

> <Pdih>
12.953

> <Idih>
0.000

> <Tether>
0.000

$$$$
VeraChem MOL file


 17 16  0  0  0  0  0  0  0  0999 V2000     
   22.9630   19.3028   20.7868 C   0  0  0  0  0  0  0  0  0  0  0  0
   23.6049   20.2210   21.2576 O   0  5  0  0  0  0  0  0  0  0  0  0
   23.0304   18.9638   19.6216 O   0  0  0  0  0  0  0  0  0  0  0  0
   22.0268   18.5299   21.7064 C   0  0  0  0  0  0  0  0  0  0  0  0
   22.3805   18.6517   22.7372 H   0  0  0  0  0  0  0  0  0  0  0  0
   22.1181   17.4658   21.4597 H   0  0  0  0  0  0  0  0  0  0  0  0
   20.5827   18.9738   21.5711 C   0  0  0  0  0  0  0  0  0  0  0  0
   20.1105   18.7365   20.6183 H   0  0  0  0  0  0  0  0  0  0  0  0
   19.9014   19.6147   22.5257 C   0  0  0  0  0  0  0  0  0  0  0  0
   20.3751   19.8544   23.4771 H   0  0  0  0  0  0  0  0  0  0  0  0
   18.4627   20.0601   22.3877 C   0  0  0  0  0  0  0  0  0  0  0  0
   18.3670   21.1078   22.7033 H   0  0  0  0  0  0  0  0  0  0  0  0
   18.1463   20.0174   21.3363 H   0  0  0  0  0  0  0  0  0  0  0  0
   17.5263   19.1798   23.2382 C   0  0  0  0  0  0  0  0  0  0  0  0
   17.7963   19.2338   24.3010 H   0  0  0  0  0  0  0  0  0  0  0  0
   16.4840   19.5082   23.1345 H   0  0  0  0  0  0  0  0  0  0  0  0
   17.5857   18.1297   22.9231 H   0  0  0  0  0  0  0  0  0  0  0  0
  1  2  1  0  0  0  0
  1  3  2  0  0  0  0
  1  4  1  0  0  0  0
  4  5  1  0  0  0  0
  4  6  1  0  0  0  0
  4  7  1  0  0  0  0
  7  8  1  0  0  0  0
  7  9  2  0  0  0  0
  9 10  1  0  0  0  0
  9 11  1  0  0  0  0
 11 12  1  0  0  0  0
 11 13  1  0  0  0  0
 11 14  1  0  0  0  0
 14 15  1  0  0  0  0
 14 16  1  0  0  0  0
 14 17  1  0  0  0  0
M  END
> <VConfSearch Rank>
207

> <Conf_Id>
35

> <Delta U+W>
-0.102

> <U+W>
-49.529

> <U>
13.666

> <W>
-63.195

> <W(PB)>
-65.299

> <W(SA)>
2.103

> <Valence>
15.226

> <Coulomb>
-1.822

> <VdW>
0.261

> <VdW6>
-4.165

> <VdW12>
4.426

> <Bond>
0.044

> <Angle>
2.229

> <Pdih>
12.953

> <Idih>
0.000

> <Tether>
0.000

$$$$
VeraChem MOL file


 17 16  0  0  0  0  0  0  0  0999 V2000     
   19.5639   18.6261   19.3665 C   0  0  0  0  0  0  0  0  0  0  0  0
   20.3302   17.8091   18.8951 O   0  5  0  0  0  0  0  0  0  0  0  0
   18.3619   18.6008   19.1888 O   0  0  0  0  0  0  0  0  0  0  0  0
   20.1445   19.7473   20.2182 C   0  0  0  0  0  0  0  0  0  0  0  0
   19.4447   20.5913   20.1973 H   0  0  0  0  0  0  0  0  0  0  0  0
   21.0701   20.0866   19.7390 H   0  0  0  0  0  0  0  0  0  0  0  0
   20.4266   19.3078   21.6425 C   0  0  0  0  0  0  0  0  0  0  0  0
   21.2302   18.5803   21.7427 H   0  0  0  0  0  0  0  0  0  0  0  0
   19.7542   19.7565   22.7099 C   0  0  0  0  0  0  0  0  0  0  0  0
   18.9529   20.4813   22.5699 H   0  0  0  0  0  0  0  0  0  0  0  0
   19.9805   19.3579   24.1585 C   0  0  0  0  0  0  0  0  0  0  0  0
   20.1988   20.2595   24.7467 H   0  0  0  0  0  0  0  0  0  0  0  0
   19.0433   18.9578   24.5685 H   0  0  0  0  0  0  0  0  0  0  0  0
   21.1080   18.3260   24.3824 C   0  0  0  0  0  0  0  0  0  0  0  0
   22.0732   18.7150   24.0326 H   0  0  0  0  0  0  0  0  0  0  0  0
   21.2076   18.0904   25.4499 H   0  0  0  0  0  0  0  0  0  0  0  0
   20.8962   17.3895   23.8498 H   0  0  0  0  0  0  0  0  0  0  0  0
  1  2  1  0  0  0  0
  1  3  2  0  0  0  0
  1  4  1  0  0  0  0
  4  5  1  0  0  0  0
  4  6  1  0  0  0  0
  4  7  1  0  0  0  0
  7  8  1  0  0  0  0
  7  9  2  0  0  0  0
  9 10  1  0  0  0  0
  9 11  1  0  0  0  0
 11 12  1  0  0  0  0
 11 13  1  0  0  0  0
 11 14  1  0  0  0  0
 14 15  1  0  0  0  0
 14 16  1  0  0  0  0
 14 17  1  0  0  0  0
M  END
> <VConfSearch Rank>
208

> <Conf_Id>
19

> <Delta U+W>
-0.496

> <U+W>
-49.923

> <U>
13.863

> <W>
-63.786

> <W(PB)>
-65.856

> <W(SA)>
2.070

> <Valence>
14.117

> <Coulomb>
-1.228

> <VdW>
0.974

> <VdW6>
-4.885

> <VdW12>
5.859

> <Bond>
0.094

> <Angle>
2.818

> <Pdih>
11.205

> <Idih>
0.000

> <Tether>
0.000

$$$$
VeraChem MOL file


 17 16  0  0  0  0  0  0  0  0999 V2000     
   17.2927   19.6008   22.5634 C   0  0  0  0  0  0  0  0  0  0  0  0
   17.0664   20.3918   21.6690 O   0  5  0  0  0  0  0  0  0  0  0  0
   16.5877   18.6411   22.8062 O   0  0  0  0  0  0  0  0  0  0  0  0
   18.5203   19.8287   23.4357 C   0  0  0  0  0  0  0  0  0  0  0  0
   18.2342   19.6285   24.4748 H   0  0  0  0  0  0  0  0  0  0  0  0
   18.7915   20.8896   23.3762 H   0  0  0  0  0  0  0  0  0  0  0  0
   19.6877   18.9459   23.0375 C   0  0  0  0  0  0  0  0  0  0  0  0
   19.5474   17.8804   23.2168 H   0  0  0  0  0  0  0  0  0  0  0  0
   20.8219   19.3997   22.4953 C   0  0  0  0  0  0  0  0  0  0  0  0
   20.9597   20.4647   22.3115 H   0  0  0  0  0  0  0  0  0  0  0  0
   21.9837   18.5174   22.0963 C   0  0  0  0  0  0  0  0  0  0  0  0
   22.9201   18.9374   22.4877 H   0  0  0  0  0  0  0  0  0  0  0  0
   21.8770   17.5176   22.5393 H   0  0  0  0  0  0  0  0  0  0  0  0
   22.0795   18.3882   20.5636 C   0  0  0  0  0  0  0  0  0  0  0  0
   22.2257   19.3708   20.0961 H   0  0  0  0  0  0  0  0  0  0  0  0
   22.9238   17.7467   20.2796 H   0  0  0  0  0  0  0  0  0  0  0  0
   21.1623   17.9468   20.1517 H   0  0  0  0  0  0  0  0  0  0  0  0
  1  2  1  0  0  0  0
  1  3  2  0  0  0  0
  1  4  1  0  0  0  0
  4  5  1  0  0  0  0
  4  6  1  0  0  0  0
  4  7  1  0  0  0  0
  7  8  1  0  0  0  0
  7  9  2  0  0  0  0
  9 10  1  0  0  0  0
  9 11  1  0  0  0  0
 11 12  1  0  0  0  0
 11 13  1  0  0  0  0
 11 14  1  0  0  0  0
 14 15  1  0  0  0  0
 14 16  1  0  0  0  0
 14 17  1  0  0  0  0
M  END
> <VConfSearch Rank>
209

> <Conf_Id>
7

> <Delta U+W>
-0.041

> <U+W>
-49.468

> <U>
14.121

> <W>
-63.589

> <W(PB)>
-65.660

> <W(SA)>
2.071

> <Valence>
15.230

> <Coulomb>
-1.333

> <VdW>
0.224

> <VdW6>
-4.212

> <VdW12>
4.436

> <Bond>
0.044

> <Angle>
2.230

> <Pdih>
12.956

> <Idih>
0.000

> <Tether>
0.000

$$$$
VeraChem MOL file


 17 16  0  0  0  0  0  0  0  0999 V2000     
   19.5967   19.7852   24.9270 C   0  0  0  0  0  0  0  0  0  0  0  0
   19.4882   20.9956   24.9112 O   0  5  0  0  0  0  0  0  0  0  0  0
   20.3519   19.1885   25.6691 O   0  0  0  0  0  0  0  0  0  0  0  0
   18.7175   18.9693   23.9842 C   0  0  0  0  0  0  0  0  0  0  0  0
   17.7723   19.5092   23.8541 H   0  0  0  0  0  0  0  0  0  0  0  0
   18.4616   18.0316   24.4911 H   0  0  0  0  0  0  0  0  0  0  0  0
   19.3223   18.6640   22.6212 C   0  0  0  0  0  0  0  0  0  0  0  0
   18.6783   18.0807   21.9642 H   0  0  0  0  0  0  0  0  0  0  0  0
   20.5315   19.0460   22.1937 C   0  0  0  0  0  0  0  0  0  0  0  0
   21.1947   19.6306   22.8302 H   0  0  0  0  0  0  0  0  0  0  0  0
   21.0873   18.7143   20.8266 C   0  0  0  0  0  0  0  0  0  0  0  0
   22.1094   18.3247   20.9268 H   0  0  0  0  0  0  0  0  0  0  0  0
   20.4932   17.9216   20.3512 H   0  0  0  0  0  0  0  0  0  0  0  0
   21.0986   19.9582   19.9168 C   0  0  0  0  0  0  0  0  0  0  0  0
   21.5040   19.7120   18.9268 H   0  0  0  0  0  0  0  0  0  0  0  0
   20.0823   20.3509   19.7809 H   0  0  0  0  0  0  0  0  0  0  0  0
   21.7177   20.7546   20.3502 H   0  0  0  0  0  0  0  0  0  0  0  0
  1  2  1  0  0  0  0
  1  3  2  0  0  0  0
  1  4  1  0  0  0  0
  4  5  1  0  0  0  0
  4  6  1  0  0  0  0
  4  7  1  0  0  0  0
  7  8  1  0  0  0  0
  7  9  2  0  0  0  0
  9 10  1  0  0  0  0
  9 11  1  0  0  0  0
 11 12  1  0  0  0  0
 11 13  1  0  0  0  0
 11 14  1  0  0  0  0
 14 15  1  0  0  0  0
 14 16  1  0  0  0  0
 14 17  1  0  0  0  0
M  END
> <VConfSearch Rank>
210

> <Conf_Id>
39

> <Delta U+W>
-0.422

> <U+W>
-49.849

> <U>
14.465

> <W>
-64.314

> <W(PB)>
-66.406

> <W(SA)>
2.093

> <Valence>
14.072

> <Coulomb>
-0.199

> <VdW>
0.592

> <VdW6>
-5.019

> <VdW12>
5.611

> <Bond>
0.085

> <Angle>
2.748

> <Pdih>
11.238

> <Idih>
0.001

> <Tether>
0.000

$$$$
VeraChem MOL file


 17 16  0  0  0  0  0  0  0  0999 V2000     
   21.0741   16.5292   20.8588 C   0  0  0  0  0  0  0  0  0  0  0  0
   22.2590   16.2764   20.9542 O   0  5  0  0  0  0  0  0  0  0  0  0
   20.4134   16.2887   19.8677 O   0  0  0  0  0  0  0  0  0  0  0  0
   20.3803   17.1777   22.0495 C   0  0  0  0  0  0  0  0  0  0  0  0
   20.7567   16.6963   22.9595 H   0  0  0  0  0  0  0  0  0  0  0  0
   19.3089   16.9521   21.9869 H   0  0  0  0  0  0  0  0  0  0  0  0
   20.6177   18.6743   22.1157 C   0  0  0  0  0  0  0  0  0  0  0  0
   21.6415   18.9734   22.3386 H   0  0  0  0  0  0  0  0  0  0  0  0
   19.6689   19.5948   21.9189 C   0  0  0  0  0  0  0  0  0  0  0  0
   18.6460   19.2951   21.6931 H   0  0  0  0  0  0  0  0  0  0  0  0
   19.9084   21.0868   21.9816 C   0  0  0  0  0  0  0  0  0  0  0  0
   20.9849   21.3049   21.9541 H   0  0  0  0  0  0  0  0  0  0  0  0
   19.4662   21.5706   21.1001 H   0  0  0  0  0  0  0  0  0  0  0  0
   19.2978   21.6925   23.2604 C   0  0  0  0  0  0  0  0  0  0  0  0
   19.7439   21.2416   24.1567 H   0  0  0  0  0  0  0  0  0  0  0  0
   19.4742   22.7752   23.3000 H   0  0  0  0  0  0  0  0  0  0  0  0
   18.2137   21.5224   23.2955 H   0  0  0  0  0  0  0  0  0  0  0  0
  1  2  1  0  0  0  0
  1  3  2  0  0  0  0
  1  4  1  0  0  0  0
  4  5  1  0  0  0  0
  4  6  1  0  0  0  0
  4  7  1  0  0  0  0
  7  8  1  0  0  0  0
  7  9  2  0  0  0  0
  9 10  1  0  0  0  0
  9 11  1  0  0  0  0
 11 12  1  0  0  0  0
 11 13  1  0  0  0  0
 11 14  1  0  0  0  0
 14 15  1  0  0  0  0
 14 16  1  0  0  0  0
 14 17  1  0  0  0  0
M  END
> <VConfSearch Rank>
211

> <Conf_Id>
38

> <Delta U+W>
0.000

> <U+W>
-49.427

> <U>
13.666

> <W>
-63.093

> <W(PB)>
-65.225

> <W(SA)>
2.132

> <Valence>
15.226

> <Coulomb>
-1.822

> <VdW>
0.261

> <VdW6>
-4.165

> <VdW12>
4.426

> <Bond>
0.044

> <Angle>
2.229

> <Pdih>
12.953

> <Idih>
0.000

> <Tether>
0.000

$$$$
VeraChem MOL file


 17 16  0  0  0  0  0  0  0  0999 V2000     
   20.3869   20.3030   19.1294 C   0  0  0  0  0  0  0  0  0  0  0  0
   21.1833   21.2207   19.1064 O   0  5  0  0  0  0  0  0  0  0  0  0
   19.3891   20.2617   18.4369 O   0  0  0  0  0  0  0  0  0  0  0  0
   20.6548   19.1378   20.0729 C   0  0  0  0  0  0  0  0  0  0  0  0
   21.7304   19.1079   20.2845 H   0  0  0  0  0  0  0  0  0  0  0  0
   20.4069   18.2121   19.5407 H   0  0  0  0  0  0  0  0  0  0  0  0
   19.8508   19.2324   21.3556 C   0  0  0  0  0  0  0  0  0  0  0  0
   18.7746   19.1069   21.2403 H   0  0  0  0  0  0  0  0  0  0  0  0
   20.3832   19.4551   22.5611 C   0  0  0  0  0  0  0  0  0  0  0  0
   21.4591   19.5837   22.6753 H   0  0  0  0  0  0  0  0  0  0  0  0
   19.5796   19.5531   23.8385 C   0  0  0  0  0  0  0  0  0  0  0  0
   19.8837   20.4467   24.4002 H   0  0  0  0  0  0  0  0  0  0  0  0
   18.5109   19.6714   23.6123 H   0  0  0  0  0  0  0  0  0  0  0  0
   19.7797   18.3020   24.7160 C   0  0  0  0  0  0  0  0  0  0  0  0
   20.8360   18.1804   24.9897 H   0  0  0  0  0  0  0  0  0  0  0  0
   19.1947   18.3792   25.6417 H   0  0  0  0  0  0  0  0  0  0  0  0
   19.4578   17.3971   24.1840 H   0  0  0  0  0  0  0  0  0  0  0  0
  1  2  1  0  0  0  0
  1  3  2  0  0  0  0
  1  4  1  0  0  0  0
  4  5  1  0  0  0  0
  4  6  1  0  0  0  0
  4  7  1  0  0  0  0
  7  8  1  0  0  0  0
  7  9  2  0  0  0  0
  9 10  1  0  0  0  0
  9 11  1  0  0  0  0
 11 12  1  0  0  0  0
 11 13  1  0  0  0  0
 11 14  1  0  0  0  0
 14 15  1  0  0  0  0
 14 16  1  0  0  0  0
 14 17  1  0  0  0  0
M  END
> <VConfSearch Rank>
212

> <Conf_Id>
35

> <Delta U+W>
-0.102

> <U+W>
-49.529

> <U>
13.666

> <W>
-63.195

> <W(PB)>
-65.299

> <W(SA)>
2.103

> <Valence>
15.226

> <Coulomb>
-1.822

> <VdW>
0.261

> <VdW6>
-4.165

> <VdW12>
4.426

> <Bond>
0.044

> <Angle>
2.229

> <Pdih>
12.953

> <Idih>
0.000

> <Tether>
0.000

$$$$
VeraChem MOL file


 17 16  0  0  0  0  0  0  0  0999 V2000     
   18.4712   18.8944   24.5691 C   0  0  0  0  0  0  0  0  0  0  0  0
   17.3074   18.8676   24.2202 O   0  5  0  0  0  0  0  0  0  0  0  0
   18.9398   18.1461   25.4042 O   0  0  0  0  0  0  0  0  0  0  0  0
   19.3886   19.9290   23.9305 C   0  0  0  0  0  0  0  0  0  0  0  0
   20.2236   20.1166   24.6162 H   0  0  0  0  0  0  0  0  0  0  0  0
   18.8273   20.8666   23.8451 H   0  0  0  0  0  0  0  0  0  0  0  0
   19.8902   19.4964   22.5657 C   0  0  0  0  0  0  0  0  0  0  0  0
   19.1232   19.4458   21.7949 H   0  0  0  0  0  0  0  0  0  0  0  0
   21.1664   19.1894   22.3016 C   0  0  0  0  0  0  0  0  0  0  0  0
   21.9056   19.2474   23.1000 H   0  0  0  0  0  0  0  0  0  0  0  0
   21.7354   18.7469   20.9641 C   0  0  0  0  0  0  0  0  0  0  0  0
   22.5351   19.4400   20.6697 H   0  0  0  0  0  0  0  0  0  0  0  0
   22.2225   17.7705   21.0896 H   0  0  0  0  0  0  0  0  0  0  0  0
   20.7054   18.6509   19.8170 C   0  0  0  0  0  0  0  0  0  0  0  0
   20.2358   19.6249   19.6265 H   0  0  0  0  0  0  0  0  0  0  0  0
   21.1924   18.3254   18.8886 H   0  0  0  0  0  0  0  0  0  0  0  0
   19.9169   17.9250   20.0553 H   0  0  0  0  0  0  0  0  0  0  0  0
  1  2  1  0  0  0  0
  1  3  2  0  0  0  0
  1  4  1  0  0  0  0
  4  5  1  0  0  0  0
  4  6  1  0  0  0  0
  4  7  1  0  0  0  0
  7  8  1  0  0  0  0
  7  9  2  0  0  0  0
  9 10  1  0  0  0  0
  9 11  1  0  0  0  0
 11 12  1  0  0  0  0
 11 13  1  0  0  0  0
 11 14  1  0  0  0  0
 14 15  1  0  0  0  0
 14 16  1  0  0  0  0
 14 17  1  0  0  0  0
M  END
> <VConfSearch Rank>
213

> <Conf_Id>
19

> <Delta U+W>
-0.496

> <U+W>
-49.923

> <U>
13.863

> <W>
-63.786

> <W(PB)>
-65.856

> <W(SA)>
2.070

> <Valence>
14.117

> <Coulomb>
-1.228

> <VdW>
0.974

> <VdW6>
-4.885

> <VdW12>
5.859

> <Bond>
0.094

> <Angle>
2.818

> <Pdih>
11.205

> <Idih>
0.000

> <Tether>
0.000

$$$$
VeraChem MOL file


 17 16  0  0  0  0  0  0  0  0999 V2000     
   19.2008   16.4589   21.2554 C   0  0  0  0  0  0  0  0  0  0  0  0
   18.0013   16.5437   21.4316 O   0  5  0  0  0  0  0  0  0  0  0  0
   19.7014   16.0410   20.2299 O   0  0  0  0  0  0  0  0  0  0  0  0
   20.1289   16.8890   22.3839 C   0  0  0  0  0  0  0  0  0  0  0  0
   20.9393   16.1538   22.4491 H   0  0  0  0  0  0  0  0  0  0  0  0
   19.5707   16.8359   23.3264 H   0  0  0  0  0  0  0  0  0  0  0  0
   20.7009   18.2772   22.1683 C   0  0  0  0  0  0  0  0  0  0  0  0
   21.3947   18.3697   21.3332 H   0  0  0  0  0  0  0  0  0  0  0  0
   20.3969   19.3399   22.9195 C   0  0  0  0  0  0  0  0  0  0  0  0
   19.6991   19.2480   23.7512 H   0  0  0  0  0  0  0  0  0  0  0  0
   20.9662   20.7239   22.7010 C   0  0  0  0  0  0  0  0  0  0  0  0
   21.3268   21.1317   23.6550 H   0  0  0  0  0  0  0  0  0  0  0  0
   21.8339   20.6809   22.0283 H   0  0  0  0  0  0  0  0  0  0  0  0
   19.9060   21.6707   22.1054 C   0  0  0  0  0  0  0  0  0  0  0  0
   19.0422   21.7632   22.7767 H   0  0  0  0  0  0  0  0  0  0  0  0
   20.3245   22.6733   21.9485 H   0  0  0  0  0  0  0  0  0  0  0  0
   19.5481   21.2953   21.1376 H   0  0  0  0  0  0  0  0  0  0  0  0
  1  2  1  0  0  0  0
  1  3  2  0  0  0  0
  1  4  1  0  0  0  0
  4  5  1  0  0  0  0
  4  6  1  0  0  0  0
  4  7  1  0  0  0  0
  7  8  1  0  0  0  0
  7  9  2  0  0  0  0
  9 10  1  0  0  0  0
  9 11  1  0  0  0  0
 11 12  1  0  0  0  0
 11 13  1  0  0  0  0
 11 14  1  0  0  0  0
 14 15  1  0  0  0  0
 14 16  1  0  0  0  0
 14 17  1  0  0  0  0
M  END
> <VConfSearch Rank>
214

> <Conf_Id>
7

> <Delta U+W>
-0.041

> <U+W>
-49.468

> <U>
14.121

> <W>
-63.589

> <W(PB)>
-65.660

> <W(SA)>
2.071

> <Valence>
15.230

> <Coulomb>
-1.333

> <VdW>
0.224

> <VdW6>
-4.212

> <VdW12>
4.436

> <Bond>
0.044

> <Angle>
2.230

> <Pdih>
12.956

> <Idih>
0.000

> <Tether>
0.000

$$$$
VeraChem MOL file


 17 16  0  0  0  0  0  0  0  0999 V2000     
   17.9290   17.6953   21.7233 C   0  0  0  0  0  0  0  0  0  0  0  0
   17.7344   17.1892   22.8110 O   0  5  0  0  0  0  0  0  0  0  0  0
   18.0654   17.0546   20.6996 O   0  0  0  0  0  0  0  0  0  0  0  0
   17.9769   19.2175   21.6336 C   0  0  0  0  0  0  0  0  0  0  0  0
   17.3020   19.6209   22.3975 H   0  0  0  0  0  0  0  0  0  0  0  0
   17.5486   19.5105   20.6679 H   0  0  0  0  0  0  0  0  0  0  0  0
   19.3562   19.8419   21.7905 C   0  0  0  0  0  0  0  0  0  0  0  0
   19.3677   20.9291   21.7231 H   0  0  0  0  0  0  0  0  0  0  0  0
   20.5005   19.1797   21.9979 C   0  0  0  0  0  0  0  0  0  0  0  0
   20.5166   18.0929   22.0703 H   0  0  0  0  0  0  0  0  0  0  0  0
   21.8486   19.8496   22.1460 C   0  0  0  0  0  0  0  0  0  0  0  0
   22.5852   19.3451   21.5061 H   0  0  0  0  0  0  0  0  0  0  0  0
   21.7993   20.8935   21.8069 H   0  0  0  0  0  0  0  0  0  0  0  0
   22.3280   19.8111   23.6101 C   0  0  0  0  0  0  0  0  0  0  0  0
   23.3071   20.2972   23.7114 H   0  0  0  0  0  0  0  0  0  0  0  0
   21.6189   20.3328   24.2663 H   0  0  0  0  0  0  0  0  0  0  0  0
   22.4232   18.7761   23.9638 H   0  0  0  0  0  0  0  0  0  0  0  0
  1  2  1  0  0  0  0
  1  3  2  0  0  0  0
  1  4  1  0  0  0  0
  4  5  1  0  0  0  0
  4  6  1  0  0  0  0
  4  7  1  0  0  0  0
  7  8  1  0  0  0  0
  7  9  2  0  0  0  0
  9 10  1  0  0  0  0
  9 11  1  0  0  0  0
 11 12  1  0  0  0  0
 11 13  1  0  0  0  0
 11 14  1  0  0  0  0
 14 15  1  0  0  0  0
 14 16  1  0  0  0  0
 14 17  1  0  0  0  0
M  END
> <VConfSearch Rank>
215

> <Conf_Id>
39

> <Delta U+W>
-0.422

> <U+W>
-49.849

> <U>
14.465

> <W>
-64.314

> <W(PB)>
-66.406

> <W(SA)>
2.093

> <Valence>
14.072

> <Coulomb>
-0.199

> <VdW>
0.592

> <VdW6>
-5.019

> <VdW12>
5.611

> <Bond>
0.085

> <Angle>
2.748

> <Pdih>
11.238

> <Idih>
0.001

> <Tether>
0.000

$$$$
VeraChem MOL file


 17 16  0  0  0  0  0  0  0  0999 V2000     
   19.2258   19.5668   25.1304 C   0  0  0  0  0  0  0  0  0  0  0  0
   19.0282   20.6970   25.5311 O   0  5  0  0  0  0  0  0  0  0  0  0
   19.7749   18.7064   25.7899 O   0  0  0  0  0  0  0  0  0  0  0  0
   18.7541   19.2100   23.7269 C   0  0  0  0  0  0  0  0  0  0  0  0
   17.7707   19.6703   23.5770 H   0  0  0  0  0  0  0  0  0  0  0  0
   18.6106   18.1238   23.6790 H   0  0  0  0  0  0  0  0  0  0  0  0
   19.7177   19.6790   22.6535 C   0  0  0  0  0  0  0  0  0  0  0  0
   19.7901   20.7595   22.5333 H   0  0  0  0  0  0  0  0  0  0  0  0
   20.4469   18.8603   21.8891 C   0  0  0  0  0  0  0  0  0  0  0  0
   20.3763   17.7800   22.0118 H   0  0  0  0  0  0  0  0  0  0  0  0
   21.4101   19.3298   20.8218 C   0  0  0  0  0  0  0  0  0  0  0  0
   21.6155   20.4033   20.9346 H   0  0  0  0  0  0  0  0  0  0  0  0
   22.3716   18.8112   20.9361 H   0  0  0  0  0  0  0  0  0  0  0  0
   20.8473   19.0637   19.4120 C   0  0  0  0  0  0  0  0  0  0  0  0
   19.8970   19.5937   19.2651 H   0  0  0  0  0  0  0  0  0  0  0  0
   21.5507   19.4058   18.6419 H   0  0  0  0  0  0  0  0  0  0  0  0
   20.6683   17.9915   19.2577 H   0  0  0  0  0  0  0  0  0  0  0  0
  1  2  1  0  0  0  0
  1  3  2  0  0  0  0
  1  4  1  0  0  0  0
  4  5  1  0  0  0  0
  4  6  1  0  0  0  0
  4  7  1  0  0  0  0
  7  8  1  0  0  0  0
  7  9  2  0  0  0  0
  9 10  1  0  0  0  0
  9 11  1  0  0  0  0
 11 12  1  0  0  0  0
 11 13  1  0  0  0  0
 11 14  1  0  0  0  0
 14 15  1  0  0  0  0
 14 16  1  0  0  0  0
 14 17  1  0  0  0  0
M  END
> <VConfSearch Rank>
216

> <Conf_Id>
38

> <Delta U+W>
0.000

> <U+W>
-49.427

> <U>
13.666

> <W>
-63.093

> <W(PB)>
-65.225

> <W(SA)>
2.132

> <Valence>
15.226

> <Coulomb>
-1.822

> <VdW>
0.261

> <VdW6>
-4.165

> <VdW12>
4.426

> <Bond>
0.044

> <Angle>
2.229

> <Pdih>
12.953

> <Idih>
0.000

> <Tether>
0.000

$$$$
VeraChem MOL file


 17 16  0  0  0  0  0  0  0  0999 V2000     
   19.0920   18.4058   19.2266 C   0  0  0  0  0  0  0  0  0  0  0  0
   18.5262   17.3332   19.3060 O   0  5  0  0  0  0  0  0  0  0  0  0
   19.7979   18.7254   18.2903 O   0  0  0  0  0  0  0  0  0  0  0  0
   18.9032   19.4075   20.3582 C   0  0  0  0  0  0  0  0  0  0  0  0
   17.9622   19.1733   20.8703 H   0  0  0  0  0  0  0  0  0  0  0  0
   18.7857   20.4009   19.9100 H   0  0  0  0  0  0  0  0  0  0  0  0
   20.0661   19.4097   21.3320 C   0  0  0  0  0  0  0  0  0  0  0  0
   21.0066   19.7880   20.9324 H   0  0  0  0  0  0  0  0  0  0  0  0
   19.9876   18.9847   22.5967 C   0  0  0  0  0  0  0  0  0  0  0  0
   19.0476   18.6037   22.9947 H   0  0  0  0  0  0  0  0  0  0  0  0
   21.1492   18.9840   23.5651 C   0  0  0  0  0  0  0  0  0  0  0  0
   21.2172   18.0066   24.0617 H   0  0  0  0  0  0  0  0  0  0  0  0
   22.0968   19.1319   23.0289 H   0  0  0  0  0  0  0  0  0  0  0  0
   20.9861   20.0893   24.6266 C   0  0  0  0  0  0  0  0  0  0  0  0
   20.0640   19.9442   25.2047 H   0  0  0  0  0  0  0  0  0  0  0  0
   21.8315   20.0834   25.3268 H   0  0  0  0  0  0  0  0  0  0  0  0
   20.9415   21.0797   24.1546 H   0  0  0  0  0  0  0  0  0  0  0  0
  1  2  1  0  0  0  0
  1  3  2  0  0  0  0
  1  4  1  0  0  0  0
  4  5  1  0  0  0  0
  4  6  1  0  0  0  0
  4  7  1  0  0  0  0
  7  8  1  0  0  0  0
  7  9  2  0  0  0  0
  9 10  1  0  0  0  0
  9 11  1  0  0  0  0
 11 12  1  0  0  0  0
 11 13  1  0  0  0  0
 11 14  1  0  0  0  0
 14 15  1  0  0  0  0
 14 16  1  0  0  0  0
 14 17  1  0  0  0  0
M  END
> <VConfSearch Rank>
217

> <Conf_Id>
35

> <Delta U+W>
-0.102

> <U+W>
-49.529

> <U>
13.666

> <W>
-63.195

> <W(PB)>
-65.299

> <W(SA)>
2.103

> <Valence>
15.226

> <Coulomb>
-1.822

> <VdW>
0.261

> <VdW6>
-4.165

> <VdW12>
4.426

> <Bond>
0.044

> <Angle>
2.229

> <Pdih>
12.953

> <Idih>
0.000

> <Tether>
0.000

$$$$
VeraChem MOL file


 17 16  0  0  0  0  0  0  0  0999 V2000     
   18.6454   16.8498   21.1268 C   0  0  0  0  0  0  0  0  0  0  0  0
   19.0912   15.7975   21.5400 O   0  5  0  0  0  0  0  0  0  0  0  0
   17.4592   17.1129   21.1001 O   0  0  0  0  0  0  0  0  0  0  0  0
   19.6278   17.8905   20.6056 C   0  0  0  0  0  0  0  0  0  0  0  0
   19.0945   18.5455   19.9062 H   0  0  0  0  0  0  0  0  0  0  0  0
   20.3975   17.3649   20.0288 H   0  0  0  0  0  0  0  0  0  0  0  0
   20.2704   18.6924   21.7216 C   0  0  0  0  0  0  0  0  0  0  0  0
   20.9437   18.1233   22.3603 H   0  0  0  0  0  0  0  0  0  0  0  0
   20.0426   19.9948   21.9325 C   0  0  0  0  0  0  0  0  0  0  0  0
   19.3587   20.5304   21.2749 H   0  0  0  0  0  0  0  0  0  0  0  0
   20.6468   20.8559   23.0289 C   0  0  0  0  0  0  0  0  0  0  0  0
   21.1734   21.7026   22.5681 H   0  0  0  0  0  0  0  0  0  0  0  0
   19.8352   21.3002   23.6210 H   0  0  0  0  0  0  0  0  0  0  0  0
   21.6157   20.1175   23.9786 C   0  0  0  0  0  0  0  0  0  0  0  0
   22.4707   19.7054   23.4268 H   0  0  0  0  0  0  0  0  0  0  0  0
   22.0069   20.8048   24.7399 H   0  0  0  0  0  0  0  0  0  0  0  0
   21.1072   19.2947   24.4982 H   0  0  0  0  0  0  0  0  0  0  0  0
  1  2  1  0  0  0  0
  1  3  2  0  0  0  0
  1  4  1  0  0  0  0
  4  5  1  0  0  0  0
  4  6  1  0  0  0  0
  4  7  1  0  0  0  0
  7  8  1  0  0  0  0
  7  9  2  0  0  0  0
  9 10  1  0  0  0  0
  9 11  1  0  0  0  0
 11 12  1  0  0  0  0
 11 13  1  0  0  0  0
 11 14  1  0  0  0  0
 14 15  1  0  0  0  0
 14 16  1  0  0  0  0
 14 17  1  0  0  0  0
M  END
> <VConfSearch Rank>
218

> <Conf_Id>
19

> <Delta U+W>
-0.496

> <U+W>
-49.923

> <U>
13.863

> <W>
-63.786

> <W(PB)>
-65.856

> <W(SA)>
2.070

> <Valence>
14.117

> <Coulomb>
-1.228

> <VdW>
0.974

> <VdW6>
-4.885

> <VdW12>
5.859

> <Bond>
0.094

> <Angle>
2.818

> <Pdih>
11.205

> <Idih>
0.000

> <Tether>
0.000

$$$$
VeraChem MOL file


 17 16  0  0  0  0  0  0  0  0999 V2000     
   23.0673   19.4444   22.1125 C   0  0  0  0  0  0  0  0  0  0  0  0
   23.3549   18.9564   21.0374 O   0  5  0  0  0  0  0  0  0  0  0  0
   23.4868   20.5183   22.4969 O   0  0  0  0  0  0  0  0  0  0  0  0
   22.1392   18.6646   23.0347 C   0  0  0  0  0  0  0  0  0  0  0  0
   22.5335   18.7473   24.0541 H   0  0  0  0  0  0  0  0  0  0  0  0
   22.1894   17.6051   22.7561 H   0  0  0  0  0  0  0  0  0  0  0  0
   20.7108   19.1725   22.9859 C   0  0  0  0  0  0  0  0  0  0  0  0
   20.5579   20.1706   23.3955 H   0  0  0  0  0  0  0  0  0  0  0  0
   19.6849   18.4822   22.4787 C   0  0  0  0  0  0  0  0  0  0  0  0
   19.8393   17.4863   22.0647 H   0  0  0  0  0  0  0  0  0  0  0  0
   18.2618   18.9917   22.4284 C   0  0  0  0  0  0  0  0  0  0  0  0
   17.5781   18.2209   22.8091 H   0  0  0  0  0  0  0  0  0  0  0  0
   18.1440   19.8679   23.0807 H   0  0  0  0  0  0  0  0  0  0  0  0
   17.8600   19.3697   20.9894 C   0  0  0  0  0  0  0  0  0  0  0  0
   17.9313   18.5010   20.3219 H   0  0  0  0  0  0  0  0  0  0  0  0
   16.8267   19.7392   20.9588 H   0  0  0  0  0  0  0  0  0  0  0  0
   18.5157   20.1578   20.5961 H   0  0  0  0  0  0  0  0  0  0  0  0
  1  2  1  0  0  0  0
  1  3  2  0  0  0  0
  1  4  1  0  0  0  0
  4  5  1  0  0  0  0
  4  6  1  0  0  0  0
  4  7  1  0  0  0  0
  7  8  1  0  0  0  0
  7  9  2  0  0  0  0
  9 10  1  0  0  0  0
  9 11  1  0  0  0  0
 11 12  1  0  0  0  0
 11 13  1  0  0  0  0
 11 14  1  0  0  0  0
 14 15  1  0  0  0  0
 14 16  1  0  0  0  0
 14 17  1  0  0  0  0
M  END
> <VConfSearch Rank>
219

> <Conf_Id>
7

> <Delta U+W>
-0.041

> <U+W>
-49.468

> <U>
14.121

> <W>
-63.589

> <W(PB)>
-65.660

> <W(SA)>
2.071

> <Valence>
15.230

> <Coulomb>
-1.333

> <VdW>
0.224

> <VdW6>
-4.212

> <VdW12>
4.436

> <Bond>
0.044

> <Angle>
2.230

> <Pdih>
12.956

> <Idih>
0.000

> <Tether>
0.000

$$$$
VeraChem MOL file


 17 16  0  0  0  0  0  0  0  0999 V2000     
   17.5045   20.0078   22.7065 C   0  0  0  0  0  0  0  0  0  0  0  0
   17.0833   19.0239   23.2822 O   0  5  0  0  0  0  0  0  0  0  0  0
   16.9866   20.4766   21.7119 O   0  0  0  0  0  0  0  0  0  0  0  0
   18.7329   20.7085   23.2789 C   0  0  0  0  0  0  0  0  0  0  0  0
   18.7148   20.5829   24.3678 H   0  0  0  0  0  0  0  0  0  0  0  0
   18.6209   21.7838   23.0976 H   0  0  0  0  0  0  0  0  0  0  0  0
   20.0728   20.2359   22.7330 C   0  0  0  0  0  0  0  0  0  0  0  0
   20.9362   20.7491   23.1548 H   0  0  0  0  0  0  0  0  0  0  0  0
   20.2552   19.2780   21.8165 C   0  0  0  0  0  0  0  0  0  0  0  0
   19.4092   18.7487   21.3796 H   0  0  0  0  0  0  0  0  0  0  0  0
   21.6117   18.8457   21.3055 C   0  0  0  0  0  0  0  0  0  0  0  0
   21.5977   18.8030   20.2080 H   0  0  0  0  0  0  0  0  0  0  0  0
   22.3798   19.5809   21.5824 H   0  0  0  0  0  0  0  0  0  0  0  0
   22.0011   17.4650   21.8683 C   0  0  0  0  0  0  0  0  0  0  0  0
   22.9853   17.1558   21.4933 H   0  0  0  0  0  0  0  0  0  0  0  0
   22.0466   17.4899   22.9651 H   0  0  0  0  0  0  0  0  0  0  0  0
   21.2689   16.7016   21.5740 H   0  0  0  0  0  0  0  0  0  0  0  0
  1  2  1  0  0  0  0
  1  3  2  0  0  0  0
  1  4  1  0  0  0  0
  4  5  1  0  0  0  0
  4  6  1  0  0  0  0
  4  7  1  0  0  0  0
  7  8  1  0  0  0  0
  7  9  2  0  0  0  0
  9 10  1  0  0  0  0
  9 11  1  0  0  0  0
 11 12  1  0  0  0  0
 11 13  1  0  0  0  0
 11 14  1  0  0  0  0
 14 15  1  0  0  0  0
 14 16  1  0  0  0  0
 14 17  1  0  0  0  0
M  END
> <VConfSearch Rank>
220

> <Conf_Id>
39

> <Delta U+W>
-0.422

> <U+W>
-49.849

> <U>
14.465

> <W>
-64.314

> <W(PB)>
-66.406

> <W(SA)>
2.093

> <Valence>
14.072

> <Coulomb>
-0.199

> <VdW>
0.592

> <VdW6>
-5.019

> <VdW12>
5.611

> <Bond>
0.085

> <Angle>
2.748

> <Pdih>
11.238

> <Idih>
0.001

> <Tether>
0.000

$$$$
VeraChem MOL file


 17 16  0  0  0  0  0  0  0  0999 V2000     
   17.2589   17.9327   22.4134 C   0  0  0  0  0  0  0  0  0  0  0  0
   16.8257   17.8320   23.5444 O   0  5  0  0  0  0  0  0  0  0  0  0
   17.1312   17.0714   21.5658 O   0  0  0  0  0  0  0  0  0  0  0  0
   17.9970   19.2111   22.0385 C   0  0  0  0  0  0  0  0  0  0  0  0
   17.4560   20.0535   22.4850 H   0  0  0  0  0  0  0  0  0  0  0  0
   17.9398   19.3338   20.9503 H   0  0  0  0  0  0  0  0  0  0  0  0
   19.4385   19.2092   22.5104 C   0  0  0  0  0  0  0  0  0  0  0  0
   19.5744   19.2512   23.5907 H   0  0  0  0  0  0  0  0  0  0  0  0
   20.4958   19.1580   21.6945 C   0  0  0  0  0  0  0  0  0  0  0  0
   20.3593   19.1131   20.6145 H   0  0  0  0  0  0  0  0  0  0  0  0
   21.9325   19.1524   22.1669 C   0  0  0  0  0  0  0  0  0  0  0  0
   21.9822   18.9402   23.2438 H   0  0  0  0  0  0  0  0  0  0  0  0
   22.4858   18.3492   21.6616 H   0  0  0  0  0  0  0  0  0  0  0  0
   22.6147   20.5045   21.8815 C   0  0  0  0  0  0  0  0  0  0  0  0
   22.0933   21.3210   22.3982 H   0  0  0  0  0  0  0  0  0  0  0  0
   23.6570   20.4941   22.2259 H   0  0  0  0  0  0  0  0  0  0  0  0
   22.6136   20.7245   20.8058 H   0  0  0  0  0  0  0  0  0  0  0  0
  1  2  1  0  0  0  0
  1  3  2  0  0  0  0
  1  4  1  0  0  0  0
  4  5  1  0  0  0  0
  4  6  1  0  0  0  0
  4  7  1  0  0  0  0
  7  8  1  0  0  0  0
  7  9  2  0  0  0  0
  9 10  1  0  0  0  0
  9 11  1  0  0  0  0
 11 12  1  0  0  0  0
 11 13  1  0  0  0  0
 11 14  1  0  0  0  0
 14 15  1  0  0  0  0
 14 16  1  0  0  0  0
 14 17  1  0  0  0  0
M  END
> <VConfSearch Rank>
221

> <Conf_Id>
38

> <Delta U+W>
0.000

> <U+W>
-49.427

> <U>
13.666

> <W>
-63.093

> <W(PB)>
-65.225

> <W(SA)>
2.132

> <Valence>
15.226

> <Coulomb>
-1.822

> <VdW>
0.261

> <VdW6>
-4.165

> <VdW12>
4.426

> <Bond>
0.044

> <Angle>
2.229

> <Pdih>
12.953

> <Idih>
0.000

> <Tether>
0.000

$$$$
VeraChem MOL file


 17 16  0  0  0  0  0  0  0  0999 V2000     
   17.0762   18.3842   22.5258 C   0  0  0  0  0  0  0  0  0  0  0  0
   16.6790   18.8194   23.5887 O   0  5  0  0  0  0  0  0  0  0  0  0
   16.7639   17.2948   22.0869 O   0  0  0  0  0  0  0  0  0  0  0  0
   18.0120   19.2518   21.6945 C   0  0  0  0  0  0  0  0  0  0  0  0
   17.8572   20.2982   21.9837 H   0  0  0  0  0  0  0  0  0  0  0  0
   17.7090   19.1610   20.6450 H   0  0  0  0  0  0  0  0  0  0  0  0
   19.4671   18.8536   21.8528 C   0  0  0  0  0  0  0  0  0  0  0  0
   19.7311   17.8815   21.4373 H   0  0  0  0  0  0  0  0  0  0  0  0
   20.3913   19.6088   22.4541 C   0  0  0  0  0  0  0  0  0  0  0  0
   20.1260   20.5793   22.8722 H   0  0  0  0  0  0  0  0  0  0  0  0
   21.8409   19.2084   22.6146 C   0  0  0  0  0  0  0  0  0  0  0  0
   22.1568   19.3684   23.6544 H   0  0  0  0  0  0  0  0  0  0  0  0
   21.9689   18.1370   22.4075 H   0  0  0  0  0  0  0  0  0  0  0  0
   22.7479   20.0222   21.6711 C   0  0  0  0  0  0  0  0  0  0  0  0
   22.6688   21.0968   21.8820 H   0  0  0  0  0  0  0  0  0  0  0  0
   23.7985   19.7278   21.7925 H   0  0  0  0  0  0  0  0  0  0  0  0
   22.4671   19.8578   20.6224 H   0  0  0  0  0  0  0  0  0  0  0  0
  1  2  1  0  0  0  0
  1  3  2  0  0  0  0
  1  4  1  0  0  0  0
  4  5  1  0  0  0  0
  4  6  1  0  0  0  0
  4  7  1  0  0  0  0
  7  8  1  0  0  0  0
  7  9  2  0  0  0  0
  9 10  1  0  0  0  0
  9 11  1  0  0  0  0
 11 12  1  0  0  0  0
 11 13  1  0  0  0  0
 11 14  1  0  0  0  0
 14 15  1  0  0  0  0
 14 16  1  0  0  0  0
 14 17  1  0  0  0  0
M  END
> <VConfSearch Rank>
222

> <Conf_Id>
35

> <Delta U+W>
-0.102

> <U+W>
-49.529

> <U>
13.666

> <W>
-63.195

> <W(PB)>
-65.299

> <W(SA)>
2.103

> <Valence>
15.226

> <Coulomb>
-1.822

> <VdW>
0.261

> <VdW6>
-4.165

> <VdW12>
4.426

> <Bond>
0.044

> <Angle>
2.229

> <Pdih>
12.953

> <Idih>
0.000

> <Tether>
0.000

$$$$
VeraChem MOL file


 17 16  0  0  0  0  0  0  0  0999 V2000     
   18.7159   21.1960   23.6310 C   0  0  0  0  0  0  0  0  0  0  0  0
   18.2279   20.7364   24.6447 O   0  5  0  0  0  0  0  0  0  0  0  0
   19.2936   22.2643   23.5879 O   0  0  0  0  0  0  0  0  0  0  0  0
   18.5871   20.3922   22.3438 C   0  0  0  0  0  0  0  0  0  0  0  0
   18.6686   21.0847   21.4974 H   0  0  0  0  0  0  0  0  0  0  0  0
   17.5770   19.9675   22.3140 H   0  0  0  0  0  0  0  0  0  0  0  0
   19.6201   19.2856   22.2446 C   0  0  0  0  0  0  0  0  0  0  0  0
   19.4932   18.4797   22.9653 H   0  0  0  0  0  0  0  0  0  0  0  0
   20.6219   19.2763   21.3563 C   0  0  0  0  0  0  0  0  0  0  0  0
   20.7195   20.1028   20.6531 H   0  0  0  0  0  0  0  0  0  0  0  0
   21.6900   18.2064   21.2042 C   0  0  0  0  0  0  0  0  0  0  0  0
   21.6604   17.8162   20.1778 H   0  0  0  0  0  0  0  0  0  0  0  0
   22.6788   18.6718   21.3144 H   0  0  0  0  0  0  0  0  0  0  0  0
   21.5766   17.0264   22.1945 C   0  0  0  0  0  0  0  0  0  0  0  0
   20.6194   16.5021   22.0749 H   0  0  0  0  0  0  0  0  0  0  0  0
   22.3814   16.3001   22.0214 H   0  0  0  0  0  0  0  0  0  0  0  0
   21.6557   17.3746   23.2327 H   0  0  0  0  0  0  0  0  0  0  0  0
  1  2  1  0  0  0  0
  1  3  2  0  0  0  0
  1  4  1  0  0  0  0
  4  5  1  0  0  0  0
  4  6  1  0  0  0  0
  4  7  1  0  0  0  0
  7  8  1  0  0  0  0
  7  9  2  0  0  0  0
  9 10  1  0  0  0  0
  9 11  1  0  0  0  0
 11 12  1  0  0  0  0
 11 13  1  0  0  0  0
 11 14  1  0  0  0  0
 14 15  1  0  0  0  0
 14 16  1  0  0  0  0
 14 17  1  0  0  0  0
M  END
> <VConfSearch Rank>
223

> <Conf_Id>
19

> <Delta U+W>
-0.496

> <U+W>
-49.923

> <U>
13.863

> <W>
-63.786

> <W(PB)>
-65.856

> <W(SA)>
2.070

> <Valence>
14.117

> <Coulomb>
-1.228

> <VdW>
0.974

> <VdW6>
-4.885

> <VdW12>
5.859

> <Bond>
0.094

> <Angle>
2.818

> <Pdih>
11.205

> <Idih>
0.000

> <Tether>
0.000

$$$$
VeraChem MOL file


 17 16  0  0  0  0  0  0  0  0999 V2000     
   18.2347   21.2192   22.7398 C   0  0  0  0  0  0  0  0  0  0  0  0
   18.5414   22.0490   21.9066 O   0  5  0  0  0  0  0  0  0  0  0  0
   17.0887   20.8804   22.9607 O   0  0  0  0  0  0  0  0  0  0  0  0
   19.3444   20.5753   23.5606 C   0  0  0  0  0  0  0  0  0  0  0  0
   18.9993   20.5129   24.5991 H   0  0  0  0  0  0  0  0  0  0  0  0
   20.2121   21.2459   23.5505 H   0  0  0  0  0  0  0  0  0  0  0  0
   19.7175   19.1958   23.0519 C   0  0  0  0  0  0  0  0  0  0  0  0
   18.9504   18.4318   23.1745 H   0  0  0  0  0  0  0  0  0  0  0  0
   20.8882   18.8971   22.4806 C   0  0  0  0  0  0  0  0  0  0  0  0
   21.6530   19.6627   22.3536 H   0  0  0  0  0  0  0  0  0  0  0  0
   21.2571   17.5216   21.9713 C   0  0  0  0  0  0  0  0  0  0  0  0
   22.2545   17.2451   22.3389 H   0  0  0  0  0  0  0  0  0  0  0  0
   20.5579   16.7679   22.3590 H   0  0  0  0  0  0  0  0  0  0  0  0
   21.2476   17.4811   20.4308 C   0  0  0  0  0  0  0  0  0  0  0  0
   21.9672   18.1988   20.0157 H   0  0  0  0  0  0  0  0  0  0  0  0
   21.5155   16.4807   20.0667 H   0  0  0  0  0  0  0  0  0  0  0  0
   20.2520   17.7306   20.0406 H   0  0  0  0  0  0  0  0  0  0  0  0
  1  2  1  0  0  0  0
  1  3  2  0  0  0  0
  1  4  1  0  0  0  0
  4  5  1  0  0  0  0
  4  6  1  0  0  0  0
  4  7  1  0  0  0  0
  7  8  1  0  0  0  0
  7  9  2  0  0  0  0
  9 10  1  0  0  0  0
  9 11  1  0  0  0  0
 11 12  1  0  0  0  0
 11 13  1  0  0  0  0
 11 14  1  0  0  0  0
 14 15  1  0  0  0  0
 14 16  1  0  0  0  0
 14 17  1  0  0  0  0
M  END
> <VConfSearch Rank>
224

> <Conf_Id>
7

> <Delta U+W>
-0.041

> <U+W>
-49.468

> <U>
14.121

> <W>
-63.589

> <W(PB)>
-65.660

> <W(SA)>
2.071

> <Valence>
15.230

> <Coulomb>
-1.333

> <VdW>
0.224

> <VdW6>
-4.212

> <VdW12>
4.436

> <Bond>
0.044

> <Angle>
2.230

> <Pdih>
12.956

> <Idih>
0.000

> <Tether>
0.000

$$$$
VeraChem MOL file


 17 16  0  0  0  0  0  0  0  0999 V2000     
   20.2002   22.0321   22.1775 C   0  0  0  0  0  0  0  0  0  0  0  0
   21.2172   22.2569   22.8038 O   0  5  0  0  0  0  0  0  0  0  0  0
   19.1232   22.5271   22.4462 O   0  0  0  0  0  0  0  0  0  0  0  0
   20.2855   21.1004   20.9724 C   0  0  0  0  0  0  0  0  0  0  0  0
   21.2798   21.2182   20.5260 H   0  0  0  0  0  0  0  0  0  0  0  0
   19.5730   21.4585   20.2201 H   0  0  0  0  0  0  0  0  0  0  0  0
   20.0268   19.6284   21.2603 C   0  0  0  0  0  0  0  0  0  0  0  0
   20.0925   18.9812   20.3866 H   0  0  0  0  0  0  0  0  0  0  0  0
   19.7400   19.0991   22.4556 C   0  0  0  0  0  0  0  0  0  0  0  0
   19.6693   19.7238   23.3453 H   0  0  0  0  0  0  0  0  0  0  0  0
   19.4894   17.6257   22.6883 C   0  0  0  0  0  0  0  0  0  0  0  0
   18.5766   17.4950   23.2852 H   0  0  0  0  0  0  0  0  0  0  0  0
   19.3187   17.1086   21.7341 H   0  0  0  0  0  0  0  0  0  0  0  0
   20.6783   16.9704   23.4178 C   0  0  0  0  0  0  0  0  0  0  0  0
   20.4905   15.9019   23.5852 H   0  0  0  0  0  0  0  0  0  0  0  0
   21.5988   17.0662   22.8270 H   0  0  0  0  0  0  0  0  0  0  0  0
   20.8478   17.4437   24.3938 H   0  0  0  0  0  0  0  0  0  0  0  0
  1  2  1  0  0  0  0
  1  3  2  0  0  0  0
  1  4  1  0  0  0  0
  4  5  1  0  0  0  0
  4  6  1  0  0  0  0
  4  7  1  0  0  0  0
  7  8  1  0  0  0  0
  7  9  2  0  0  0  0
  9 10  1  0  0  0  0
  9 11  1  0  0  0  0
 11 12  1  0  0  0  0
 11 13  1  0  0  0  0
 11 14  1  0  0  0  0
 14 15  1  0  0  0  0
 14 16  1  0  0  0  0
 14 17  1  0  0  0  0
M  END
> <VConfSearch Rank>
225

> <Conf_Id>
39

> <Delta U+W>
-0.422

> <U+W>
-49.849

> <U>
14.465

> <W>
-64.314

> <W(PB)>
-66.406

> <W(SA)>
2.093

> <Valence>
14.072

> <Coulomb>
-0.199

> <VdW>
0.592

> <VdW6>
-5.019

> <VdW12>
5.611

> <Bond>
0.085

> <Angle>
2.748

> <Pdih>
11.238

> <Idih>
0.001

> <Tether>
0.000

$$$$
VeraChem MOL file


 17 16  0  0  0  0  0  0  0  0999 V2000     
   21.9361   20.7784   20.0041 C   0  0  0  0  0  0  0  0  0  0  0  0
   21.6054   20.6930   18.8378 O   0  5  0  0  0  0  0  0  0  0  0  0
   23.0910   20.7368   20.3799 O   0  0  0  0  0  0  0  0  0  0  0  0
   20.8423   20.9522   21.0496 C   0  0  0  0  0  0  0  0  0  0  0  0
   20.1025   21.6536   20.6469 H   0  0  0  0  0  0  0  0  0  0  0  0
   21.2851   21.4258   21.9340 H   0  0  0  0  0  0  0  0  0  0  0  0
   20.1725   19.6407   21.4131 C   0  0  0  0  0  0  0  0  0  0  0  0
   19.5744   19.1891   20.6223 H   0  0  0  0  0  0  0  0  0  0  0  0
   20.2835   19.0456   22.6047 C   0  0  0  0  0  0  0  0  0  0  0  0
   20.8842   19.4963   23.3941 H   0  0  0  0  0  0  0  0  0  0  0  0
   19.6180   17.7360   22.9642 C   0  0  0  0  0  0  0  0  0  0  0  0
   19.2564   17.2276   22.0598 H   0  0  0  0  0  0  0  0  0  0  0  0
   20.3505   17.0641   23.4319 H   0  0  0  0  0  0  0  0  0  0  0  0
   18.4378   17.9611   23.9293 C   0  0  0  0  0  0  0  0  0  0  0  0
   17.6792   18.6104   23.4727 H   0  0  0  0  0  0  0  0  0  0  0  0
   17.9593   17.0072   24.1870 H   0  0  0  0  0  0  0  0  0  0  0  0
   18.7775   18.4341   24.8600 H   0  0  0  0  0  0  0  0  0  0  0  0
  1  2  1  0  0  0  0
  1  3  2  0  0  0  0
  1  4  1  0  0  0  0
  4  5  1  0  0  0  0
  4  6  1  0  0  0  0
  4  7  1  0  0  0  0
  7  8  1  0  0  0  0
  7  9  2  0  0  0  0
  9 10  1  0  0  0  0
  9 11  1  0  0  0  0
 11 12  1  0  0  0  0
 11 13  1  0  0  0  0
 11 14  1  0  0  0  0
 14 15  1  0  0  0  0
 14 16  1  0  0  0  0
 14 17  1  0  0  0  0
M  END
> <VConfSearch Rank>
226

> <Conf_Id>
38

> <Delta U+W>
0.000

> <U+W>
-49.427

> <U>
13.666

> <W>
-63.093

> <W(PB)>
-65.225

> <W(SA)>
2.132

> <Valence>
15.226

> <Coulomb>
-1.822

> <VdW>
0.261

> <VdW6>
-4.165

> <VdW12>
4.426

> <Bond>
0.044

> <Angle>
2.229

> <Pdih>
12.953

> <Idih>
0.000

> <Tether>
0.000

$$$$
VeraChem MOL file


 17 16  0  0  0  0  0  0  0  0999 V2000     
   21.0867   22.2042   21.4789 C   0  0  0  0  0  0  0  0  0  0  0  0
   22.2540   22.3038   21.8019 O   0  5  0  0  0  0  0  0  0  0  0  0
   20.2727   23.0960   21.6171 O   0  0  0  0  0  0  0  0  0  0  0  0
   20.6174   20.8932   20.8619 C   0  0  0  0  0  0  0  0  0  0  0  0
   21.4875   20.3888   20.4249 H   0  0  0  0  0  0  0  0  0  0  0  0
   19.9390   21.1357   20.0358 H   0  0  0  0  0  0  0  0  0  0  0  0
   19.9167   19.9971   21.8653 C   0  0  0  0  0  0  0  0  0  0  0  0
   18.9554   20.3635   22.2243 H   0  0  0  0  0  0  0  0  0  0  0  0
   20.4083   18.8352   22.3064 C   0  0  0  0  0  0  0  0  0  0  0  0
   21.3710   18.4709   21.9493 H   0  0  0  0  0  0  0  0  0  0  0  0
   19.7100   17.9449   23.3099 C   0  0  0  0  0  0  0  0  0  0  0  0
   20.4161   17.6493   24.0977 H   0  0  0  0  0  0  0  0  0  0  0  0
   18.8948   18.4898   23.8054 H   0  0  0  0  0  0  0  0  0  0  0  0
   19.1414   16.6840   22.6302 C   0  0  0  0  0  0  0  0  0  0  0  0
   19.9415   16.0987   22.1583 H   0  0  0  0  0  0  0  0  0  0  0  0
   18.6366   16.0416   23.3634 H   0  0  0  0  0  0  0  0  0  0  0  0
   18.4124   16.9542   21.8549 H   0  0  0  0  0  0  0  0  0  0  0  0
  1  2  1  0  0  0  0
  1  3  2  0  0  0  0
  1  4  1  0  0  0  0
  4  5  1  0  0  0  0
  4  6  1  0  0  0  0
  4  7  1  0  0  0  0
  7  8  1  0  0  0  0
  7  9  2  0  0  0  0
  9 10  1  0  0  0  0
  9 11  1  0  0  0  0
 11 12  1  0  0  0  0
 11 13  1  0  0  0  0
 11 14  1  0  0  0  0
 14 15  1  0  0  0  0
 14 16  1  0  0  0  0
 14 17  1  0  0  0  0
M  END
> <VConfSearch Rank>
227

> <Conf_Id>
35

> <Delta U+W>
-0.102

> <U+W>
-49.529

> <U>
13.666

> <W>
-63.195

> <W(PB)>
-65.299

> <W(SA)>
2.103

> <Valence>
15.226

> <Coulomb>
-1.822

> <VdW>
0.261

> <VdW6>
-4.165

> <VdW12>
4.426

> <Bond>
0.044

> <Angle>
2.229

> <Pdih>
12.953

> <Idih>
0.000

> <Tether>
0.000

$$$$
VeraChem MOL file


 17 16  0  0  0  0  0  0  0  0999 V2000     
   22.4241   18.3360   24.0139 C   0  0  0  0  0  0  0  0  0  0  0  0
   23.4874   18.6894   23.5432 O   0  5  0  0  0  0  0  0  0  0  0  0
   22.1173   18.4993   25.1784 O   0  0  0  0  0  0  0  0  0  0  0  0
   21.4272   17.6423   23.0948 C   0  0  0  0  0  0  0  0  0  0  0  0
   20.7612   17.0280   23.7126 H   0  0  0  0  0  0  0  0  0  0  0  0
   21.9882   16.9567   22.4492 H   0  0  0  0  0  0  0  0  0  0  0  0
   20.6367   18.6233   22.2499 C   0  0  0  0  0  0  0  0  0  0  0  0
   21.2228   19.1532   21.5010 H   0  0  0  0  0  0  0  0  0  0  0  0
   19.3242   18.8452   22.3943 C   0  0  0  0  0  0  0  0  0  0  0  0
   18.7713   18.2990   23.1579 H   0  0  0  0  0  0  0  0  0  0  0  0
   18.4731   19.8121   21.5884 C   0  0  0  0  0  0  0  0  0  0  0  0
   17.6524   19.2561   21.1154 H   0  0  0  0  0  0  0  0  0  0  0  0
   17.9918   20.5211   22.2755 H   0  0  0  0  0  0  0  0  0  0  0  0
   19.2358   20.6034   20.5029 C   0  0  0  0  0  0  0  0  0  0  0  0
   19.6862   19.9264   19.7652 H   0  0  0  0  0  0  0  0  0  0  0  0
   18.5545   21.2778   19.9682 H   0  0  0  0  0  0  0  0  0  0  0  0
   20.0328   21.2139   20.9475 H   0  0  0  0  0  0  0  0  0  0  0  0
  1  2  1  0  0  0  0
  1  3  2  0  0  0  0
  1  4  1  0  0  0  0
  4  5  1  0  0  0  0
  4  6  1  0  0  0  0
  4  7  1  0  0  0  0
  7  8  1  0  0  0  0
  7  9  2  0  0  0  0
  9 10  1  0  0  0  0
  9 11  1  0  0  0  0
 11 12  1  0  0  0  0
 11 13  1  0  0  0  0
 11 14  1  0  0  0  0
 14 15  1  0  0  0  0
 14 16  1  0  0  0  0
 14 17  1  0  0  0  0
M  END
> <VConfSearch Rank>
228

> <Conf_Id>
19

> <Delta U+W>
-0.496

> <U+W>
-49.923

> <U>
13.863

> <W>
-63.786

> <W(PB)>
-65.856

> <W(SA)>
2.070

> <Valence>
14.117

> <Coulomb>
-1.228

> <VdW>
0.974

> <VdW6>
-4.885

> <VdW12>
5.859

> <Bond>
0.094

> <Angle>
2.818

> <Pdih>
11.205

> <Idih>
0.000

> <Tether>
0.000

$$$$
VeraChem MOL file


 17 16  0  0  0  0  0  0  0  0999 V2000     
   22.8780   18.6380   23.2307 C   0  0  0  0  0  0  0  0  0  0  0  0
   22.9456   19.4486   24.1336 O   0  5  0  0  0  0  0  0  0  0  0  0
   23.2424   17.4834   23.3356 O   0  0  0  0  0  0  0  0  0  0  0  0
   22.3162   19.0945   21.8906 C   0  0  0  0  0  0  0  0  0  0  0  0
   22.9401   18.6601   21.1009 H   0  0  0  0  0  0  0  0  0  0  0  0
   22.4274   20.1835   21.8249 H   0  0  0  0  0  0  0  0  0  0  0  0
   20.8692   18.6831   21.6969 C   0  0  0  0  0  0  0  0  0  0  0  0
   20.7000   17.6115   21.5958 H   0  0  0  0  0  0  0  0  0  0  0  0
   19.8439   19.5394   21.6552 C   0  0  0  0  0  0  0  0  0  0  0  0
   20.0131   20.6104   21.7615 H   0  0  0  0  0  0  0  0  0  0  0  0
   18.4014   19.1268   21.4649 C   0  0  0  0  0  0  0  0  0  0  0  0
   17.9373   19.7483   20.6871 H   0  0  0  0  0  0  0  0  0  0  0  0
   18.3419   18.0870   21.1149 H   0  0  0  0  0  0  0  0  0  0  0  0
   17.6073   19.2689   22.7780 C   0  0  0  0  0  0  0  0  0  0  0  0
   17.6173   20.3084   23.1311 H   0  0  0  0  0  0  0  0  0  0  0  0
   16.5615   18.9678   22.6343 H   0  0  0  0  0  0  0  0  0  0  0  0
   18.0392   18.6364   23.5648 H   0  0  0  0  0  0  0  0  0  0  0  0
  1  2  1  0  0  0  0
  1  3  2  0  0  0  0
  1  4  1  0  0  0  0
  4  5  1  0  0  0  0
  4  6  1  0  0  0  0
  4  7  1  0  0  0  0
  7  8  1  0  0  0  0
  7  9  2  0  0  0  0
  9 10  1  0  0  0  0
  9 11  1  0  0  0  0
 11 12  1  0  0  0  0
 11 13  1  0  0  0  0
 11 14  1  0  0  0  0
 14 15  1  0  0  0  0
 14 16  1  0  0  0  0
 14 17  1  0  0  0  0
M  END
> <VConfSearch Rank>
229

> <Conf_Id>
7

> <Delta U+W>
-0.041

> <U+W>
-49.468

> <U>
14.121

> <W>
-63.589

> <W(PB)>
-65.660

> <W(SA)>
2.071

> <Valence>
15.230

> <Coulomb>
-1.333

> <VdW>
0.224

> <VdW6>
-4.212

> <VdW12>
4.436

> <Bond>
0.044

> <Angle>
2.230

> <Pdih>
12.956

> <Idih>
0.000

> <Tether>
0.000

$$$$
VeraChem MOL file


 17 16  0  0  0  0  0  0  0  0999 V2000     
   22.3381   17.6515   21.9167 C   0  0  0  0  0  0  0  0  0  0  0  0
   21.9855   16.9843   20.9641 O   0  5  0  0  0  0  0  0  0  0  0  0
   22.7261   17.1732   22.9644 O   0  0  0  0  0  0  0  0  0  0  0  0
   22.3190   19.1709   21.7805 C   0  0  0  0  0  0  0  0  0  0  0  0
   22.5310   19.4175   20.7336 H   0  0  0  0  0  0  0  0  0  0  0  0
   23.1591   19.5705   22.3604 H   0  0  0  0  0  0  0  0  0  0  0  0
   21.0293   19.8533   22.2141 C   0  0  0  0  0  0  0  0  0  0  0  0
   21.0371   20.9375   22.1088 H   0  0  0  0  0  0  0  0  0  0  0  0
   19.9380   19.2427   22.6908 C   0  0  0  0  0  0  0  0  0  0  0  0
   19.9037   18.1599   22.8052 H   0  0  0  0  0  0  0  0  0  0  0  0
   18.6793   19.9693   23.1099 C   0  0  0  0  0  0  0  0  0  0  0  0
   18.3544   19.6091   24.0954 H   0  0  0  0  0  0  0  0  0  0  0  0
   18.8730   21.0456   23.2160 H   0  0  0  0  0  0  0  0  0  0  0  0
   17.5483   19.7534   22.0856 C   0  0  0  0  0  0  0  0  0  0  0  0
   16.6372   20.2816   22.3954 H   0  0  0  0  0  0  0  0  0  0  0  0
   17.8411   20.1299   21.0966 H   0  0  0  0  0  0  0  0  0  0  0  0
   17.3073   18.6867   21.9876 H   0  0  0  0  0  0  0  0  0  0  0  0
  1  2  1  0  0  0  0
  1  3  2  0  0  0  0
  1  4  1  0  0  0  0
  4  5  1  0  0  0  0
  4  6  1  0  0  0  0
  4  7  1  0  0  0  0
  7  8  1  0  0  0  0
  7  9  2  0  0  0  0
  9 10  1  0  0  0  0
  9 11  1  0  0  0  0
 11 12  1  0  0  0  0
 11 13  1  0  0  0  0
 11 14  1  0  0  0  0
 14 15  1  0  0  0  0
 14 16  1  0  0  0  0
 14 17  1  0  0  0  0
M  END
> <VConfSearch Rank>
230

> <Conf_Id>
39

> <Delta U+W>
-0.422

> <U+W>
-49.849

> <U>
14.465

> <W>
-64.314

> <W(PB)>
-66.406

> <W(SA)>
2.093

> <Valence>
14.072

> <Coulomb>
-0.199

> <VdW>
0.592

> <VdW6>
-5.019

> <VdW12>
5.611

> <Bond>
0.085

> <Angle>
2.748

> <Pdih>
11.238

> <Idih>
0.001

> <Tether>
0.000

$$$$
VeraChem MOL file


 17 16  0  0  0  0  0  0  0  0999 V2000     
   19.5129   16.2604   21.3428 C   0  0  0  0  0  0  0  0  0  0  0  0
   20.4759   15.5638   21.0890 O   0  5  0  0  0  0  0  0  0  0  0  0
   18.4638   16.2051   20.7319 O   0  0  0  0  0  0  0  0  0  0  0  0
   19.6273   17.2520   22.4931 C   0  0  0  0  0  0  0  0  0  0  0  0
   20.1639   16.7564   23.3104 H   0  0  0  0  0  0  0  0  0  0  0  0
   18.6170   17.4710   22.8591 H   0  0  0  0  0  0  0  0  0  0  0  0
   20.3485   18.5250   22.0930 C   0  0  0  0  0  0  0  0  0  0  0  0
   21.4086   18.4084   21.8698 H   0  0  0  0  0  0  0  0  0  0  0  0
   19.7638   19.7236   22.0054 C   0  0  0  0  0  0  0  0  0  0  0  0
   18.7031   19.8390   22.2258 H   0  0  0  0  0  0  0  0  0  0  0  0
   20.4837   20.9912   21.6026 C   0  0  0  0  0  0  0  0  0  0  0  0
   21.4588   20.7540   21.1552 H   0  0  0  0  0  0  0  0  0  0  0  0
   19.9037   21.5183   20.8330 H   0  0  0  0  0  0  0  0  0  0  0  0
   20.6912   21.9195   22.8152 C   0  0  0  0  0  0  0  0  0  0  0  0
   21.2915   21.4223   23.5885 H   0  0  0  0  0  0  0  0  0  0  0  0
   21.2134   22.8378   22.5166 H   0  0  0  0  0  0  0  0  0  0  0  0
   19.7286   22.2043   23.2598 H   0  0  0  0  0  0  0  0  0  0  0  0
  1  2  1  0  0  0  0
  1  3  2  0  0  0  0
  1  4  1  0  0  0  0
  4  5  1  0  0  0  0
  4  6  1  0  0  0  0
  4  7  1  0  0  0  0
  7  8  1  0  0  0  0
  7  9  2  0  0  0  0
  9 10  1  0  0  0  0
  9 11  1  0  0  0  0
 11 12  1  0  0  0  0
 11 13  1  0  0  0  0
 11 14  1  0  0  0  0
 14 15  1  0  0  0  0
 14 16  1  0  0  0  0
 14 17  1  0  0  0  0
M  END
> <VConfSearch Rank>
231

> <Conf_Id>
38

> <Delta U+W>
0.000

> <U+W>
-49.427

> <U>
13.666

> <W>
-63.093

> <W(PB)>
-65.225

> <W(SA)>
2.132

> <Valence>
15.226

> <Coulomb>
-1.822

> <VdW>
0.261

> <VdW6>
-4.165

> <VdW12>
4.426

> <Bond>
0.044

> <Angle>
2.229

> <Pdih>
12.953

> <Idih>
0.000

> <Tether>
0.000

$$$$
VeraChem MOL file


 17 16  0  0  0  0  0  0  0  0999 V2000     
   21.1871   16.5782   23.3582 C   0  0  0  0  0  0  0  0  0  0  0  0
   21.1488   16.6594   24.5701 O   0  5  0  0  0  0  0  0  0  0  0  0
   22.0800   16.0216   22.7499 O   0  0  0  0  0  0  0  0  0  0  0  0
   20.0528   17.2025   22.5563 C   0  0  0  0  0  0  0  0  0  0  0  0
   19.1704   17.2683   23.2042 H   0  0  0  0  0  0  0  0  0  0  0  0
   19.8011   16.5147   21.7407 H   0  0  0  0  0  0  0  0  0  0  0  0
   20.4183   18.5636   21.9957 C   0  0  0  0  0  0  0  0  0  0  0  0
   21.1838   18.5569   21.2203 H   0  0  0  0  0  0  0  0  0  0  0  0
   19.8681   19.7136   22.3969 C   0  0  0  0  0  0  0  0  0  0  0  0
   19.1050   19.7199   23.1745 H   0  0  0  0  0  0  0  0  0  0  0  0
   20.2367   21.0704   21.8394 C   0  0  0  0  0  0  0  0  0  0  0  0
   20.4194   21.7727   22.6640 H   0  0  0  0  0  0  0  0  0  0  0  0
   21.1712   21.0089   21.2648 H   0  0  0  0  0  0  0  0  0  0  0  0
   19.1168   21.6203   20.9347 C   0  0  0  0  0  0  0  0  0  0  0  0
   18.1786   21.7285   21.4946 H   0  0  0  0  0  0  0  0  0  0  0  0
   19.3897   22.6052   20.5338 H   0  0  0  0  0  0  0  0  0  0  0  0
   18.9338   20.9463   20.0875 H   0  0  0  0  0  0  0  0  0  0  0  0
  1  2  1  0  0  0  0
  1  3  2  0  0  0  0
  1  4  1  0  0  0  0
  4  5  1  0  0  0  0
  4  6  1  0  0  0  0
  4  7  1  0  0  0  0
  7  8  1  0  0  0  0
  7  9  2  0  0  0  0
  9 10  1  0  0  0  0
  9 11  1  0  0  0  0
 11 12  1  0  0  0  0
 11 13  1  0  0  0  0
 11 14  1  0  0  0  0
 14 15  1  0  0  0  0
 14 16  1  0  0  0  0
 14 17  1  0  0  0  0
M  END
> <VConfSearch Rank>
232

> <Conf_Id>
35

> <Delta U+W>
-0.102

> <U+W>
-49.529

> <U>
13.666

> <W>
-63.195

> <W(PB)>
-65.299

> <W(SA)>
2.103

> <Valence>
15.226

> <Coulomb>
-1.822

> <VdW>
0.261

> <VdW6>
-4.165

> <VdW12>
4.426

> <Bond>
0.044

> <Angle>
2.229

> <Pdih>
12.953

> <Idih>
0.000

> <Tether>
0.000

$$$$
VeraChem MOL file


 17 16  0  0  0  0  0  0  0  0999 V2000     
   17.3778   19.8675   22.0563 C   0  0  0  0  0  0  0  0  0  0  0  0
   17.0031   20.2735   23.1388 O   0  5  0  0  0  0  0  0  0  0  0  0
   17.1221   20.4218   21.0055 O   0  0  0  0  0  0  0  0  0  0  0  0
   18.2047   18.5891   22.0159 C   0  0  0  0  0  0  0  0  0  0  0  0
   18.0920   18.1390   21.0223 H   0  0  0  0  0  0  0  0  0  0  0  0
   17.7707   17.8868   22.7369 H   0  0  0  0  0  0  0  0  0  0  0  0
   19.6662   18.8327   22.3417 C   0  0  0  0  0  0  0  0  0  0  0  0
   19.8587   19.1309   23.3708 H   0  0  0  0  0  0  0  0  0  0  0  0
   20.6608   18.7047   21.4544 C   0  0  0  0  0  0  0  0  0  0  0  0
   20.4291   18.4086   20.4318 H   0  0  0  0  0  0  0  0  0  0  0  0
   22.1406   18.9356   21.7103 C   0  0  0  0  0  0  0  0  0  0  0  0
   22.6927   18.0188   21.4632 H   0  0  0  0  0  0  0  0  0  0  0  0
   22.5082   19.6989   21.0112 H   0  0  0  0  0  0  0  0  0  0  0  0
   22.4942   19.3626   23.1521 C   0  0  0  0  0  0  0  0  0  0  0  0
   22.1890   18.5958   23.8762 H   0  0  0  0  0  0  0  0  0  0  0  0
   23.5771   19.5101   23.2552 H   0  0  0  0  0  0  0  0  0  0  0  0
   21.9998   20.3069   23.4157 H   0  0  0  0  0  0  0  0  0  0  0  0
  1  2  1  0  0  0  0
  1  3  2  0  0  0  0
  1  4  1  0  0  0  0
  4  5  1  0  0  0  0
  4  6  1  0  0  0  0
  4  7  1  0  0  0  0
  7  8  1  0  0  0  0
  7  9  2  0  0  0  0
  9 10  1  0  0  0  0
  9 11  1  0  0  0  0
 11 12  1  0  0  0  0
 11 13  1  0  0  0  0
 11 14  1  0  0  0  0
 14 15  1  0  0  0  0
 14 16  1  0  0  0  0
 14 17  1  0  0  0  0
M  END
> <VConfSearch Rank>
233

> <Conf_Id>
19

> <Delta U+W>
-0.496

> <U+W>
-49.923

> <U>
13.863

> <W>
-63.786

> <W(PB)>
-65.856

> <W(SA)>
2.070

> <Valence>
14.117

> <Coulomb>
-1.228

> <VdW>
0.974

> <VdW6>
-4.885

> <VdW12>
5.859

> <Bond>
0.094

> <Angle>
2.818

> <Pdih>
11.205

> <Idih>
0.000

> <Tether>
0.000

$$$$
VeraChem MOL file


 17 16  0  0  0  0  0  0  0  0999 V2000     
   21.1151   19.3132   19.4475 C   0  0  0  0  0  0  0  0  0  0  0  0
   20.3251   20.1039   18.9708 O   0  5  0  0  0  0  0  0  0  0  0  0
   22.3184   19.3912   19.2959 O   0  0  0  0  0  0  0  0  0  0  0  0
   20.5692   18.1542   20.2714 C   0  0  0  0  0  0  0  0  0  0  0  0
   21.1296   17.2538   19.9947 H   0  0  0  0  0  0  0  0  0  0  0  0
   19.5261   17.9859   19.9777 H   0  0  0  0  0  0  0  0  0  0  0  0
   20.6810   18.3993   21.7641 C   0  0  0  0  0  0  0  0  0  0  0  0
   21.6972   18.4228   22.1566 H   0  0  0  0  0  0  0  0  0  0  0  0
   19.6353   18.5860   22.5751 C   0  0  0  0  0  0  0  0  0  0  0  0
   18.6197   18.5675   22.1812 H   0  0  0  0  0  0  0  0  0  0  0  0
   19.7492   18.8331   24.0628 C   0  0  0  0  0  0  0  0  0  0  0  0
   19.0552   18.1746   24.6025 H   0  0  0  0  0  0  0  0  0  0  0  0
   20.7592   18.5855   24.4174 H   0  0  0  0  0  0  0  0  0  0  0  0
   19.4346   20.3024   24.4054 C   0  0  0  0  0  0  0  0  0  0  0  0
   18.4148   20.5669   24.0964 H   0  0  0  0  0  0  0  0  0  0  0  0
   19.5192   20.4762   25.4860 H   0  0  0  0  0  0  0  0  0  0  0  0
   20.1327   20.9794   23.8955 H   0  0  0  0  0  0  0  0  0  0  0  0
  1  2  1  0  0  0  0
  1  3  2  0  0  0  0
  1  4  1  0  0  0  0
  4  5  1  0  0  0  0
  4  6  1  0  0  0  0
  4  7  1  0  0  0  0
  7  8  1  0  0  0  0
  7  9  2  0  0  0  0
  9 10  1  0  0  0  0
  9 11  1  0  0  0  0
 11 12  1  0  0  0  0
 11 13  1  0  0  0  0
 11 14  1  0  0  0  0
 14 15  1  0  0  0  0
 14 16  1  0  0  0  0
 14 17  1  0  0  0  0
M  END
> <VConfSearch Rank>
234

> <Conf_Id>
7

> <Delta U+W>
-0.041

> <U+W>
-49.468

> <U>
14.121

> <W>
-63.589

> <W(PB)>
-65.660

> <W(SA)>
2.071

> <Valence>
15.230

> <Coulomb>
-1.333

> <VdW>
0.224

> <VdW6>
-4.212

> <VdW12>
4.436

> <Bond>
0.044

> <Angle>
2.230

> <Pdih>
12.956

> <Idih>
0.000

> <Tether>
0.000

$$$$
VeraChem MOL file


 17 16  0  0  0  0  0  0  0  0999 V2000     
   22.7308   18.4043   22.5939 C   0  0  0  0  0  0  0  0  0  0  0  0
   22.6656   17.8915   23.6938 O   0  5  0  0  0  0  0  0  0  0  0  0
   23.5409   19.2612   22.2997 O   0  0  0  0  0  0  0  0  0  0  0  0
   21.7621   17.9268   21.5163 C   0  0  0  0  0  0  0  0  0  0  0  0
   21.5521   16.8664   21.6988 H   0  0  0  0  0  0  0  0  0  0  0  0
   22.2839   17.9693   20.5531 H   0  0  0  0  0  0  0  0  0  0  0  0
   20.4528   18.6972   21.4217 C   0  0  0  0  0  0  0  0  0  0  0  0
   19.7763   18.3401   20.6462 H   0  0  0  0  0  0  0  0  0  0  0  0
   20.0915   19.7318   22.1898 C   0  0  0  0  0  0  0  0  0  0  0  0
   20.7489   20.1079   22.9729 H   0  0  0  0  0  0  0  0  0  0  0  0
   18.7759   20.4655   22.0536 C   0  0  0  0  0  0  0  0  0  0  0  0
   18.9558   21.5490   22.0384 H   0  0  0  0  0  0  0  0  0  0  0  0
   18.2911   20.2133   21.1004 H   0  0  0  0  0  0  0  0  0  0  0  0
   17.8257   20.1189   23.2163 C   0  0  0  0  0  0  0  0  0  0  0  0
   16.8733   20.6551   23.1131 H   0  0  0  0  0  0  0  0  0  0  0  0
   17.6105   19.0424   23.2361 H   0  0  0  0  0  0  0  0  0  0  0  0
   18.2702   20.3964   24.1811 H   0  0  0  0  0  0  0  0  0  0  0  0
  1  2  1  0  0  0  0
  1  3  2  0  0  0  0
  1  4  1  0  0  0  0
  4  5  1  0  0  0  0
  4  6  1  0  0  0  0
  4  7  1  0  0  0  0
  7  8  1  0  0  0  0
  7  9  2  0  0  0  0
  9 10  1  0  0  0  0
  9 11  1  0  0  0  0
 11 12  1  0  0  0  0
 11 13  1  0  0  0  0
 11 14  1  0  0  0  0
 14 15  1  0  0  0  0
 14 16  1  0  0  0  0
 14 17  1  0  0  0  0
M  END
> <VConfSearch Rank>
235

> <Conf_Id>
39

> <Delta U+W>
-0.422

> <U+W>
-49.849

> <U>
14.465

> <W>
-64.314

> <W(PB)>
-66.406

> <W(SA)>
2.093

> <Valence>
14.072

> <Coulomb>
-0.199

> <VdW>
0.592

> <VdW6>
-5.019

> <VdW12>
5.611

> <Bond>
0.085

> <Angle>
2.748

> <Pdih>
11.238

> <Idih>
0.001

> <Tether>
0.000

$$$$
VeraChem MOL file


 17 16  0  0  0  0  0  0  0  0999 V2000     
   18.2966   16.8358   21.2174 C   0  0  0  0  0  0  0  0  0  0  0  0
   18.3200   16.5432   20.0381 O   0  5  0  0  0  0  0  0  0  0  0  0
   17.2862   16.8251   21.8925 O   0  0  0  0  0  0  0  0  0  0  0  0
   19.6070   17.2319   21.8849 C   0  0  0  0  0  0  0  0  0  0  0  0
   20.3892   16.5605   21.5120 H   0  0  0  0  0  0  0  0  0  0  0  0
   19.5129   17.0477   22.9618 H   0  0  0  0  0  0  0  0  0  0  0  0
   19.9854   18.6750   21.6112 C   0  0  0  0  0  0  0  0  0  0  0  0
   20.2523   18.8980   20.5786 H   0  0  0  0  0  0  0  0  0  0  0  0
   20.0010   19.6364   22.5395 C   0  0  0  0  0  0  0  0  0  0  0  0
   19.7310   19.4134   23.5712 H   0  0  0  0  0  0  0  0  0  0  0  0
   20.3748   21.0757   22.2639 C   0  0  0  0  0  0  0  0  0  0  0  0
   20.3793   21.2715   21.1828 H   0  0  0  0  0  0  0  0  0  0  0  0
   19.6220   21.7447   22.7023 H   0  0  0  0  0  0  0  0  0  0  0  0
   21.7613   21.4095   22.8483 C   0  0  0  0  0  0  0  0  0  0  0  0
   22.5355   20.7694   22.4051 H   0  0  0  0  0  0  0  0  0  0  0  0
   22.0267   22.4552   22.6458 H   0  0  0  0  0  0  0  0  0  0  0  0
   21.7744   21.2591   23.9358 H   0  0  0  0  0  0  0  0  0  0  0  0
  1  2  1  0  0  0  0
  1  3  2  0  0  0  0
  1  4  1  0  0  0  0
  4  5  1  0  0  0  0
  4  6  1  0  0  0  0
  4  7  1  0  0  0  0
  7  8  1  0  0  0  0
  7  9  2  0  0  0  0
  9 10  1  0  0  0  0
  9 11  1  0  0  0  0
 11 12  1  0  0  0  0
 11 13  1  0  0  0  0
 11 14  1  0  0  0  0
 14 15  1  0  0  0  0
 14 16  1  0  0  0  0
 14 17  1  0  0  0  0
M  END
> <VConfSearch Rank>
236

> <Conf_Id>
38

> <Delta U+W>
0.000

> <U+W>
-49.427

> <U>
13.666

> <W>
-63.093

> <W(PB)>
-65.225

> <W(SA)>
2.132

> <Valence>
15.226

> <Coulomb>
-1.822

> <VdW>
0.261

> <VdW6>
-4.165

> <VdW12>
4.426

> <Bond>
0.044

> <Angle>
2.229

> <Pdih>
12.953

> <Idih>
0.000

> <Tether>
0.000

$$$$
VeraChem MOL file


 17 16  0  0  0  0  0  0  0  0999 V2000     
   17.0848   19.7583   22.9819 C   0  0  0  0  0  0  0  0  0  0  0  0
   16.9877   19.5859   24.1810 O   0  5  0  0  0  0  0  0  0  0  0  0
   16.2266   19.4342   22.1848 O   0  0  0  0  0  0  0  0  0  0  0  0
   18.3475   20.4212   22.4474 C   0  0  0  0  0  0  0  0  0  0  0  0
   18.7928   21.0133   23.2561 H   0  0  0  0  0  0  0  0  0  0  0  0
   18.0495   21.1248   21.6616 H   0  0  0  0  0  0  0  0  0  0  0  0
   19.3425   19.4171   21.8975 C   0  0  0  0  0  0  0  0  0  0  0  0
   19.0299   18.9021   20.9895 H   0  0  0  0  0  0  0  0  0  0  0  0
   20.5270   19.1503   22.4560 C   0  0  0  0  0  0  0  0  0  0  0  0
   20.8376   19.6633   23.3656 H   0  0  0  0  0  0  0  0  0  0  0  0
   21.5162   18.1458   21.9084 C   0  0  0  0  0  0  0  0  0  0  0  0
   21.8631   17.4884   22.7171 H   0  0  0  0  0  0  0  0  0  0  0  0
   21.0344   17.4997   21.1616 H   0  0  0  0  0  0  0  0  0  0  0  0
   22.7258   18.8530   21.2665 C   0  0  0  0  0  0  0  0  0  0  0  0
   23.2501   19.4773   22.0019 H   0  0  0  0  0  0  0  0  0  0  0  0
   23.4403   18.1191   20.8717 H   0  0  0  0  0  0  0  0  0  0  0  0
   22.4057   19.4973   20.4371 H   0  0  0  0  0  0  0  0  0  0  0  0
  1  2  1  0  0  0  0
  1  3  2  0  0  0  0
  1  4  1  0  0  0  0
  4  5  1  0  0  0  0
  4  6  1  0  0  0  0
  4  7  1  0  0  0  0
  7  8  1  0  0  0  0
  7  9  2  0  0  0  0
  9 10  1  0  0  0  0
  9 11  1  0  0  0  0
 11 12  1  0  0  0  0
 11 13  1  0  0  0  0
 11 14  1  0  0  0  0
 14 15  1  0  0  0  0
 14 16  1  0  0  0  0
 14 17  1  0  0  0  0
M  END
> <VConfSearch Rank>
237

> <Conf_Id>
35

> <Delta U+W>
-0.102

> <U+W>
-49.529

> <U>
13.666

> <W>
-63.195

> <W(PB)>
-65.299

> <W(SA)>
2.103

> <Valence>
15.226

> <Coulomb>
-1.822

> <VdW>
0.261

> <VdW6>
-4.165

> <VdW12>
4.426

> <Bond>
0.044

> <Angle>
2.229

> <Pdih>
12.953

> <Idih>
0.000

> <Tether>
0.000

$$$$
VeraChem MOL file


 17 16  0  0  0  0  0  0  0  0999 V2000     
   19.9174   21.7526   20.9500 C   0  0  0  0  0  0  0  0  0  0  0  0
   19.7312   21.6263   19.7557 O   0  5  0  0  0  0  0  0  0  0  0  0
   19.2731   22.5043   21.6547 O   0  0  0  0  0  0  0  0  0  0  0  0
   21.0253   20.9302   21.5948 C   0  0  0  0  0  0  0  0  0  0  0  0
   21.3466   21.4444   22.5086 H   0  0  0  0  0  0  0  0  0  0  0  0
   21.8817   20.9275   20.9107 H   0  0  0  0  0  0  0  0  0  0  0  0
   20.5930   19.5069   21.8932 C   0  0  0  0  0  0  0  0  0  0  0  0
   20.4119   18.8931   21.0126 H   0  0  0  0  0  0  0  0  0  0  0  0
   20.4331   19.0184   23.1295 C   0  0  0  0  0  0  0  0  0  0  0  0
   20.6194   19.6642   23.9869 H   0  0  0  0  0  0  0  0  0  0  0  0
   20.0006   17.6096   23.4997 C   0  0  0  0  0  0  0  0  0  0  0  0
   20.7719   17.1554   24.1364 H   0  0  0  0  0  0  0  0  0  0  0  0
   19.0985   17.6663   24.1239 H   0  0  0  0  0  0  0  0  0  0  0  0
   19.7242   16.6760   22.3006 C   0  0  0  0  0  0  0  0  0  0  0  0
   20.6229   16.5523   21.6822 H   0  0  0  0  0  0  0  0  0  0  0  0
   19.4171   15.6816   22.6498 H   0  0  0  0  0  0  0  0  0  0  0  0
   18.9190   17.0739   21.6691 H   0  0  0  0  0  0  0  0  0  0  0  0
  1  2  1  0  0  0  0
  1  3  2  0  0  0  0
  1  4  1  0  0  0  0
  4  5  1  0  0  0  0
  4  6  1  0  0  0  0
  4  7  1  0  0  0  0
  7  8  1  0  0  0  0
  7  9  2  0  0  0  0
  9 10  1  0  0  0  0
  9 11  1  0  0  0  0
 11 12  1  0  0  0  0
 11 13  1  0  0  0  0
 11 14  1  0  0  0  0
 14 15  1  0  0  0  0
 14 16  1  0  0  0  0
 14 17  1  0  0  0  0
M  END
> <VConfSearch Rank>
238

> <Conf_Id>
19

> <Delta U+W>
-0.496

> <U+W>
-49.923

> <U>
13.863

> <W>
-63.786

> <W(PB)>
-65.856

> <W(SA)>
2.070

> <Valence>
14.117

> <Coulomb>
-1.228

> <VdW>
0.974

> <VdW6>
-4.885

> <VdW12>
5.859

> <Bond>
0.094

> <Angle>
2.818

> <Pdih>
11.205

> <Idih>
0.000

> <Tether>
0.000

$$$$
VeraChem MOL file


 17 16  0  0  0  0  0  0  0  0999 V2000     
   19.0622   16.5776   23.3229 C   0  0  0  0  0  0  0  0  0  0  0  0
   20.0480   15.8706   23.3950 O   0  5  0  0  0  0  0  0  0  0  0  0
   18.2531   16.6961   24.2220 O   0  0  0  0  0  0  0  0  0  0  0  0
   18.8197   17.3496   22.0326 C   0  0  0  0  0  0  0  0  0  0  0  0
   17.7510   17.2825   21.7983 H   0  0  0  0  0  0  0  0  0  0  0  0
   19.3583   16.8427   21.2230 H   0  0  0  0  0  0  0  0  0  0  0  0
   19.2395   18.8034   22.1380 C   0  0  0  0  0  0  0  0  0  0  0  0
   18.6413   19.4123   22.8152 H   0  0  0  0  0  0  0  0  0  0  0  0
   20.2675   19.3385   21.4724 C   0  0  0  0  0  0  0  0  0  0  0  0
   20.8686   18.7280   20.7993 H   0  0  0  0  0  0  0  0  0  0  0  0
   20.6863   20.7877   21.5812 C   0  0  0  0  0  0  0  0  0  0  0  0
   20.8288   21.2091   20.5768 H   0  0  0  0  0  0  0  0  0  0  0  0
   19.8968   21.3809   22.0630 H   0  0  0  0  0  0  0  0  0  0  0  0
   21.9925   20.9273   22.3871 C   0  0  0  0  0  0  0  0  0  0  0  0
   22.8103   20.3748   21.9062 H   0  0  0  0  0  0  0  0  0  0  0  0
   22.2915   21.9808   22.4633 H   0  0  0  0  0  0  0  0  0  0  0  0
   21.8664   20.5343   23.4046 H   0  0  0  0  0  0  0  0  0  0  0  0
  1  2  1  0  0  0  0
  1  3  2  0  0  0  0
  1  4  1  0  0  0  0
  4  5  1  0  0  0  0
  4  6  1  0  0  0  0
  4  7  1  0  0  0  0
  7  8  1  0  0  0  0
  7  9  2  0  0  0  0
  9 10  1  0  0  0  0
  9 11  1  0  0  0  0
 11 12  1  0  0  0  0
 11 13  1  0  0  0  0
 11 14  1  0  0  0  0
 14 15  1  0  0  0  0
 14 16  1  0  0  0  0
 14 17  1  0  0  0  0
M  END
> <VConfSearch Rank>
239

> <Conf_Id>
7

> <Delta U+W>
-0.041

> <U+W>
-49.468

> <U>
14.121

> <W>
-63.589

> <W(PB)>
-65.660

> <W(SA)>
2.071

> <Valence>
15.230

> <Coulomb>
-1.333

> <VdW>
0.224

> <VdW6>
-4.212

> <VdW12>
4.436

> <Bond>
0.044

> <Angle>
2.230

> <Pdih>
12.956

> <Idih>
0.000

> <Tether>
0.000

$$$$
VeraChem MOL file


 17 16  0  0  0  0  0  0  0  0999 V2000     
   19.8813   18.5302   19.6179 C   0  0  0  0  0  0  0  0  0  0  0  0
   21.0207   18.1909   19.3659 O   0  5  0  0  0  0  0  0  0  0  0  0
   19.2661   19.3519   18.9671 O   0  0  0  0  0  0  0  0  0  0  0  0
   19.1754   17.8689   20.7977 C   0  0  0  0  0  0  0  0  0  0  0  0
   19.5549   16.8442   20.8853 H   0  0  0  0  0  0  0  0  0  0  0  0
   18.1129   17.7761   20.5440 H   0  0  0  0  0  0  0  0  0  0  0  0
   19.3205   18.5826   22.1342 C   0  0  0  0  0  0  0  0  0  0  0  0
   18.8090   18.0940   22.9625 H   0  0  0  0  0  0  0  0  0  0  0  0
   20.0021   19.7135   22.3522 C   0  0  0  0  0  0  0  0  0  0  0  0
   20.5231   20.2217   21.5417 H   0  0  0  0  0  0  0  0  0  0  0  0
   20.1142   20.3845   23.7032 C   0  0  0  0  0  0  0  0  0  0  0  0
   19.8990   21.4570   23.6031 H   0  0  0  0  0  0  0  0  0  0  0  0
   19.3679   19.9769   24.3989 H   0  0  0  0  0  0  0  0  0  0  0  0
   21.5229   20.1968   24.2993 C   0  0  0  0  0  0  0  0  0  0  0  0
   21.5991   20.6867   25.2787 H   0  0  0  0  0  0  0  0  0  0  0  0
   21.7509   19.1310   24.4326 H   0  0  0  0  0  0  0  0  0  0  0  0
   22.2875   20.6300   23.6411 H   0  0  0  0  0  0  0  0  0  0  0  0
  1  2  1  0  0  0  0
  1  3  2  0  0  0  0
  1  4  1  0  0  0  0
  4  5  1  0  0  0  0
  4  6  1  0  0  0  0
  4  7  1  0  0  0  0
  7  8  1  0  0  0  0
  7  9  2  0  0  0  0
  9 10  1  0  0  0  0
  9 11  1  0  0  0  0
 11 12  1  0  0  0  0
 11 13  1  0  0  0  0
 11 14  1  0  0  0  0
 14 15  1  0  0  0  0
 14 16  1  0  0  0  0
 14 17  1  0  0  0  0
M  END
> <VConfSearch Rank>
240

> <Conf_Id>
39

> <Delta U+W>
-0.422

> <U+W>
-49.849

> <U>
14.465

> <W>
-64.314

> <W(PB)>
-66.406

> <W(SA)>
2.093

> <Valence>
14.072

> <Coulomb>
-0.199

> <VdW>
0.592

> <VdW6>
-5.019

> <VdW12>
5.611

> <Bond>
0.085

> <Angle>
2.748

> <Pdih>
11.238

> <Idih>
0.001

> <Tether>
0.000

$$$$
VeraChem MOL file


 17 16  0  0  0  0  0  0  0  0999 V2000     
   18.2026   20.2461   19.7738 C   0  0  0  0  0  0  0  0  0  0  0  0
   17.1303   20.7107   20.1074 O   0  5  0  0  0  0  0  0  0  0  0  0
   18.3497   19.5194   18.8109 O   0  0  0  0  0  0  0  0  0  0  0  0
   19.4283   20.5994   20.6059 C   0  0  0  0  0  0  0  0  0  0  0  0
   19.3599   21.6613   20.8688 H   0  0  0  0  0  0  0  0  0  0  0  0
   20.3172   20.4819   19.9744 H   0  0  0  0  0  0  0  0  0  0  0  0
   19.5393   19.7578   21.8629 C   0  0  0  0  0  0  0  0  0  0  0  0
   18.7717   19.9406   22.6143 H   0  0  0  0  0  0  0  0  0  0  0  0
   20.4922   18.8447   22.0737 C   0  0  0  0  0  0  0  0  0  0  0  0
   21.2577   18.6603   21.3207 H   0  0  0  0  0  0  0  0  0  0  0  0
   20.5991   18.0038   23.3262 C   0  0  0  0  0  0  0  0  0  0  0  0
   19.6681   18.0592   23.9070 H   0  0  0  0  0  0  0  0  0  0  0  0
   20.7383   16.9488   23.0536 H   0  0  0  0  0  0  0  0  0  0  0  0
   21.7771   18.4669   24.2054 C   0  0  0  0  0  0  0  0  0  0  0  0
   21.6469   19.5131   24.5121 H   0  0  0  0  0  0  0  0  0  0  0  0
   21.8500   17.8526   25.1123 H   0  0  0  0  0  0  0  0  0  0  0  0
   22.7274   18.3856   23.6617 H   0  0  0  0  0  0  0  0  0  0  0  0
  1  2  1  0  0  0  0
  1  3  2  0  0  0  0
  1  4  1  0  0  0  0
  4  5  1  0  0  0  0
  4  6  1  0  0  0  0
  4  7  1  0  0  0  0
  7  8  1  0  0  0  0
  7  9  2  0  0  0  0
  9 10  1  0  0  0  0
  9 11  1  0  0  0  0
 11 12  1  0  0  0  0
 11 13  1  0  0  0  0
 11 14  1  0  0  0  0
 14 15  1  0  0  0  0
 14 16  1  0  0  0  0
 14 17  1  0  0  0  0
M  END
> <VConfSearch Rank>
241

> <Conf_Id>
38

> <Delta U+W>
0.000

> <U+W>
-49.427

> <U>
13.666

> <W>
-63.093

> <W(PB)>
-65.225

> <W(SA)>
2.132

> <Valence>
15.226

> <Coulomb>
-1.822

> <VdW>
0.261

> <VdW6>
-4.165

> <VdW12>
4.426

> <Bond>
0.044

> <Angle>
2.229

> <Pdih>
12.953

> <Idih>
0.000

> <Tether>
0.000

$$$$
VeraChem MOL file


 17 16  0  0  0  0  0  0  0  0999 V2000     
   22.4767   18.2837   20.2794 C   0  0  0  0  0  0  0  0  0  0  0  0
   22.0614   18.0815   19.1554 O   0  5  0  0  0  0  0  0  0  0  0  0
   23.3228   17.5966   20.8169 O   0  0  0  0  0  0  0  0  0  0  0  0
   21.9113   19.4652   21.0566 C   0  0  0  0  0  0  0  0  0  0  0  0
   21.5206   20.1942   20.3365 H   0  0  0  0  0  0  0  0  0  0  0  0
   22.7425   19.9484   21.5830 H   0  0  0  0  0  0  0  0  0  0  0  0
   20.8392   19.0501   22.0460 C   0  0  0  0  0  0  0  0  0  0  0  0
   21.1889   18.4520   22.8870 H   0  0  0  0  0  0  0  0  0  0  0  0
   19.5467   19.3705   21.9315 C   0  0  0  0  0  0  0  0  0  0  0  0
   19.1972   19.9660   21.0886 H   0  0  0  0  0  0  0  0  0  0  0  0
   18.4784   18.9524   22.9170 C   0  0  0  0  0  0  0  0  0  0  0  0
   17.6192   18.5329   22.3764 H   0  0  0  0  0  0  0  0  0  0  0  0
   18.8539   18.1583   23.5770 H   0  0  0  0  0  0  0  0  0  0  0  0
   18.0140   20.1483   23.7709 C   0  0  0  0  0  0  0  0  0  0  0  0
   17.5978   20.9432   23.1383 H   0  0  0  0  0  0  0  0  0  0  0  0
   17.2384   19.8389   24.4836 H   0  0  0  0  0  0  0  0  0  0  0  0
   18.8526   20.5690   24.3414 H   0  0  0  0  0  0  0  0  0  0  0  0
  1  2  1  0  0  0  0
  1  3  2  0  0  0  0
  1  4  1  0  0  0  0
  4  5  1  0  0  0  0
  4  6  1  0  0  0  0
  4  7  1  0  0  0  0
  7  8  1  0  0  0  0
  7  9  2  0  0  0  0
  9 10  1  0  0  0  0
  9 11  1  0  0  0  0
 11 12  1  0  0  0  0
 11 13  1  0  0  0  0
 11 14  1  0  0  0  0
 14 15  1  0  0  0  0
 14 16  1  0  0  0  0
 14 17  1  0  0  0  0
M  END
> <VConfSearch Rank>
242

> <Conf_Id>
35

> <Delta U+W>
-0.102

> <U+W>
-49.529

> <U>
13.666

> <W>
-63.195

> <W(PB)>
-65.299

> <W(SA)>
2.103

> <Valence>
15.226

> <Coulomb>
-1.822

> <VdW>
0.261

> <VdW6>
-4.165

> <VdW12>
4.426

> <Bond>
0.044

> <Angle>
2.229

> <Pdih>
12.953

> <Idih>
0.000

> <Tether>
0.000

$$$$
VeraChem MOL file


 17 16  0  0  0  0  0  0  0  0999 V2000     
   20.6358   20.2061   19.4998 C   0  0  0  0  0  0  0  0  0  0  0  0
   21.1004   21.3264   19.5787 O   0  5  0  0  0  0  0  0  0  0  0  0
   21.0499   19.3595   18.7325 O   0  0  0  0  0  0  0  0  0  0  0  0
   19.4650   19.8489   20.4059 C   0  0  0  0  0  0  0  0  0  0  0  0
   18.9088   19.0269   19.9396 H   0  0  0  0  0  0  0  0  0  0  0  0
   18.7916   20.7132   20.4391 H   0  0  0  0  0  0  0  0  0  0  0  0
   19.9083   19.4804   21.8092 C   0  0  0  0  0  0  0  0  0  0  0  0
   20.3273   20.3043   22.3843 H   0  0  0  0  0  0  0  0  0  0  0  0
   19.8101   18.2484   22.3243 C   0  0  0  0  0  0  0  0  0  0  0  0
   19.3893   17.4478   21.7169 H   0  0  0  0  0  0  0  0  0  0  0  0
   20.2362   17.8098   23.7152 C   0  0  0  0  0  0  0  0  0  0  0  0
   19.3701   17.3767   24.2336 H   0  0  0  0  0  0  0  0  0  0  0  0
   20.9643   16.9924   23.6237 H   0  0  0  0  0  0  0  0  0  0  0  0
   20.8420   18.9262   24.5942 C   0  0  0  0  0  0  0  0  0  0  0  0
   20.1202   19.7382   24.7526 H   0  0  0  0  0  0  0  0  0  0  0  0
   21.1242   18.5307   25.5785 H   0  0  0  0  0  0  0  0  0  0  0  0
   21.7435   19.3473   24.1301 H   0  0  0  0  0  0  0  0  0  0  0  0
  1  2  1  0  0  0  0
  1  3  2  0  0  0  0
  1  4  1  0  0  0  0
  4  5  1  0  0  0  0
  4  6  1  0  0  0  0
  4  7  1  0  0  0  0
  7  8  1  0  0  0  0
  7  9  2  0  0  0  0
  9 10  1  0  0  0  0
  9 11  1  0  0  0  0
 11 12  1  0  0  0  0
 11 13  1  0  0  0  0
 11 14  1  0  0  0  0
 14 15  1  0  0  0  0
 14 16  1  0  0  0  0
 14 17  1  0  0  0  0
M  END
> <VConfSearch Rank>
243

> <Conf_Id>
19

> <Delta U+W>
-0.496

> <U+W>
-49.923

> <U>
13.863

> <W>
-63.786

> <W(PB)>
-65.856

> <W(SA)>
2.070

> <Valence>
14.117

> <Coulomb>
-1.228

> <VdW>
0.974

> <VdW6>
-4.885

> <VdW12>
5.859

> <Bond>
0.094

> <Angle>
2.818

> <Pdih>
11.205

> <Idih>
0.000

> <Tether>
0.000

$$$$
VeraChem MOL file


 17 16  0  0  0  0  0  0  0  0999 V2000     
   22.0618   17.5276   23.8343 C   0  0  0  0  0  0  0  0  0  0  0  0
   22.5943   16.8176   23.0041 O   0  5  0  0  0  0  0  0  0  0  0  0
   22.6747   18.1467   24.6817 O   0  0  0  0  0  0  0  0  0  0  0  0
   20.5430   17.6409   23.8206 C   0  0  0  0  0  0  0  0  0  0  0  0
   20.1955   17.6061   24.8596 H   0  0  0  0  0  0  0  0  0  0  0  0
   20.1373   16.7553   23.3167 H   0  0  0  0  0  0  0  0  0  0  0  0
   20.0615   18.9148   23.1526 C   0  0  0  0  0  0  0  0  0  0  0  0
   20.2957   19.8361   23.6850 H   0  0  0  0  0  0  0  0  0  0  0  0
   19.4013   18.9506   21.9911 C   0  0  0  0  0  0  0  0  0  0  0  0
   19.1719   18.0293   21.4567 H   0  0  0  0  0  0  0  0  0  0  0  0
   18.9247   20.2222   21.3253 C   0  0  0  0  0  0  0  0  0  0  0  0
   17.8744   20.1115   21.0231 H   0  0  0  0  0  0  0  0  0  0  0  0
   18.9628   21.0633   22.0312 H   0  0  0  0  0  0  0  0  0  0  0  0
   19.7828   20.5548   20.0892 C   0  0  0  0  0  0  0  0  0  0  0  0
   19.7321   19.7463   19.3481 H   0  0  0  0  0  0  0  0  0  0  0  0
   19.4329   21.4785   19.6102 H   0  0  0  0  0  0  0  0  0  0  0  0
   20.8348   20.6943   20.3713 H   0  0  0  0  0  0  0  0  0  0  0  0
  1  2  1  0  0  0  0
  1  3  2  0  0  0  0
  1  4  1  0  0  0  0
  4  5  1  0  0  0  0
  4  6  1  0  0  0  0
  4  7  1  0  0  0  0
  7  8  1  0  0  0  0
  7  9  2  0  0  0  0
  9 10  1  0  0  0  0
  9 11  1  0  0  0  0
 11 12  1  0  0  0  0
 11 13  1  0  0  0  0
 11 14  1  0  0  0  0
 14 15  1  0  0  0  0
 14 16  1  0  0  0  0
 14 17  1  0  0  0  0
M  END
> <VConfSearch Rank>
244

> <Conf_Id>
7

> <Delta U+W>
-0.041

> <U+W>
-49.468

> <U>
14.121

> <W>
-63.589

> <W(PB)>
-65.660

> <W(SA)>
2.071

> <Valence>
15.230

> <Coulomb>
-1.333

> <VdW>
0.224

> <VdW6>
-4.212

> <VdW12>
4.436

> <Bond>
0.044

> <Angle>
2.230

> <Pdih>
12.956

> <Idih>
0.000

> <Tether>
0.000

$$$$
VeraChem MOL file


 17 16  0  0  0  0  0  0  0  0999 V2000     
   20.5984   17.5391   20.1682 C   0  0  0  0  0  0  0  0  0  0  0  0
   20.0600   16.5298   20.5787 O   0  5  0  0  0  0  0  0  0  0  0  0
   21.7529   17.5779   19.7904 O   0  0  0  0  0  0  0  0  0  0  0  0
   19.7726   18.8199   20.0969 C   0  0  0  0  0  0  0  0  0  0  0  0
   18.7333   18.5389   19.8899 H   0  0  0  0  0  0  0  0  0  0  0  0
   20.1106   19.3891   19.2232 H   0  0  0  0  0  0  0  0  0  0  0  0
   19.8248   19.7051   21.3341 C   0  0  0  0  0  0  0  0  0  0  0  0
   19.2286   20.6139   21.2620 H   0  0  0  0  0  0  0  0  0  0  0  0
   20.5176   19.4552   22.4515 C   0  0  0  0  0  0  0  0  0  0  0  0
   21.1210   18.5535   22.5498 H   0  0  0  0  0  0  0  0  0  0  0  0
   20.5370   20.3708   23.6553 C   0  0  0  0  0  0  0  0  0  0  0  0
   21.5733   20.5300   23.9830 H   0  0  0  0  0  0  0  0  0  0  0  0
   20.1339   21.3590   23.3942 H   0  0  0  0  0  0  0  0  0  0  0  0
   19.7167   19.7761   24.8165 C   0  0  0  0  0  0  0  0  0  0  0  0
   19.7353   20.4438   25.6876 H   0  0  0  0  0  0  0  0  0  0  0  0
   18.6694   19.6317   24.5199 H   0  0  0  0  0  0  0  0  0  0  0  0
   20.1220   18.8031   25.1240 H   0  0  0  0  0  0  0  0  0  0  0  0
  1  2  1  0  0  0  0
  1  3  2  0  0  0  0
  1  4  1  0  0  0  0
  4  5  1  0  0  0  0
  4  6  1  0  0  0  0
  4  7  1  0  0  0  0
  7  8  1  0  0  0  0
  7  9  2  0  0  0  0
  9 10  1  0  0  0  0
  9 11  1  0  0  0  0
 11 12  1  0  0  0  0
 11 13  1  0  0  0  0
 11 14  1  0  0  0  0
 14 15  1  0  0  0  0
 14 16  1  0  0  0  0
 14 17  1  0  0  0  0
M  END
> <VConfSearch Rank>
245

> <Conf_Id>
39

> <Delta U+W>
-0.422

> <U+W>
-49.849

> <U>
14.465

> <W>
-64.314

> <W(PB)>
-66.406

> <W(SA)>
2.093

> <Valence>
14.072

> <Coulomb>
-0.199

> <VdW>
0.592

> <VdW6>
-5.019

> <VdW12>
5.611

> <Bond>
0.085

> <Angle>
2.748

> <Pdih>
11.238

> <Idih>
0.001

> <Tether>
0.000

$$$$
VeraChem MOL file


 17 16  0  0  0  0  0  0  0  0999 V2000     
   21.8414   16.6355   21.8682 C   0  0  0  0  0  0  0  0  0  0  0  0
   21.9561   16.1595   20.7559 O   0  5  0  0  0  0  0  0  0  0  0  0
   21.6886   15.9681   22.8722 O   0  0  0  0  0  0  0  0  0  0  0  0
   21.8980   18.1508   22.0100 C   0  0  0  0  0  0  0  0  0  0  0  0
   22.6871   18.5203   21.3449 H   0  0  0  0  0  0  0  0  0  0  0  0
   22.2056   18.3882   23.0355 H   0  0  0  0  0  0  0  0  0  0  0  0
   20.5775   18.8156   21.6708 C   0  0  0  0  0  0  0  0  0  0  0  0
   20.2839   18.7589   20.6231 H   0  0  0  0  0  0  0  0  0  0  0  0
   19.7976   19.4350   22.5621 C   0  0  0  0  0  0  0  0  0  0  0  0
   20.0904   19.4887   23.6102 H   0  0  0  0  0  0  0  0  0  0  0  0
   18.4793   20.0941   22.2228 C   0  0  0  0  0  0  0  0  0  0  0  0
   18.1369   19.7788   21.2275 H   0  0  0  0  0  0  0  0  0  0  0  0
   17.7095   19.7728   22.9374 H   0  0  0  0  0  0  0  0  0  0  0  0
   18.6030   21.6299   22.2567 C   0  0  0  0  0  0  0  0  0  0  0  0
   19.3501   21.9770   21.5307 H   0  0  0  0  0  0  0  0  0  0  0  0
   17.6433   22.1024   22.0103 H   0  0  0  0  0  0  0  0  0  0  0  0
   18.9075   21.9764   23.2530 H   0  0  0  0  0  0  0  0  0  0  0  0
  1  2  1  0  0  0  0
  1  3  2  0  0  0  0
  1  4  1  0  0  0  0
  4  5  1  0  0  0  0
  4  6  1  0  0  0  0
  4  7  1  0  0  0  0
  7  8  1  0  0  0  0
  7  9  2  0  0  0  0
  9 10  1  0  0  0  0
  9 11  1  0  0  0  0
 11 12  1  0  0  0  0
 11 13  1  0  0  0  0
 11 14  1  0  0  0  0
 14 15  1  0  0  0  0
 14 16  1  0  0  0  0
 14 17  1  0  0  0  0
M  END
> <VConfSearch Rank>
246

> <Conf_Id>
38

> <Delta U+W>
0.000

> <U+W>
-49.427

> <U>
13.666

> <W>
-63.093

> <W(PB)>
-65.225

> <W(SA)>
2.132

> <Valence>
15.226

> <Coulomb>
-1.822

> <VdW>
0.261

> <VdW6>
-4.165

> <VdW12>
4.426

> <Bond>
0.044

> <Angle>
2.229

> <Pdih>
12.953

> <Idih>
0.000

> <Tether>
0.000

$$$$
VeraChem MOL file


 17 16  0  0  0  0  0  0  0  0999 V2000     
   21.7561   16.7138   21.2655 C   0  0  0  0  0  0  0  0  0  0  0  0
   21.4656   16.4056   20.1265 O   0  5  0  0  0  0  0  0  0  0  0  0
   21.9881   15.9047   22.1422 O   0  0  0  0  0  0  0  0  0  0  0  0
   21.8399   18.1940   21.6141 C   0  0  0  0  0  0  0  0  0  0  0  0
   22.0300   18.7538   20.6905 H   0  0  0  0  0  0  0  0  0  0  0  0
   22.7131   18.3368   22.2611 H   0  0  0  0  0  0  0  0  0  0  0  0
   20.5893   18.6990   22.3083 C   0  0  0  0  0  0  0  0  0  0  0  0
   20.4212   18.3032   23.3095 H   0  0  0  0  0  0  0  0  0  0  0  0
   19.7272   19.5647   21.7666 C   0  0  0  0  0  0  0  0  0  0  0  0
   19.8942   19.9575   20.7642 H   0  0  0  0  0  0  0  0  0  0  0  0
   18.4786   20.0640   22.4587 C   0  0  0  0  0  0  0  0  0  0  0  0
   17.6199   19.9823   21.7786 H   0  0  0  0  0  0  0  0  0  0  0  0
   18.2484   19.4403   23.3335 H   0  0  0  0  0  0  0  0  0  0  0  0
   18.6419   21.5297   22.9061 C   0  0  0  0  0  0  0  0  0  0  0  0
   18.8353   22.1829   22.0451 H   0  0  0  0  0  0  0  0  0  0  0  0
   17.7327   21.8866   23.4070 H   0  0  0  0  0  0  0  0  0  0  0  0
   19.4801   21.6320   23.6081 H   0  0  0  0  0  0  0  0  0  0  0  0
  1  2  1  0  0  0  0
  1  3  2  0  0  0  0
  1  4  1  0  0  0  0
  4  5  1  0  0  0  0
  4  6  1  0  0  0  0
  4  7  1  0  0  0  0
  7  8  1  0  0  0  0
  7  9  2  0  0  0  0
  9 10  1  0  0  0  0
  9 11  1  0  0  0  0
 11 12  1  0  0  0  0
 11 13  1  0  0  0  0
 11 14  1  0  0  0  0
 14 15  1  0  0  0  0
 14 16  1  0  0  0  0
 14 17  1  0  0  0  0
M  END
> <VConfSearch Rank>
247

> <Conf_Id>
35

> <Delta U+W>
-0.102

> <U+W>
-49.529

> <U>
13.666

> <W>
-63.195

> <W(PB)>
-65.299

> <W(SA)>
2.103

> <Valence>
15.226

> <Coulomb>
-1.822

> <VdW>
0.261

> <VdW6>
-4.165

> <VdW12>
4.426

> <Bond>
0.044

> <Angle>
2.229

> <Pdih>
12.953

> <Idih>
0.000

> <Tether>
0.000

$$$$
VeraChem MOL file


 17 16  0  0  0  0  0  0  0  0999 V2000     
   20.0094   21.2208   20.1642 C   0  0  0  0  0  0  0  0  0  0  0  0
   19.8606   20.7239   19.0651 O   0  5  0  0  0  0  0  0  0  0  0  0
   19.3564   22.1618   20.5702 O   0  0  0  0  0  0  0  0  0  0  0  0
   21.0795   20.6369   21.0772 C   0  0  0  0  0  0  0  0  0  0  0  0
   21.3800   21.4118   21.7926 H   0  0  0  0  0  0  0  0  0  0  0  0
   21.9580   20.4112   20.4616 H   0  0  0  0  0  0  0  0  0  0  0  0
   20.6108   19.3848   21.7942 C   0  0  0  0  0  0  0  0  0  0  0  0
   20.4474   18.5249   21.1469 H   0  0  0  0  0  0  0  0  0  0  0  0
   20.4006   19.3144   23.1146 C   0  0  0  0  0  0  0  0  0  0  0  0
   20.5706   20.1973   23.7300 H   0  0  0  0  0  0  0  0  0  0  0  0
   19.9296   18.0989   23.8951 C   0  0  0  0  0  0  0  0  0  0  0  0
   20.6705   17.8642   24.6712 H   0  0  0  0  0  0  0  0  0  0  0  0
   19.0085   18.3572   24.4350 H   0  0  0  0  0  0  0  0  0  0  0  0
   19.6755   16.8355   23.0435 C   0  0  0  0  0  0  0  0  0  0  0  0
   20.5917   16.5155   22.5302 H   0  0  0  0  0  0  0  0  0  0  0  0
   19.3383   16.0053   23.6777 H   0  0  0  0  0  0  0  0  0  0  0  0
   18.8994   17.0187   22.2889 H   0  0  0  0  0  0  0  0  0  0  0  0
  1  2  1  0  0  0  0
  1  3  2  0  0  0  0
  1  4  1  0  0  0  0
  4  5  1  0  0  0  0
  4  6  1  0  0  0  0
  4  7  1  0  0  0  0
  7  8  1  0  0  0  0
  7  9  2  0  0  0  0
  9 10  1  0  0  0  0
  9 11  1  0  0  0  0
 11 12  1  0  0  0  0
 11 13  1  0  0  0  0
 11 14  1  0  0  0  0
 14 15  1  0  0  0  0
 14 16  1  0  0  0  0
 14 17  1  0  0  0  0
M  END
> <VConfSearch Rank>
248

> <Conf_Id>
19

> <Delta U+W>
-0.496

> <U+W>
-49.923

> <U>
13.863

> <W>
-63.786

> <W(PB)>
-65.856

> <W(SA)>
2.070

> <Valence>
14.117

> <Coulomb>
-1.228

> <VdW>
0.974

> <VdW6>
-4.885

> <VdW12>
5.859

> <Bond>
0.094

> <Angle>
2.818

> <Pdih>
11.205

> <Idih>
0.000

> <Tether>
0.000

$$$$
VeraChem MOL file


 17 16  0  0  0  0  0  0  0  0999 V2000     
   20.5948   21.5638   23.6889 C   0  0  0  0  0  0  0  0  0  0  0  0
   20.6628   21.1759   24.8386 O   0  5  0  0  0  0  0  0  0  0  0  0
   21.3783   22.3530   23.1986 O   0  0  0  0  0  0  0  0  0  0  0  0
   19.4606   21.0423   22.8164 C   0  0  0  0  0  0  0  0  0  0  0  0
   19.0715   21.8855   22.2342 H   0  0  0  0  0  0  0  0  0  0  0  0
   18.6499   20.7044   23.4731 H   0  0  0  0  0  0  0  0  0  0  0  0
   19.9071   19.9297   21.8871 C   0  0  0  0  0  0  0  0  0  0  0  0
   20.6010   20.2295   21.1024 H   0  0  0  0  0  0  0  0  0  0  0  0
   19.5093   18.6581   21.9923 C   0  0  0  0  0  0  0  0  0  0  0  0
   18.8194   18.3578   22.7803 H   0  0  0  0  0  0  0  0  0  0  0  0
   19.9580   17.5496   21.0664 C   0  0  0  0  0  0  0  0  0  0  0  0
   19.0859   16.9760   20.7245 H   0  0  0  0  0  0  0  0  0  0  0  0
   20.4325   17.9676   20.1680 H   0  0  0  0  0  0  0  0  0  0  0  0
   20.9492   16.6050   21.7738 C   0  0  0  0  0  0  0  0  0  0  0  0
   20.4875   16.1420   22.6558 H   0  0  0  0  0  0  0  0  0  0  0  0
   21.2718   15.8029   21.0974 H   0  0  0  0  0  0  0  0  0  0  0  0
   21.8419   17.1529   22.1033 H   0  0  0  0  0  0  0  0  0  0  0  0
  1  2  1  0  0  0  0
  1  3  2  0  0  0  0
  1  4  1  0  0  0  0
  4  5  1  0  0  0  0
  4  6  1  0  0  0  0
  4  7  1  0  0  0  0
  7  8  1  0  0  0  0
  7  9  2  0  0  0  0
  9 10  1  0  0  0  0
  9 11  1  0  0  0  0
 11 12  1  0  0  0  0
 11 13  1  0  0  0  0
 11 14  1  0  0  0  0
 14 15  1  0  0  0  0
 14 16  1  0  0  0  0
 14 17  1  0  0  0  0
M  END
> <VConfSearch Rank>
249

> <Conf_Id>
7

> <Delta U+W>
-0.041

> <U+W>
-49.468

> <U>
14.121

> <W>
-63.589

> <W(PB)>
-65.660

> <W(SA)>
2.071

> <Valence>
15.230

> <Coulomb>
-1.333

> <VdW>
0.224

> <VdW6>
-4.212

> <VdW12>
4.436

> <Bond>
0.044

> <Angle>
2.230

> <Pdih>
12.956

> <Idih>
0.000

> <Tether>
0.000

$$$$
VeraChem MOL file


 17 16  0  0  0  0  0  0  0  0999 V2000     
   20.5820   19.8554   24.9276 C   0  0  0  0  0  0  0  0  0  0  0  0
   21.7904   19.9838   24.9332 O   0  5  0  0  0  0  0  0  0  0  0  0
   19.9836   19.1018   25.6700 O   0  0  0  0  0  0  0  0  0  0  0  0
   19.7701   20.7061   23.9557 C   0  0  0  0  0  0  0  0  0  0  0  0
   20.2968   21.6581   23.8211 H   0  0  0  0  0  0  0  0  0  0  0  0
   18.8187   20.9541   24.4405 H   0  0  0  0  0  0  0  0  0  0  0  0
   19.5011   20.0754   22.5968 C   0  0  0  0  0  0  0  0  0  0  0  0
   18.9201   20.6993   21.9187 H   0  0  0  0  0  0  0  0  0  0  0  0
   19.9112   18.8663   22.1957 C   0  0  0  0  0  0  0  0  0  0  0  0
   20.4942   18.2229   22.8536 H   0  0  0  0  0  0  0  0  0  0  0  0
   19.6151   18.2840   20.8314 C   0  0  0  0  0  0  0  0  0  0  0  0
   19.2406   17.2572   20.9402 H   0  0  0  0  0  0  0  0  0  0  0  0
   18.8221   18.8574   20.3318 H   0  0  0  0  0  0  0  0  0  0  0  0
   20.8763   18.2796   19.9458 C   0  0  0  0  0  0  0  0  0  0  0  0
   20.6560   17.8549   18.9578 H   0  0  0  0  0  0  0  0  0  0  0  0
   21.2548   19.3001   19.8015 H   0  0  0  0  0  0  0  0  0  0  0  0
   21.6743   17.6807   20.4040 H   0  0  0  0  0  0  0  0  0  0  0  0
  1  2  1  0  0  0  0
  1  3  2  0  0  0  0
  1  4  1  0  0  0  0
  4  5  1  0  0  0  0
  4  6  1  0  0  0  0
  4  7  1  0  0  0  0
  7  8  1  0  0  0  0
  7  9  2  0  0  0  0
  9 10  1  0  0  0  0
  9 11  1  0  0  0  0
 11 12  1  0  0  0  0
 11 13  1  0  0  0  0
 11 14  1  0  0  0  0
 14 15  1  0  0  0  0
 14 16  1  0  0  0  0
 14 17  1  0  0  0  0
M  END
> <VConfSearch Rank>
250

> <Conf_Id>
39

> <Delta U+W>
-0.422

> <U+W>
-49.849

> <U>
14.465

> <W>
-64.314

> <W(PB)>
-66.406

> <W(SA)>
2.093

> <Valence>
14.072

> <Coulomb>
-0.199

> <VdW>
0.592

> <VdW6>
-5.019

> <VdW12>
5.611

> <Bond>
0.085

> <Angle>
2.748

> <Pdih>
11.238

> <Idih>
0.001

> <Tether>
0.000

$$$$
VeraChem MOL file


 17 16  0  0  0  0  0  0  0  0999 V2000     
   23.1005   20.2578   21.7886 C   0  0  0  0  0  0  0  0  0  0  0  0
   23.3544   20.9127   20.7969 O   0  5  0  0  0  0  0  0  0  0  0  0
   23.8468   19.4151   22.2467 O   0  0  0  0  0  0  0  0  0  0  0  0
   21.7768   20.5125   22.4976 C   0  0  0  0  0  0  0  0  0  0  0  0
   21.6057   21.5951   22.5088 H   0  0  0  0  0  0  0  0  0  0  0  0
   21.8799   20.1932   23.5417 H   0  0  0  0  0  0  0  0  0  0  0  0
   20.6133   19.8082   21.8261 C   0  0  0  0  0  0  0  0  0  0  0  0
   20.3474   20.1866   20.8395 H   0  0  0  0  0  0  0  0  0  0  0  0
   19.9368   18.7911   22.3683 C   0  0  0  0  0  0  0  0  0  0  0  0
   20.2052   18.4112   23.3536 H   0  0  0  0  0  0  0  0  0  0  0  0
   18.7793   18.0876   21.6956 C   0  0  0  0  0  0  0  0  0  0  0  0
   18.7398   18.3465   20.6286 H   0  0  0  0  0  0  0  0  0  0  0  0
   18.9238   17.0001   21.7509 H   0  0  0  0  0  0  0  0  0  0  0  0
   17.4409   18.4625   22.3613 C   0  0  0  0  0  0  0  0  0  0  0  0
   17.2622   19.5439   22.2955 H   0  0  0  0  0  0  0  0  0  0  0  0
   16.6049   17.9486   21.8694 H   0  0  0  0  0  0  0  0  0  0  0  0
   17.4381   18.1793   23.4221 H   0  0  0  0  0  0  0  0  0  0  0  0
  1  2  1  0  0  0  0
  1  3  2  0  0  0  0
  1  4  1  0  0  0  0
  4  5  1  0  0  0  0
  4  6  1  0  0  0  0
  4  7  1  0  0  0  0
  7  8  1  0  0  0  0
  7  9  2  0  0  0  0
  9 10  1  0  0  0  0
  9 11  1  0  0  0  0
 11 12  1  0  0  0  0
 11 13  1  0  0  0  0
 11 14  1  0  0  0  0
 14 15  1  0  0  0  0
 14 16  1  0  0  0  0
 14 17  1  0  0  0  0
M  END
> <VConfSearch Rank>
251

> <Conf_Id>
38

> <Delta U+W>
0.000

> <U+W>
-49.427

> <U>
13.666

> <W>
-63.093

> <W(PB)>
-65.225

> <W(SA)>
2.132

> <Valence>
15.226

> <Coulomb>
-1.822

> <VdW>
0.261

> <VdW6>
-4.165

> <VdW12>
4.426

> <Bond>
0.044

> <Angle>
2.229

> <Pdih>
12.953

> <Idih>
0.000

> <Tether>
0.000

$$$$
VeraChem MOL file


 17 16  0  0  0  0  0  0  0  0999 V2000     
   19.4075   18.2545   25.0256 C   0  0  0  0  0  0  0  0  0  0  0  0
   20.4331   18.1983   25.6752 O   0  5  0  0  0  0  0  0  0  0  0  0
   18.5048   17.4468   25.1238 O   0  0  0  0  0  0  0  0  0  0  0  0
   19.2401   19.4018   24.0380 C   0  0  0  0  0  0  0  0  0  0  0  0
   19.8856   20.2280   24.3593 H   0  0  0  0  0  0  0  0  0  0  0  0
   18.2055   19.7568   24.1094 H   0  0  0  0  0  0  0  0  0  0  0  0
   19.5524   18.9907   22.6118 C   0  0  0  0  0  0  0  0  0  0  0  0
   18.8505   18.2863   22.1664 H   0  0  0  0  0  0  0  0  0  0  0  0
   20.6035   19.4341   21.9154 C   0  0  0  0  0  0  0  0  0  0  0  0
   21.3067   20.1360   22.3624 H   0  0  0  0  0  0  0  0  0  0  0  0
   20.9156   19.0201   20.4947 C   0  0  0  0  0  0  0  0  0  0  0  0
   21.9727   18.7321   20.4162 H   0  0  0  0  0  0  0  0  0  0  0  0
   20.3264   18.1364   20.2135 H   0  0  0  0  0  0  0  0  0  0  0  0
   20.6204   20.1654   19.5065 C   0  0  0  0  0  0  0  0  0  0  0  0
   21.2255   21.0509   19.7412 H   0  0  0  0  0  0  0  0  0  0  0  0
   20.8495   19.8593   18.4775 H   0  0  0  0  0  0  0  0  0  0  0  0
   19.5617   20.4535   19.5487 H   0  0  0  0  0  0  0  0  0  0  0  0
  1  2  1  0  0  0  0
  1  3  2  0  0  0  0
  1  4  1  0  0  0  0
  4  5  1  0  0  0  0
  4  6  1  0  0  0  0
  4  7  1  0  0  0  0
  7  8  1  0  0  0  0
  7  9  2  0  0  0  0
  9 10  1  0  0  0  0
  9 11  1  0  0  0  0
 11 12  1  0  0  0  0
 11 13  1  0  0  0  0
 11 14  1  0  0  0  0
 14 15  1  0  0  0  0
 14 16  1  0  0  0  0
 14 17  1  0  0  0  0
M  END
> <VConfSearch Rank>
252

> <Conf_Id>
35

> <Delta U+W>
-0.102

> <U+W>
-49.529

> <U>
13.666

> <W>
-63.195

> <W(PB)>
-65.299

> <W(SA)>
2.103

> <Valence>
15.226

> <Coulomb>
-1.822

> <VdW>
0.261

> <VdW6>
-4.165

> <VdW12>
4.426

> <Bond>
0.044

> <Angle>
2.229

> <Pdih>
12.953

> <Idih>
0.000

> <Tether>
0.000

$$$$
VeraChem MOL file


 17 16  0  0  0  0  0  0  0  0999 V2000     
   17.9933   20.6677   23.3325 C   0  0  0  0  0  0  0  0  0  0  0  0
   17.1846   20.9220   22.4617 O   0  5  0  0  0  0  0  0  0  0  0  0
   17.6866   20.2694   24.4389 O   0  0  0  0  0  0  0  0  0  0  0  0
   19.4706   20.8690   23.0213 C   0  0  0  0  0  0  0  0  0  0  0  0
   20.0028   21.0212   23.9679 H   0  0  0  0  0  0  0  0  0  0  0  0
   19.5681   21.7970   22.4461 H   0  0  0  0  0  0  0  0  0  0  0  0
   20.0631   19.7095   22.2429 C   0  0  0  0  0  0  0  0  0  0  0  0
   19.6851   19.6037   21.2275 H   0  0  0  0  0  0  0  0  0  0  0  0
   20.9747   18.8641   22.7399 C   0  0  0  0  0  0  0  0  0  0  0  0
   21.3262   18.9989   23.7623 H   0  0  0  0  0  0  0  0  0  0  0  0
   21.6055   17.6839   22.0204 C   0  0  0  0  0  0  0  0  0  0  0  0
   22.6966   17.8103   22.0162 H   0  0  0  0  0  0  0  0  0  0  0  0
   21.4165   16.7705   22.6006 H   0  0  0  0  0  0  0  0  0  0  0  0
   21.1184   17.4680   20.5705 C   0  0  0  0  0  0  0  0  0  0  0  0
   21.3405   18.3431   19.9458 H   0  0  0  0  0  0  0  0  0  0  0  0
   21.6181   16.5995   20.1220 H   0  0  0  0  0  0  0  0  0  0  0  0
   20.0362   17.2851   20.5417 H   0  0  0  0  0  0  0  0  0  0  0  0
  1  2  1  0  0  0  0
  1  3  2  0  0  0  0
  1  4  1  0  0  0  0
  4  5  1  0  0  0  0
  4  6  1  0  0  0  0
  4  7  1  0  0  0  0
  7  8  1  0  0  0  0
  7  9  2  0  0  0  0
  9 10  1  0  0  0  0
  9 11  1  0  0  0  0
 11 12  1  0  0  0  0
 11 13  1  0  0  0  0
 11 14  1  0  0  0  0
 14 15  1  0  0  0  0
 14 16  1  0  0  0  0
 14 17  1  0  0  0  0
M  END
> <VConfSearch Rank>
253

> <Conf_Id>
19

> <Delta U+W>
-0.496

> <U+W>
-49.923

> <U>
13.863

> <W>
-63.786

> <W(PB)>
-65.856

> <W(SA)>
2.070

> <Valence>
14.117

> <Coulomb>
-1.228

> <VdW>
0.974

> <VdW6>
-4.885

> <VdW12>
5.859

> <Bond>
0.094

> <Angle>
2.818

> <Pdih>
11.205

> <Idih>
0.000

> <Tether>
0.000

$$$$
VeraChem MOL file


 17 16  0  0  0  0  0  0  0  0999 V2000     
   18.1120   21.0889   22.7917 C   0  0  0  0  0  0  0  0  0  0  0  0
   17.2583   20.8379   21.9640 O   0  5  0  0  0  0  0  0  0  0  0  0
   17.8707   21.2946   23.9649 O   0  0  0  0  0  0  0  0  0  0  0  0
   19.5630   21.1608   22.3341 C   0  0  0  0  0  0  0  0  0  0  0  0
   20.0279   22.0209   22.8295 H   0  0  0  0  0  0  0  0  0  0  0  0
   19.5733   21.3667   21.2570 H   0  0  0  0  0  0  0  0  0  0  0  0
   20.3360   19.8953   22.6531 C   0  0  0  0  0  0  0  0  0  0  0  0
   20.5015   19.7063   23.7133 H   0  0  0  0  0  0  0  0  0  0  0  0
   20.7925   19.0415   21.7318 C   0  0  0  0  0  0  0  0  0  0  0  0
   20.6222   19.2283   20.6720 H   0  0  0  0  0  0  0  0  0  0  0  0
   21.5606   17.7787   22.0522 C   0  0  0  0  0  0  0  0  0  0  0  0
   22.4581   17.7203   21.4218 H   0  0  0  0  0  0  0  0  0  0  0  0
   21.9077   17.7939   23.0946 H   0  0  0  0  0  0  0  0  0  0  0  0
   20.6895   16.5281   21.8232 C   0  0  0  0  0  0  0  0  0  0  0  0
   20.3598   16.4665   20.7778 H   0  0  0  0  0  0  0  0  0  0  0  0
   21.2516   15.6147   22.0576 H   0  0  0  0  0  0  0  0  0  0  0  0
   19.7970   16.5526   22.4623 H   0  0  0  0  0  0  0  0  0  0  0  0
  1  2  1  0  0  0  0
  1  3  2  0  0  0  0
  1  4  1  0  0  0  0
  4  5  1  0  0  0  0
  4  6  1  0  0  0  0
  4  7  1  0  0  0  0
  7  8  1  0  0  0  0
  7  9  2  0  0  0  0
  9 10  1  0  0  0  0
  9 11  1  0  0  0  0
 11 12  1  0  0  0  0
 11 13  1  0  0  0  0
 11 14  1  0  0  0  0
 14 15  1  0  0  0  0
 14 16  1  0  0  0  0
 14 17  1  0  0  0  0
M  END
> <VConfSearch Rank>
254

> <Conf_Id>
7

> <Delta U+W>
-0.041

> <U+W>
-49.468

> <U>
14.121

> <W>
-63.589

> <W(PB)>
-65.660

> <W(SA)>
2.071

> <Valence>
15.230

> <Coulomb>
-1.333

> <VdW>
0.224

> <VdW6>
-4.212

> <VdW12>
4.436

> <Bond>
0.044

> <Angle>
2.230

> <Pdih>
12.956

> <Idih>
0.000

> <Tether>
0.000

$$$$
VeraChem MOL file


 17 16  0  0  0  0  0  0  0  0999 V2000     
   19.2596   16.6798   22.6482 C   0  0  0  0  0  0  0  0  0  0  0  0
   18.7633   16.4414   21.5647 O   0  5  0  0  0  0  0  0  0  0  0  0
   18.6685   16.5450   23.7015 O   0  0  0  0  0  0  0  0  0  0  0  0
   20.7114   17.1466   22.6902 C   0  0  0  0  0  0  0  0  0  0  0  0
   21.2397   16.6782   21.8515 H   0  0  0  0  0  0  0  0  0  0  0  0
   21.1688   16.7397   23.5995 H   0  0  0  0  0  0  0  0  0  0  0  0
   20.9185   18.6539   22.6455 C   0  0  0  0  0  0  0  0  0  0  0  0
   21.9619   18.9654   22.6766 H   0  0  0  0  0  0  0  0  0  0  0  0
   19.9539   19.5787   22.5719 C   0  0  0  0  0  0  0  0  0  0  0  0
   18.9029   19.2941   22.5385 H   0  0  0  0  0  0  0  0  0  0  0  0
   20.2138   21.0682   22.5316 C   0  0  0  0  0  0  0  0  0  0  0  0
   19.5640   21.5774   23.2562 H   0  0  0  0  0  0  0  0  0  0  0  0
   21.2487   21.2869   22.8285 H   0  0  0  0  0  0  0  0  0  0  0  0
   19.9565   21.6371   21.1226 C   0  0  0  0  0  0  0  0  0  0  0  0
   20.1452   22.7182   21.0994 H   0  0  0  0  0  0  0  0  0  0  0  0
   20.6142   21.1603   20.3837 H   0  0  0  0  0  0  0  0  0  0  0  0
   18.9165   21.4660   20.8151 H   0  0  0  0  0  0  0  0  0  0  0  0
  1  2  1  0  0  0  0
  1  3  2  0  0  0  0
  1  4  1  0  0  0  0
  4  5  1  0  0  0  0
  4  6  1  0  0  0  0
  4  7  1  0  0  0  0
  7  8  1  0  0  0  0
  7  9  2  0  0  0  0
  9 10  1  0  0  0  0
  9 11  1  0  0  0  0
 11 12  1  0  0  0  0
 11 13  1  0  0  0  0
 11 14  1  0  0  0  0
 14 15  1  0  0  0  0
 14 16  1  0  0  0  0
 14 17  1  0  0  0  0
M  END
> <VConfSearch Rank>
255

> <Conf_Id>
39

> <Delta U+W>
-0.422

> <U+W>
-49.849

> <U>
14.465

> <W>
-64.314

> <W(PB)>
-66.406

> <W(SA)>
2.093

> <Valence>
14.072

> <Coulomb>
-0.199

> <VdW>
0.592

> <VdW6>
-5.019

> <VdW12>
5.611

> <Bond>
0.085

> <Angle>
2.748

> <Pdih>
11.238

> <Idih>
0.001

> <Tether>
0.000

$$$$
VeraChem MOL file


 17 16  0  0  0  0  0  0  0  0999 V2000     
   17.8227   17.3366   21.0871 C   0  0  0  0  0  0  0  0  0  0  0  0
   16.8513   17.2175   21.8077 O   0  5  0  0  0  0  0  0  0  0  0  0
   18.3261   16.4124   20.4795 O   0  0  0  0  0  0  0  0  0  0  0  0
   18.4377   18.7216   20.9344 C   0  0  0  0  0  0  0  0  0  0  0  0
   17.6181   19.4454   20.8576 H   0  0  0  0  0  0  0  0  0  0  0  0
   18.9827   18.7520   19.9833 H   0  0  0  0  0  0  0  0  0  0  0  0
   19.3462   19.0846   22.0935 C   0  0  0  0  0  0  0  0  0  0  0  0
   18.8444   19.2316   23.0494 H   0  0  0  0  0  0  0  0  0  0  0  0
   20.6719   19.2221   21.9942 C   0  0  0  0  0  0  0  0  0  0  0  0
   21.1734   19.0721   21.0387 H   0  0  0  0  0  0  0  0  0  0  0  0
   21.5767   19.5805   23.1519 C   0  0  0  0  0  0  0  0  0  0  0  0
   21.0456   19.4606   24.1063 H   0  0  0  0  0  0  0  0  0  0  0  0
   22.4333   18.8934   23.1794 H   0  0  0  0  0  0  0  0  0  0  0  0
   22.0848   21.0303   23.0295 C   0  0  0  0  0  0  0  0  0  0  0  0
   21.2458   21.7384   23.0259 H   0  0  0  0  0  0  0  0  0  0  0  0
   22.7413   21.2843   23.8719 H   0  0  0  0  0  0  0  0  0  0  0  0
   22.6535   21.1689   22.1007 H   0  0  0  0  0  0  0  0  0  0  0  0
  1  2  1  0  0  0  0
  1  3  2  0  0  0  0
  1  4  1  0  0  0  0
  4  5  1  0  0  0  0
  4  6  1  0  0  0  0
  4  7  1  0  0  0  0
  7  8  1  0  0  0  0
  7  9  2  0  0  0  0
  9 10  1  0  0  0  0
  9 11  1  0  0  0  0
 11 12  1  0  0  0  0
 11 13  1  0  0  0  0
 11 14  1  0  0  0  0
 14 15  1  0  0  0  0
 14 16  1  0  0  0  0
 14 17  1  0  0  0  0
M  END
> <VConfSearch Rank>
256

> <Conf_Id>
38

> <Delta U+W>
0.000

> <U+W>
-49.427

> <U>
13.666

> <W>
-63.093

> <W(PB)>
-65.225

> <W(SA)>
2.132

> <Valence>
15.226

> <Coulomb>
-1.822

> <VdW>
0.261

> <VdW6>
-4.165

> <VdW12>
4.426

> <Bond>
0.044

> <Angle>
2.229

> <Pdih>
12.953

> <Idih>
0.000

> <Tether>
0.000

$$$$
VeraChem MOL file


 17 16  0  0  0  0  0  0  0  0999 V2000     
   18.1723   20.7095   20.0373 C   0  0  0  0  0  0  0  0  0  0  0  0
   17.0847   20.8779   20.5528 O   0  5  0  0  0  0  0  0  0  0  0  0
   18.3236   20.4222   18.8662 O   0  0  0  0  0  0  0  0  0  0  0  0
   19.4148   20.8722   20.9029 C   0  0  0  0  0  0  0  0  0  0  0  0
   19.1592   21.5173   21.7521 H   0  0  0  0  0  0  0  0  0  0  0  0
   20.1680   21.4048   20.3109 H   0  0  0  0  0  0  0  0  0  0  0  0
   19.9701   19.5429   21.3777 C   0  0  0  0  0  0  0  0  0  0  0  0
   20.3941   18.9109   20.5981 H   0  0  0  0  0  0  0  0  0  0  0  0
   19.9579   19.1354   22.6505 C   0  0  0  0  0  0  0  0  0  0  0  0
   19.5308   19.7666   23.4292 H   0  0  0  0  0  0  0  0  0  0  0  0
   20.5084   17.8079   23.1216 C   0  0  0  0  0  0  0  0  0  0  0  0
   19.7747   17.3118   23.7713 H   0  0  0  0  0  0  0  0  0  0  0  0
   20.6779   17.1373   22.2679 H   0  0  0  0  0  0  0  0  0  0  0  0
   21.8302   17.9981   23.8909 C   0  0  0  0  0  0  0  0  0  0  0  0
   21.6818   18.6347   24.7731 H   0  0  0  0  0  0  0  0  0  0  0  0
   22.2244   17.0316   24.2308 H   0  0  0  0  0  0  0  0  0  0  0  0
   22.5886   18.4699   23.2523 H   0  0  0  0  0  0  0  0  0  0  0  0
  1  2  1  0  0  0  0
  1  3  2  0  0  0  0
  1  4  1  0  0  0  0
  4  5  1  0  0  0  0
  4  6  1  0  0  0  0
  4  7  1  0  0  0  0
  7  8  1  0  0  0  0
  7  9  2  0  0  0  0
  9 10  1  0  0  0  0
  9 11  1  0  0  0  0
 11 12  1  0  0  0  0
 11 13  1  0  0  0  0
 11 14  1  0  0  0  0
 14 15  1  0  0  0  0
 14 16  1  0  0  0  0
 14 17  1  0  0  0  0
M  END
> <VConfSearch Rank>
257

> <Conf_Id>
35

> <Delta U+W>
-0.102

> <U+W>
-49.529

> <U>
13.666

> <W>
-63.195

> <W(PB)>
-65.299

> <W(SA)>
2.103

> <Valence>
15.226

> <Coulomb>
-1.822

> <VdW>
0.261

> <VdW6>
-4.165

> <VdW12>
4.426

> <Bond>
0.044

> <Angle>
2.229

> <Pdih>
12.953

> <Idih>
0.000

> <Tether>
0.000

$$$$
VeraChem MOL file


 17 16  0  0  0  0  0  0  0  0999 V2000     
   18.7200   21.5522   22.8588 C   0  0  0  0  0  0  0  0  0  0  0  0
   19.0793   22.4618   22.1374 O   0  5  0  0  0  0  0  0  0  0  0  0
   17.5547   21.3069   23.1012 O   0  0  0  0  0  0  0  0  0  0  0  0
   19.7904   20.6794   23.5008 C   0  0  0  0  0  0  0  0  0  0  0  0
   19.3672   20.2276   24.4059 H   0  0  0  0  0  0  0  0  0  0  0  0
   20.6083   21.3346   23.8221 H   0  0  0  0  0  0  0  0  0  0  0  0
   20.3163   19.6160   22.5552 C   0  0  0  0  0  0  0  0  0  0  0  0
   20.8886   20.0002   21.7126 H   0  0  0  0  0  0  0  0  0  0  0  0
   20.1049   18.3036   22.7150 C   0  0  0  0  0  0  0  0  0  0  0  0
   19.5233   17.9566   23.5685 H   0  0  0  0  0  0  0  0  0  0  0  0
   20.5968   17.1880   21.8082 C   0  0  0  0  0  0  0  0  0  0  0  0
   21.2018   16.4878   22.4001 H   0  0  0  0  0  0  0  0  0  0  0  0
   19.7331   16.6076   21.4567 H   0  0  0  0  0  0  0  0  0  0  0  0
   21.4191   17.6552   20.5869 C   0  0  0  0  0  0  0  0  0  0  0  0
   22.3220   18.1942   20.9026 H   0  0  0  0  0  0  0  0  0  0  0  0
   21.7353   16.7943   19.9837 H   0  0  0  0  0  0  0  0  0  0  0  0
   20.8257   18.3172   19.9425 H   0  0  0  0  0  0  0  0  0  0  0  0
  1  2  1  0  0  0  0
  1  3  2  0  0  0  0
  1  4  1  0  0  0  0
  4  5  1  0  0  0  0
  4  6  1  0  0  0  0
  4  7  1  0  0  0  0
  7  8  1  0  0  0  0
  7  9  2  0  0  0  0
  9 10  1  0  0  0  0
  9 11  1  0  0  0  0
 11 12  1  0  0  0  0
 11 13  1  0  0  0  0
 11 14  1  0  0  0  0
 14 15  1  0  0  0  0
 14 16  1  0  0  0  0
 14 17  1  0  0  0  0
M  END
> <VConfSearch Rank>
258

> <Conf_Id>
19

> <Delta U+W>
-0.496

> <U+W>
-49.923

> <U>
13.863

> <W>
-63.786

> <W(PB)>
-65.856

> <W(SA)>
2.070

> <Valence>
14.117

> <Coulomb>
-1.228

> <VdW>
0.974

> <VdW6>
-4.885

> <VdW12>
5.859

> <Bond>
0.094

> <Angle>
2.818

> <Pdih>
11.205

> <Idih>
0.000

> <Tether>
0.000

$$$$
VeraChem MOL file


 17 16  0  0  0  0  0  0  0  0999 V2000     
   22.0977   20.5202   20.5574 C   0  0  0  0  0  0  0  0  0  0  0  0
   22.6597   21.2216   21.3753 O   0  5  0  0  0  0  0  0  0  0  0  0
   22.6833   19.8720   19.7124 O   0  0  0  0  0  0  0  0  0  0  0  0
   20.5762   20.4567   20.5840 C   0  0  0  0  0  0  0  0  0  0  0  0
   20.2217   20.4912   19.5474 H   0  0  0  0  0  0  0  0  0  0  0  0
   20.2036   21.3606   21.0808 H   0  0  0  0  0  0  0  0  0  0  0  0
   20.0589   19.2068   21.2701 C   0  0  0  0  0  0  0  0  0  0  0  0
   20.2587   18.2723   20.7465 H   0  0  0  0  0  0  0  0  0  0  0  0
   19.4072   19.2054   22.4370 C   0  0  0  0  0  0  0  0  0  0  0  0
   19.2122   20.1396   22.9626 H   0  0  0  0  0  0  0  0  0  0  0  0
   18.8948   17.9576   23.1209 C   0  0  0  0  0  0  0  0  0  0  0  0
   17.8512   18.1058   23.4299 H   0  0  0  0  0  0  0  0  0  0  0  0
   18.8998   17.1078   22.4244 H   0  0  0  0  0  0  0  0  0  0  0  0
   19.7516   17.6110   24.3541 C   0  0  0  0  0  0  0  0  0  0  0  0
   19.7332   18.4289   25.0863 H   0  0  0  0  0  0  0  0  0  0  0  0
   19.3757   16.7046   24.8463 H   0  0  0  0  0  0  0  0  0  0  0  0
   20.7961   17.4340   24.0655 H   0  0  0  0  0  0  0  0  0  0  0  0
  1  2  1  0  0  0  0
  1  3  2  0  0  0  0
  1  4  1  0  0  0  0
  4  5  1  0  0  0  0
  4  6  1  0  0  0  0
  4  7  1  0  0  0  0
  7  8  1  0  0  0  0
  7  9  2  0  0  0  0
  9 10  1  0  0  0  0
  9 11  1  0  0  0  0
 11 12  1  0  0  0  0
 11 13  1  0  0  0  0
 11 14  1  0  0  0  0
 14 15  1  0  0  0  0
 14 16  1  0  0  0  0
 14 17  1  0  0  0  0
M  END
> <VConfSearch Rank>
259

> <Conf_Id>
7

> <Delta U+W>
-0.041

> <U+W>
-49.468

> <U>
14.121

> <W>
-63.589

> <W(PB)>
-65.660

> <W(SA)>
2.071

> <Valence>
15.230

> <Coulomb>
-1.333

> <VdW>
0.224

> <VdW6>
-4.212

> <VdW12>
4.436

> <Bond>
0.044

> <Angle>
2.230

> <Pdih>
12.956

> <Idih>
0.000

> <Tether>
0.000

$$$$
VeraChem MOL file


 17 16  0  0  0  0  0  0  0  0999 V2000     
   21.1435   21.5082   23.5319 C   0  0  0  0  0  0  0  0  0  0  0  0
   22.2484   21.5759   23.0301 O   0  5  0  0  0  0  0  0  0  0  0  0
   20.9516   21.4823   24.7317 O   0  0  0  0  0  0  0  0  0  0  0  0
   19.9308   21.4825   22.6066 C   0  0  0  0  0  0  0  0  0  0  0  0
   20.1758   22.0708   21.7146 H   0  0  0  0  0  0  0  0  0  0  0  0
   19.1156   22.0185   23.1066 H   0  0  0  0  0  0  0  0  0  0  0  0
   19.4517   20.0992   22.1896 C   0  0  0  0  0  0  0  0  0  0  0  0
   18.5852   20.1038   21.5295 H   0  0  0  0  0  0  0  0  0  0  0  0
   19.9965   18.9338   22.5582 C   0  0  0  0  0  0  0  0  0  0  0  0
   20.8637   18.9012   23.2167 H   0  0  0  0  0  0  0  0  0  0  0  0
   19.4797   17.5828   22.1157 C   0  0  0  0  0  0  0  0  0  0  0  0
   19.3869   16.9186   22.9855 H   0  0  0  0  0  0  0  0  0  0  0  0
   18.4742   17.6779   21.6832 H   0  0  0  0  0  0  0  0  0  0  0  0
   20.4224   16.9422   21.0784 C   0  0  0  0  0  0  0  0  0  0  0  0
   20.0434   15.9618   20.7619 H   0  0  0  0  0  0  0  0  0  0  0  0
   20.5107   17.5775   20.1872 H   0  0  0  0  0  0  0  0  0  0  0  0
   21.4271   16.8000   21.4977 H   0  0  0  0  0  0  0  0  0  0  0  0
  1  2  1  0  0  0  0
  1  3  2  0  0  0  0
  1  4  1  0  0  0  0
  4  5  1  0  0  0  0
  4  6  1  0  0  0  0
  4  7  1  0  0  0  0
  7  8  1  0  0  0  0
  7  9  2  0  0  0  0
  9 10  1  0  0  0  0
  9 11  1  0  0  0  0
 11 12  1  0  0  0  0
 11 13  1  0  0  0  0
 11 14  1  0  0  0  0
 14 15  1  0  0  0  0
 14 16  1  0  0  0  0
 14 17  1  0  0  0  0
M  END
> <VConfSearch Rank>
260

> <Conf_Id>
39

> <Delta U+W>
-0.422

> <U+W>
-49.849

> <U>
14.465

> <W>
-64.314

> <W(PB)>
-66.406

> <W(SA)>
2.093

> <Valence>
14.072

> <Coulomb>
-0.199

> <VdW>
0.592

> <VdW6>
-5.019

> <VdW12>
5.611

> <Bond>
0.085

> <Angle>
2.748

> <Pdih>
11.238

> <Idih>
0.001

> <Tether>
0.000

$$$$
VeraChem MOL file


 17 16  0  0  0  0  0  0  0  0999 V2000     
   18.2158   20.4540   19.8606 C   0  0  0  0  0  0  0  0  0  0  0  0
   17.0621   20.6645   20.1790 O   0  5  0  0  0  0  0  0  0  0  0  0
   18.5428   19.9958   18.7835 O   0  0  0  0  0  0  0  0  0  0  0  0
   19.3104   20.7883   20.8654 C   0  0  0  0  0  0  0  0  0  0  0  0
   19.0483   21.7401   21.3419 H   0  0  0  0  0  0  0  0  0  0  0  0
   20.2441   20.9520   20.3140 H   0  0  0  0  0  0  0  0  0  0  0  0
   19.4824   19.7093   21.9175 C   0  0  0  0  0  0  0  0  0  0  0  0
   18.6495   19.5993   22.6114 H   0  0  0  0  0  0  0  0  0  0  0  0
   20.5600   18.9255   22.0203 C   0  0  0  0  0  0  0  0  0  0  0  0
   21.3912   19.0340   21.3243 H   0  0  0  0  0  0  0  0  0  0  0  0
   20.7282   17.8475   23.0677 C   0  0  0  0  0  0  0  0  0  0  0  0
   19.7666   17.6292   23.5525 H   0  0  0  0  0  0  0  0  0  0  0  0
   21.0592   16.9153   22.5903 H   0  0  0  0  0  0  0  0  0  0  0  0
   21.7543   18.2696   24.1372 C   0  0  0  0  0  0  0  0  0  0  0  0
   21.4314   19.1871   24.6467 H   0  0  0  0  0  0  0  0  0  0  0  0
   21.8725   17.4832   24.8940 H   0  0  0  0  0  0  0  0  0  0  0  0
   22.7369   18.4574   23.6848 H   0  0  0  0  0  0  0  0  0  0  0  0
  1  2  1  0  0  0  0
  1  3  2  0  0  0  0
  1  4  1  0  0  0  0
  4  5  1  0  0  0  0
  4  6  1  0  0  0  0
  4  7  1  0  0  0  0
  7  8  1  0  0  0  0
  7  9  2  0  0  0  0
  9 10  1  0  0  0  0
  9 11  1  0  0  0  0
 11 12  1  0  0  0  0
 11 13  1  0  0  0  0
 11 14  1  0  0  0  0
 14 15  1  0  0  0  0
 14 16  1  0  0  0  0
 14 17  1  0  0  0  0
M  END
> <VConfSearch Rank>
261

> <Conf_Id>
38

> <Delta U+W>
0.000

> <U+W>
-49.427

> <U>
13.666

> <W>
-63.093

> <W(PB)>
-65.225

> <W(SA)>
2.132

> <Valence>
15.226

> <Coulomb>
-1.822

> <VdW>
0.261

> <VdW6>
-4.165

> <VdW12>
4.426

> <Bond>
0.044

> <Angle>
2.229

> <Pdih>
12.953

> <Idih>
0.000

> <Tether>
0.000

$$$$
VeraChem MOL file


 17 16  0  0  0  0  0  0  0  0999 V2000     
   22.0088   16.8383   22.7508 C   0  0  0  0  0  0  0  0  0  0  0  0
   22.7952   17.1725   23.6150 O   0  5  0  0  0  0  0  0  0  0  0  0
   22.3017   16.1153   21.8189 O   0  0  0  0  0  0  0  0  0  0  0  0
   20.5764   17.3476   22.8417 C   0  0  0  0  0  0  0  0  0  0  0  0
   20.3674   17.5991   23.8885 H   0  0  0  0  0  0  0  0  0  0  0  0
   19.9092   16.5210   22.5713 H   0  0  0  0  0  0  0  0  0  0  0  0
   20.3245   18.5379   21.9359 C   0  0  0  0  0  0  0  0  0  0  0  0
   20.3559   18.3244   20.8679 H   0  0  0  0  0  0  0  0  0  0  0  0
   20.0805   19.7768   22.3739 C   0  0  0  0  0  0  0  0  0  0  0  0
   20.0524   19.9902   23.4420 H   0  0  0  0  0  0  0  0  0  0  0  0
   19.8336   20.9632   21.4691 C   0  0  0  0  0  0  0  0  0  0  0  0
   20.4552   21.8100   21.7902 H   0  0  0  0  0  0  0  0  0  0  0  0
   20.1296   20.7281   20.4375 H   0  0  0  0  0  0  0  0  0  0  0  0
   18.3494   21.3777   21.4920 C   0  0  0  0  0  0  0  0  0  0  0  0
   18.0359   21.6555   22.5069 H   0  0  0  0  0  0  0  0  0  0  0  0
   18.1765   22.2394   20.8342 H   0  0  0  0  0  0  0  0  0  0  0  0
   17.7092   20.5539   21.1497 H   0  0  0  0  0  0  0  0  0  0  0  0
  1  2  1  0  0  0  0
  1  3  2  0  0  0  0
  1  4  1  0  0  0  0
  4  5  1  0  0  0  0
  4  6  1  0  0  0  0
  4  7  1  0  0  0  0
  7  8  1  0  0  0  0
  7  9  2  0  0  0  0
  9 10  1  0  0  0  0
  9 11  1  0  0  0  0
 11 12  1  0  0  0  0
 11 13  1  0  0  0  0
 11 14  1  0  0  0  0
 14 15  1  0  0  0  0
 14 16  1  0  0  0  0
 14 17  1  0  0  0  0
M  END
> <VConfSearch Rank>
262

> <Conf_Id>
35

> <Delta U+W>
-0.102

> <U+W>
-49.529

> <U>
13.666

> <W>
-63.195

> <W(PB)>
-65.299

> <W(SA)>
2.103

> <Valence>
15.226

> <Coulomb>
-1.822

> <VdW>
0.261

> <VdW6>
-4.165

> <VdW12>
4.426

> <Bond>
0.044

> <Angle>
2.229

> <Pdih>
12.953

> <Idih>
0.000

> <Tether>
0.000

$$$$
VeraChem MOL file


 17 16  0  0  0  0  0  0  0  0999 V2000     
   21.2967   16.4342   21.5313 C   0  0  0  0  0  0  0  0  0  0  0  0
   20.7411   15.5845   22.1993 O   0  5  0  0  0  0  0  0  0  0  0  0
   21.4979   16.3255   20.3378 O   0  0  0  0  0  0  0  0  0  0  0  0
   21.7745   17.6994   22.2319 C   0  0  0  0  0  0  0  0  0  0  0  0
   22.5901   18.1320   21.6400 H   0  0  0  0  0  0  0  0  0  0  0  0
   22.2005   17.4063   23.1984 H   0  0  0  0  0  0  0  0  0  0  0  0
   20.6579   18.7053   22.4388 C   0  0  0  0  0  0  0  0  0  0  0  0
   19.8917   18.3942   23.1468 H   0  0  0  0  0  0  0  0  0  0  0  0
   20.5902   19.8860   21.8112 C   0  0  0  0  0  0  0  0  0  0  0  0
   21.3736   20.1612   21.1057 H   0  0  0  0  0  0  0  0  0  0  0  0
   19.5030   20.9359   21.9674 C   0  0  0  0  0  0  0  0  0  0  0  0
   19.9631   21.8813   22.2853 H   0  0  0  0  0  0  0  0  0  0  0  0
   19.0603   21.1396   20.9830 H   0  0  0  0  0  0  0  0  0  0  0  0
   18.3770   20.5662   22.9581 C   0  0  0  0  0  0  0  0  0  0  0  0
   18.7772   20.4080   23.9682 H   0  0  0  0  0  0  0  0  0  0  0  0
   17.6334   21.3718   23.0136 H   0  0  0  0  0  0  0  0  0  0  0  0
   17.8586   19.6515   22.6416 H   0  0  0  0  0  0  0  0  0  0  0  0
  1  2  1  0  0  0  0
  1  3  2  0  0  0  0
  1  4  1  0  0  0  0
  4  5  1  0  0  0  0
  4  6  1  0  0  0  0
  4  7  1  0  0  0  0
  7  8  1  0  0  0  0
  7  9  2  0  0  0  0
  9 10  1  0  0  0  0
  9 11  1  0  0  0  0
 11 12  1  0  0  0  0
 11 13  1  0  0  0  0
 11 14  1  0  0  0  0
 14 15  1  0  0  0  0
 14 16  1  0  0  0  0
 14 17  1  0  0  0  0
M  END
> <VConfSearch Rank>
263

> <Conf_Id>
19

> <Delta U+W>
-0.496

> <U+W>
-49.923

> <U>
13.863

> <W>
-63.786

> <W(PB)>
-65.856

> <W(SA)>
2.070

> <Valence>
14.117

> <Coulomb>
-1.228

> <VdW>
0.974

> <VdW6>
-4.885

> <VdW12>
5.859

> <Bond>
0.094

> <Angle>
2.818

> <Pdih>
11.205

> <Idih>
0.000

> <Tether>
0.000

$$$$
VeraChem MOL file


 17 16  0  0  0  0  0  0  0  0999 V2000     
   17.4917   20.0041   23.0049 C   0  0  0  0  0  0  0  0  0  0  0  0
   17.4007   19.5913   24.1443 O   0  5  0  0  0  0  0  0  0  0  0  0
   17.1956   21.1355   22.6744 O   0  0  0  0  0  0  0  0  0  0  0  0
   17.9937   19.0502   21.9289 C   0  0  0  0  0  0  0  0  0  0  0  0
   17.3761   19.1987   21.0355 H   0  0  0  0  0  0  0  0  0  0  0  0
   17.8198   18.0233   22.2723 H   0  0  0  0  0  0  0  0  0  0  0  0
   19.4565   19.2709   21.5935 C   0  0  0  0  0  0  0  0  0  0  0  0
   19.6832   20.2164   21.1016 H   0  0  0  0  0  0  0  0  0  0  0  0
   20.4306   18.3989   21.8706 C   0  0  0  0  0  0  0  0  0  0  0  0
   20.2040   17.4559   22.3672 H   0  0  0  0  0  0  0  0  0  0  0  0
   21.8889   18.6222   21.5380 C   0  0  0  0  0  0  0  0  0  0  0  0
   22.2980   17.7296   21.0455 H   0  0  0  0  0  0  0  0  0  0  0  0
   21.9982   19.4527   20.8270 H   0  0  0  0  0  0  0  0  0  0  0  0
   22.7057   18.9281   22.8085 C   0  0  0  0  0  0  0  0  0  0  0  0
   22.6460   18.0960   23.5223 H   0  0  0  0  0  0  0  0  0  0  0  0
   23.7630   19.0897   22.5613 H   0  0  0  0  0  0  0  0  0  0  0  0
   22.3297   19.8323   23.3052 H   0  0  0  0  0  0  0  0  0  0  0  0
  1  2  1  0  0  0  0
  1  3  2  0  0  0  0
  1  4  1  0  0  0  0
  4  5  1  0  0  0  0
  4  6  1  0  0  0  0
  4  7  1  0  0  0  0
  7  8  1  0  0  0  0
  7  9  2  0  0  0  0
  9 10  1  0  0  0  0
  9 11  1  0  0  0  0
 11 12  1  0  0  0  0
 11 13  1  0  0  0  0
 11 14  1  0  0  0  0
 14 15  1  0  0  0  0
 14 16  1  0  0  0  0
 14 17  1  0  0  0  0
M  END
> <VConfSearch Rank>
264

> <Conf_Id>
7

> <Delta U+W>
-0.041

> <U+W>
-49.468

> <U>
14.121

> <W>
-63.589

> <W(PB)>
-65.660

> <W(SA)>
2.071

> <Valence>
15.230

> <Coulomb>
-1.333

> <VdW>
0.224

> <VdW6>
-4.212

> <VdW12>
4.436

> <Bond>
0.044

> <Angle>
2.230

> <Pdih>
12.956

> <Idih>
0.000

> <Tether>
0.000

$$$$
VeraChem MOL file


 17 16  0  0  0  0  0  0  0  0999 V2000     
   21.9866   21.0235   23.3217 C   0  0  0  0  0  0  0  0  0  0  0  0
   21.3534   22.0608   23.3178 O   0  5  0  0  0  0  0  0  0  0  0  0
   23.0786   20.9018   22.8022 O   0  0  0  0  0  0  0  0  0  0  0  0
   21.3915   19.8170   24.0412 C   0  0  0  0  0  0  0  0  0  0  0  0
   20.7967   20.1879   24.8841 H   0  0  0  0  0  0  0  0  0  0  0  0
   22.2180   19.2481   24.4827 H   0  0  0  0  0  0  0  0  0  0  0  0
   20.5386   18.8944   23.1819 C   0  0  0  0  0  0  0  0  0  0  0  0
   20.1238   18.0398   23.7150 H   0  0  0  0  0  0  0  0  0  0  0  0
   20.2740   19.0539   21.8798 C   0  0  0  0  0  0  0  0  0  0  0  0
   20.6755   19.9001   21.3234 H   0  0  0  0  0  0  0  0  0  0  0  0
   19.4194   18.1047   21.0696 C   0  0  0  0  0  0  0  0  0  0  0  0
   19.9331   17.8519   20.1322 H   0  0  0  0  0  0  0  0  0  0  0  0
   19.2715   17.1608   21.6122 H   0  0  0  0  0  0  0  0  0  0  0  0
   18.0473   18.7299   20.7509 C   0  0  0  0  0  0  0  0  0  0  0  0
   17.4320   18.0375   20.1618 H   0  0  0  0  0  0  0  0  0  0  0  0
   17.5034   18.9679   21.6745 H   0  0  0  0  0  0  0  0  0  0  0  0
   18.1640   19.6570   20.1744 H   0  0  0  0  0  0  0  0  0  0  0  0
  1  2  1  0  0  0  0
  1  3  2  0  0  0  0
  1  4  1  0  0  0  0
  4  5  1  0  0  0  0
  4  6  1  0  0  0  0
  4  7  1  0  0  0  0
  7  8  1  0  0  0  0
  7  9  2  0  0  0  0
  9 10  1  0  0  0  0
  9 11  1  0  0  0  0
 11 12  1  0  0  0  0
 11 13  1  0  0  0  0
 11 14  1  0  0  0  0
 14 15  1  0  0  0  0
 14 16  1  0  0  0  0
 14 17  1  0  0  0  0
M  END
> <VConfSearch Rank>
265

> <Conf_Id>
39

> <Delta U+W>
-0.422

> <U+W>
-49.849

> <U>
14.465

> <W>
-64.314

> <W(PB)>
-66.406

> <W(SA)>
2.093

> <Valence>
14.072

> <Coulomb>
-0.199

> <VdW>
0.592

> <VdW6>
-5.019

> <VdW12>
5.611

> <Bond>
0.085

> <Angle>
2.748

> <Pdih>
11.238

> <Idih>
0.001

> <Tether>
0.000

$$$$
VeraChem MOL file


 17 16  0  0  0  0  0  0  0  0999 V2000     
   22.3961   21.4604   22.0355 C   0  0  0  0  0  0  0  0  0  0  0  0
   23.3162   21.3088   22.8148 O   0  5  0  0  0  0  0  0  0  0  0  0
   21.9044   22.5417   21.7785 O   0  0  0  0  0  0  0  0  0  0  0  0
   21.8336   20.2277   21.3401 C   0  0  0  0  0  0  0  0  0  0  0  0
   22.6777   19.5875   21.0587 H   0  0  0  0  0  0  0  0  0  0  0  0
   21.3506   20.5491   20.4095 H   0  0  0  0  0  0  0  0  0  0  0  0
   20.8653   19.4571   22.2172 C   0  0  0  0  0  0  0  0  0  0  0  0
   21.3102   18.9690   23.0838 H   0  0  0  0  0  0  0  0  0  0  0  0
   19.5532   19.3601   21.9823 C   0  0  0  0  0  0  0  0  0  0  0  0
   19.1085   19.8510   21.1172 H   0  0  0  0  0  0  0  0  0  0  0  0
   18.5885   18.5945   22.8601 C   0  0  0  0  0  0  0  0  0  0  0  0
   19.0548   18.3548   23.8257 H   0  0  0  0  0  0  0  0  0  0  0  0
   17.7118   19.2186   23.0797 H   0  0  0  0  0  0  0  0  0  0  0  0
   18.1328   17.2907   22.1763 C   0  0  0  0  0  0  0  0  0  0  0  0
   18.9913   16.6381   21.9698 H   0  0  0  0  0  0  0  0  0  0  0  0
   17.4326   16.7399   22.8176 H   0  0  0  0  0  0  0  0  0  0  0  0
   17.6281   17.5032   21.2247 H   0  0  0  0  0  0  0  0  0  0  0  0
  1  2  1  0  0  0  0
  1  3  2  0  0  0  0
  1  4  1  0  0  0  0
  4  5  1  0  0  0  0
  4  6  1  0  0  0  0
  4  7  1  0  0  0  0
  7  8  1  0  0  0  0
  7  9  2  0  0  0  0
  9 10  1  0  0  0  0
  9 11  1  0  0  0  0
 11 12  1  0  0  0  0
 11 13  1  0  0  0  0
 11 14  1  0  0  0  0
 14 15  1  0  0  0  0
 14 16  1  0  0  0  0
 14 17  1  0  0  0  0
M  END
> <VConfSearch Rank>
266

> <Conf_Id>
38

> <Delta U+W>
0.000

> <U+W>
-49.427

> <U>
13.666

> <W>
-63.093

> <W(PB)>
-65.225

> <W(SA)>
2.132

> <Valence>
15.226

> <Coulomb>
-1.822

> <VdW>
0.261

> <VdW6>
-4.165

> <VdW12>
4.426

> <Bond>
0.044

> <Angle>
2.229

> <Pdih>
12.953

> <Idih>
0.000

> <Tether>
0.000

$$$$
VeraChem MOL file


 17 16  0  0  0  0  0  0  0  0999 V2000     
   22.5576   20.6262   23.5410 C   0  0  0  0  0  0  0  0  0  0  0  0
   22.8127   20.0127   24.5586 O   0  5  0  0  0  0  0  0  0  0  0  0
   22.6439   21.8347   23.4454 O   0  0  0  0  0  0  0  0  0  0  0  0
   22.1105   19.8393   22.3161 C   0  0  0  0  0  0  0  0  0  0  0  0
   22.4821   18.8121   22.4138 H   0  0  0  0  0  0  0  0  0  0  0  0
   22.6025   20.2761   21.4394 H   0  0  0  0  0  0  0  0  0  0  0  0
   20.6051   19.8576   22.1316 C   0  0  0  0  0  0  0  0  0  0  0  0
   20.1805   20.8261   21.8691 H   0  0  0  0  0  0  0  0  0  0  0  0
   19.8178   18.7870   22.2738 C   0  0  0  0  0  0  0  0  0  0  0  0
   20.2427   17.8195   22.5394 H   0  0  0  0  0  0  0  0  0  0  0  0
   18.3164   18.8080   22.0933 C   0  0  0  0  0  0  0  0  0  0  0  0
   17.8338   18.3061   22.9429 H   0  0  0  0  0  0  0  0  0  0  0  0
   17.9446   19.8419   22.0852 H   0  0  0  0  0  0  0  0  0  0  0  0
   17.9063   18.1083   20.7828 C   0  0  0  0  0  0  0  0  0  0  0  0
   18.2324   17.0600   20.7798 H   0  0  0  0  0  0  0  0  0  0  0  0
   16.8158   18.1261   20.6577 H   0  0  0  0  0  0  0  0  0  0  0  0
   18.3569   18.6092   19.9158 H   0  0  0  0  0  0  0  0  0  0  0  0
  1  2  1  0  0  0  0
  1  3  2  0  0  0  0
  1  4  1  0  0  0  0
  4  5  1  0  0  0  0
  4  6  1  0  0  0  0
  4  7  1  0  0  0  0
  7  8  1  0  0  0  0
  7  9  2  0  0  0  0
  9 10  1  0  0  0  0
  9 11  1  0  0  0  0
 11 12  1  0  0  0  0
 11 13  1  0  0  0  0
 11 14  1  0  0  0  0
 14 15  1  0  0  0  0
 14 16  1  0  0  0  0
 14 17  1  0  0  0  0
M  END
> <VConfSearch Rank>
267

> <Conf_Id>
35

> <Delta U+W>
-0.102

> <U+W>
-49.529

> <U>
13.666

> <W>
-63.195

> <W(PB)>
-65.299

> <W(SA)>
2.103

> <Valence>
15.226

> <Coulomb>
-1.822

> <VdW>
0.261

> <VdW6>
-4.165

> <VdW12>
4.426

> <Bond>
0.044

> <Angle>
2.229

> <Pdih>
12.953

> <Idih>
0.000

> <Tether>
0.000

$$$$
VeraChem MOL file


 17 16  0  0  0  0  0  0  0  0999 V2000     
   20.8092   17.3495   19.9009 C   0  0  0  0  0  0  0  0  0  0  0  0
   21.9200   17.5910   19.4711 O   0  5  0  0  0  0  0  0  0  0  0  0
   20.3885   16.2237   20.0811 O   0  0  0  0  0  0  0  0  0  0  0  0
   19.8928   18.5229   20.2218 C   0  0  0  0  0  0  0  0  0  0  0  0
   18.8552   18.1713   20.1722 H   0  0  0  0  0  0  0  0  0  0  0  0
   20.0160   19.2703   19.4295 H   0  0  0  0  0  0  0  0  0  0  0  0
   20.1945   19.1425   21.5733 C   0  0  0  0  0  0  0  0  0  0  0  0
   21.1551   19.6510   21.6356 H   0  0  0  0  0  0  0  0  0  0  0  0
   19.3682   19.0803   22.6249 C   0  0  0  0  0  0  0  0  0  0  0  0
   18.4167   18.5587   22.5261 H   0  0  0  0  0  0  0  0  0  0  0  0
   19.6075   19.6728   24.0035 C   0  0  0  0  0  0  0  0  0  0  0  0
   18.7875   20.3635   24.2421 H   0  0  0  0  0  0  0  0  0  0  0  0
   19.5450   18.8710   24.7516 H   0  0  0  0  0  0  0  0  0  0  0  0
   20.9532   20.4125   24.1707 C   0  0  0  0  0  0  0  0  0  0  0  0
   21.0279   21.2570   23.4732 H   0  0  0  0  0  0  0  0  0  0  0  0
   21.0505   20.8088   25.1898 H   0  0  0  0  0  0  0  0  0  0  0  0
   21.7993   19.7363   23.9908 H   0  0  0  0  0  0  0  0  0  0  0  0
  1  2  1  0  0  0  0
  1  3  2  0  0  0  0
  1  4  1  0  0  0  0
  4  5  1  0  0  0  0
  4  6  1  0  0  0  0
  4  7  1  0  0  0  0
  7  8  1  0  0  0  0
  7  9  2  0  0  0  0
  9 10  1  0  0  0  0
  9 11  1  0  0  0  0
 11 12  1  0  0  0  0
 11 13  1  0  0  0  0
 11 14  1  0  0  0  0
 14 15  1  0  0  0  0
 14 16  1  0  0  0  0
 14 17  1  0  0  0  0
M  END
> <VConfSearch Rank>
268

> <Conf_Id>
19

> <Delta U+W>
-0.496

> <U+W>
-49.923

> <U>
13.863

> <W>
-63.786

> <W(PB)>
-65.856

> <W(SA)>
2.070

> <Valence>
14.117

> <Coulomb>
-1.228

> <VdW>
0.974

> <VdW6>
-4.885

> <VdW12>
5.859

> <Bond>
0.094

> <Angle>
2.818

> <Pdih>
11.205

> <Idih>
0.000

> <Tether>
0.000

$$$$
VeraChem MOL file


 17 16  0  0  0  0  0  0  0  0999 V2000     
   19.7515   17.1278   20.0429 C   0  0  0  0  0  0  0  0  0  0  0  0
   20.8817   16.7330   19.8342 O   0  5  0  0  0  0  0  0  0  0  0  0
   18.7908   16.3909   20.1476 O   0  0  0  0  0  0  0  0  0  0  0  0
   19.5224   18.6282   20.1699 C   0  0  0  0  0  0  0  0  0  0  0  0
   18.6026   18.8734   19.6265 H   0  0  0  0  0  0  0  0  0  0  0  0
   20.3441   19.1453   19.6599 H   0  0  0  0  0  0  0  0  0  0  0  0
   19.4099   19.0784   21.6141 C   0  0  0  0  0  0  0  0  0  0  0  0
   18.5251   18.7261   22.1434 H   0  0  0  0  0  0  0  0  0  0  0  0
   20.3118   19.8452   22.2343 C   0  0  0  0  0  0  0  0  0  0  0  0
   21.1990   20.1930   21.7060 H   0  0  0  0  0  0  0  0  0  0  0  0
   20.1992   20.2906   23.6752 C   0  0  0  0  0  0  0  0  0  0  0  0
   20.3862   21.3707   23.7454 H   0  0  0  0  0  0  0  0  0  0  0  0
   19.1808   20.1217   24.0513 H   0  0  0  0  0  0  0  0  0  0  0  0
   21.2038   19.5361   24.5677 C   0  0  0  0  0  0  0  0  0  0  0  0
   22.2349   19.7186   24.2377 H   0  0  0  0  0  0  0  0  0  0  0  0
   21.1175   19.8628   25.6122 H   0  0  0  0  0  0  0  0  0  0  0  0
   21.0201   18.4541   24.5326 H   0  0  0  0  0  0  0  0  0  0  0  0
  1  2  1  0  0  0  0
  1  3  2  0  0  0  0
  1  4  1  0  0  0  0
  4  5  1  0  0  0  0
  4  6  1  0  0  0  0
  4  7  1  0  0  0  0
  7  8  1  0  0  0  0
  7  9  2  0  0  0  0
  9 10  1  0  0  0  0
  9 11  1  0  0  0  0
 11 12  1  0  0  0  0
 11 13  1  0  0  0  0
 11 14  1  0  0  0  0
 14 15  1  0  0  0  0
 14 16  1  0  0  0  0
 14 17  1  0  0  0  0
M  END
> <VConfSearch Rank>
269

> <Conf_Id>
7

> <Delta U+W>
-0.041

> <U+W>
-49.468

> <U>
14.121

> <W>
-63.589

> <W(PB)>
-65.660

> <W(SA)>
2.071

> <Valence>
15.230

> <Coulomb>
-1.333

> <VdW>
0.224

> <VdW6>
-4.212

> <VdW12>
4.436

> <Bond>
0.044

> <Angle>
2.230

> <Pdih>
12.956

> <Idih>
0.000

> <Tether>
0.000

$$$$
VeraChem MOL file


 17 16  0  0  0  0  0  0  0  0999 V2000     
   19.3215   17.8405   24.4847 C   0  0  0  0  0  0  0  0  0  0  0  0
   18.2506   18.3647   24.7197 O   0  5  0  0  0  0  0  0  0  0  0  0
   20.2094   17.7294   25.3072 O   0  0  0  0  0  0  0  0  0  0  0  0
   19.5536   17.2661   23.0905 C   0  0  0  0  0  0  0  0  0  0  0  0
   18.5890   16.9134   22.7073 H   0  0  0  0  0  0  0  0  0  0  0  0
   20.1809   16.3732   23.1955 H   0  0  0  0  0  0  0  0  0  0  0  0
   20.1850   18.2179   22.0845 C   0  0  0  0  0  0  0  0  0  0  0  0
   20.3419   17.7878   21.0961 H   0  0  0  0  0  0  0  0  0  0  0  0
   20.5417   19.4864   22.3183 C   0  0  0  0  0  0  0  0  0  0  0  0
   20.3949   19.9410   23.2974 H   0  0  0  0  0  0  0  0  0  0  0  0
   21.1686   20.3919   21.2814 C   0  0  0  0  0  0  0  0  0  0  0  0
   22.0506   20.8885   21.7080 H   0  0  0  0  0  0  0  0  0  0  0  0
   21.5219   19.8062   20.4216 H   0  0  0  0  0  0  0  0  0  0  0  0
   20.1647   21.4556   20.7959 C   0  0  0  0  0  0  0  0  0  0  0  0
   20.6253   22.1106   20.0449 H   0  0  0  0  0  0  0  0  0  0  0  0
   19.2844   20.9822   20.3415 H   0  0  0  0  0  0  0  0  0  0  0  0
   19.8234   22.0817   21.6308 H   0  0  0  0  0  0  0  0  0  0  0  0
  1  2  1  0  0  0  0
  1  3  2  0  0  0  0
  1  4  1  0  0  0  0
  4  5  1  0  0  0  0
  4  6  1  0  0  0  0
  4  7  1  0  0  0  0
  7  8  1  0  0  0  0
  7  9  2  0  0  0  0
  9 10  1  0  0  0  0
  9 11  1  0  0  0  0
 11 12  1  0  0  0  0
 11 13  1  0  0  0  0
 11 14  1  0  0  0  0
 14 15  1  0  0  0  0
 14 16  1  0  0  0  0
 14 17  1  0  0  0  0
M  END
> <VConfSearch Rank>
270

> <Conf_Id>
39

> <Delta U+W>
-0.422

> <U+W>
-49.849

> <U>
14.465

> <W>
-64.314

> <W(PB)>
-66.406

> <W(SA)>
2.093

> <Valence>
14.072

> <Coulomb>
-0.199

> <VdW>
0.592

> <VdW6>
-5.019

> <VdW12>
5.611

> <Bond>
0.085

> <Angle>
2.748

> <Pdih>
11.238

> <Idih>
0.001

> <Tether>
0.000

$$$$
VeraChem MOL file


 17 16  0  0  0  0  0  0  0  0999 V2000     
   22.6241   17.4295   22.6452 C   0  0  0  0  0  0  0  0  0  0  0  0
   22.8332   16.5464   21.8369 O   0  5  0  0  0  0  0  0  0  0  0  0
   22.7647   17.2902   23.8442 O   0  0  0  0  0  0  0  0  0  0  0  0
   22.1661   18.7856   22.1245 C   0  0  0  0  0  0  0  0  0  0  0  0
   22.7430   19.0092   21.2197 H   0  0  0  0  0  0  0  0  0  0  0  0
   22.4300   19.5460   22.8693 H   0  0  0  0  0  0  0  0  0  0  0  0
   20.6812   18.8183   21.8167 C   0  0  0  0  0  0  0  0  0  0  0  0
   20.3673   18.2035   20.9737 H   0  0  0  0  0  0  0  0  0  0  0  0
   19.7869   19.5336   22.5057 C   0  0  0  0  0  0  0  0  0  0  0  0
   20.1010   20.1459   23.3505 H   0  0  0  0  0  0  0  0  0  0  0  0
   18.3061   19.5621   22.1997 C   0  0  0  0  0  0  0  0  0  0  0  0
   18.0379   18.7404   21.5215 H   0  0  0  0  0  0  0  0  0  0  0  0
   17.7335   19.4073   23.1242 H   0  0  0  0  0  0  0  0  0  0  0  0
   17.8981   20.9041   21.5613 C   0  0  0  0  0  0  0  0  0  0  0  0
   18.4399   21.0690   20.6206 H   0  0  0  0  0  0  0  0  0  0  0  0
   16.8226   20.9191   21.3422 H   0  0  0  0  0  0  0  0  0  0  0  0
   18.1201   21.7420   22.2352 H   0  0  0  0  0  0  0  0  0  0  0  0
  1  2  1  0  0  0  0
  1  3  2  0  0  0  0
  1  4  1  0  0  0  0
  4  5  1  0  0  0  0
  4  6  1  0  0  0  0
  4  7  1  0  0  0  0
  7  8  1  0  0  0  0
  7  9  2  0  0  0  0
  9 10  1  0  0  0  0
  9 11  1  0  0  0  0
 11 12  1  0  0  0  0
 11 13  1  0  0  0  0
 11 14  1  0  0  0  0
 14 15  1  0  0  0  0
 14 16  1  0  0  0  0
 14 17  1  0  0  0  0
M  END
> <VConfSearch Rank>
271

> <Conf_Id>
38

> <Delta U+W>
0.000

> <U+W>
-49.427

> <U>
13.666

> <W>
-63.093

> <W(PB)>
-65.225

> <W(SA)>
2.132

> <Valence>
15.226

> <Coulomb>
-1.822

> <VdW>
0.261

> <VdW6>
-4.165

> <VdW12>
4.426

> <Bond>
0.044

> <Angle>
2.229

> <Pdih>
12.953

> <Idih>
0.000

> <Tether>
0.000

$$$$
VeraChem MOL file


 17 16  0  0  0  0  0  0  0  0999 V2000     
   22.2155   20.7154   20.2649 C   0  0  0  0  0  0  0  0  0  0  0  0
   23.0900   19.9244   19.9710 O   0  5  0  0  0  0  0  0  0  0  0  0
   22.4220   21.8907   20.4951 O   0  0  0  0  0  0  0  0  0  0  0  0
   20.7811   20.2095   20.3444 C   0  0  0  0  0  0  0  0  0  0  0  0
   20.7004   19.3082   19.7249 H   0  0  0  0  0  0  0  0  0  0  0  0
   20.1327   20.9687   19.8920 H   0  0  0  0  0  0  0  0  0  0  0  0
   20.3415   19.9311   21.7692 C   0  0  0  0  0  0  0  0  0  0  0  0
   20.2416   20.8101   22.4052 H   0  0  0  0  0  0  0  0  0  0  0  0
   20.0872   18.7110   22.2519 C   0  0  0  0  0  0  0  0  0  0  0  0
   20.1904   17.8322   21.6162 H   0  0  0  0  0  0  0  0  0  0  0  0
   19.6528   18.4349   23.6740 C   0  0  0  0  0  0  0  0  0  0  0  0
   20.2618   17.6245   24.0970 H   0  0  0  0  0  0  0  0  0  0  0  0
   19.8208   19.3181   24.3056 H   0  0  0  0  0  0  0  0  0  0  0  0
   18.1636   18.0424   23.7319 C   0  0  0  0  0  0  0  0  0  0  0  0
   17.9735   17.1382   23.1388 H   0  0  0  0  0  0  0  0  0  0  0  0
   17.8544   17.8426   24.7661 H   0  0  0  0  0  0  0  0  0  0  0  0
   17.5321   18.8493   23.3373 H   0  0  0  0  0  0  0  0  0  0  0  0
  1  2  1  0  0  0  0
  1  3  2  0  0  0  0
  1  4  1  0  0  0  0
  4  5  1  0  0  0  0
  4  6  1  0  0  0  0
  4  7  1  0  0  0  0
  7  8  1  0  0  0  0
  7  9  2  0  0  0  0
  9 10  1  0  0  0  0
  9 11  1  0  0  0  0
 11 12  1  0  0  0  0
 11 13  1  0  0  0  0
 11 14  1  0  0  0  0
 14 15  1  0  0  0  0
 14 16  1  0  0  0  0
 14 17  1  0  0  0  0
M  END
> <VConfSearch Rank>
272

> <Conf_Id>
35

> <Delta U+W>
-0.102

> <U+W>
-49.529

> <U>
13.666

> <W>
-63.195

> <W(PB)>
-65.299

> <W(SA)>
2.103

> <Valence>
15.226

> <Coulomb>
-1.822

> <VdW>
0.261

> <VdW6>
-4.165

> <VdW12>
4.426

> <Bond>
0.044

> <Angle>
2.229

> <Pdih>
12.953

> <Idih>
0.000

> <Tether>
0.000

$$$$
VeraChem MOL file


 17 16  0  0  0  0  0  0  0  0999 V2000     
   21.4840   17.7009   24.4751 C   0  0  0  0  0  0  0  0  0  0  0  0
   22.1249   18.4899   25.1413 O   0  5  0  0  0  0  0  0  0  0  0  0
   20.7384   16.8684   24.9525 O   0  0  0  0  0  0  0  0  0  0  0  0
   21.6319   17.7540   22.9602 C   0  0  0  0  0  0  0  0  0  0  0  0
   21.3668   16.7700   22.5551 H   0  0  0  0  0  0  0  0  0  0  0  0
   22.6914   17.9192   22.7329 H   0  0  0  0  0  0  0  0  0  0  0  0
   20.7883   18.8475   22.3326 C   0  0  0  0  0  0  0  0  0  0  0  0
   21.1057   19.8607   22.5731 H   0  0  0  0  0  0  0  0  0  0  0  0
   19.7294   18.6159   21.5465 C   0  0  0  0  0  0  0  0  0  0  0  0
   19.4389   17.5880   21.3315 H   0  0  0  0  0  0  0  0  0  0  0  0
   18.8408   19.6590   20.8902 C   0  0  0  0  0  0  0  0  0  0  0  0
   18.8461   19.4993   19.8035 H   0  0  0  0  0  0  0  0  0  0  0  0
   17.8025   19.4934   21.2078 H   0  0  0  0  0  0  0  0  0  0  0  0
   19.2288   21.1248   21.1851 C   0  0  0  0  0  0  0  0  0  0  0  0
   20.2449   21.3424   20.8308 H   0  0  0  0  0  0  0  0  0  0  0  0
   18.5413   21.8144   20.6782 H   0  0  0  0  0  0  0  0  0  0  0  0
   19.1828   21.3354   22.2617 H   0  0  0  0  0  0  0  0  0  0  0  0
  1  2  1  0  0  0  0
  1  3  2  0  0  0  0
  1  4  1  0  0  0  0
  4  5  1  0  0  0  0
  4  6  1  0  0  0  0
  4  7  1  0  0  0  0
  7  8  1  0  0  0  0
  7  9  2  0  0  0  0
  9 10  1  0  0  0  0
  9 11  1  0  0  0  0
 11 12  1  0  0  0  0
 11 13  1  0  0  0  0
 11 14  1  0  0  0  0
 14 15  1  0  0  0  0
 14 16  1  0  0  0  0
 14 17  1  0  0  0  0
M  END
> <VConfSearch Rank>
273

> <Conf_Id>
19

> <Delta U+W>
-0.496

> <U+W>
-49.923

> <U>
13.863

> <W>
-63.786

> <W(PB)>
-65.856

> <W(SA)>
2.070

> <Valence>
14.117

> <Coulomb>
-1.228

> <VdW>
0.974

> <VdW6>
-4.885

> <VdW12>
5.859

> <Bond>
0.094

> <Angle>
2.818

> <Pdih>
11.205

> <Idih>
0.000

> <Tether>
0.000

$$$$
VeraChem MOL file


 17 16  0  0  0  0  0  0  0  0999 V2000     
   20.6221   16.4477   20.9643 C   0  0  0  0  0  0  0  0  0  0  0  0
   20.6366   16.7245   19.7811 O   0  5  0  0  0  0  0  0  0  0  0  0
   21.4475   15.7323   21.4972 O   0  0  0  0  0  0  0  0  0  0  0  0
   19.5035   17.0184   21.8262 C   0  0  0  0  0  0  0  0  0  0  0  0
   19.1627   16.2245   22.5008 H   0  0  0  0  0  0  0  0  0  0  0  0
   18.6595   17.2680   21.1719 H   0  0  0  0  0  0  0  0  0  0  0  0
   19.9468   18.2279   22.6270 C   0  0  0  0  0  0  0  0  0  0  0  0
   20.6775   18.0252   23.4095 H   0  0  0  0  0  0  0  0  0  0  0  0
   19.5048   19.4714   22.4164 C   0  0  0  0  0  0  0  0  0  0  0  0
   18.7780   19.6744   21.6305 H   0  0  0  0  0  0  0  0  0  0  0  0
   19.9503   20.6766   23.2142 C   0  0  0  0  0  0  0  0  0  0  0  0
   19.0729   21.2554   23.5332 H   0  0  0  0  0  0  0  0  0  0  0  0
   20.4697   20.3610   24.1295 H   0  0  0  0  0  0  0  0  0  0  0  0
   20.8848   21.5763   22.3822 C   0  0  0  0  0  0  0  0  0  0  0  0
   20.3773   21.9386   21.4786 H   0  0  0  0  0  0  0  0  0  0  0  0
   21.2054   22.4489   22.9660 H   0  0  0  0  0  0  0  0  0  0  0  0
   21.7824   21.0250   22.0724 H   0  0  0  0  0  0  0  0  0  0  0  0
  1  2  1  0  0  0  0
  1  3  2  0  0  0  0
  1  4  1  0  0  0  0
  4  5  1  0  0  0  0
  4  6  1  0  0  0  0
  4  7  1  0  0  0  0
  7  8  1  0  0  0  0
  7  9  2  0  0  0  0
  9 10  1  0  0  0  0
  9 11  1  0  0  0  0
 11 12  1  0  0  0  0
 11 13  1  0  0  0  0
 11 14  1  0  0  0  0
 14 15  1  0  0  0  0
 14 16  1  0  0  0  0
 14 17  1  0  0  0  0
M  END
> <VConfSearch Rank>
274

> <Conf_Id>
7

> <Delta U+W>
-0.041

> <U+W>
-49.468

> <U>
14.121

> <W>
-63.589

> <W(PB)>
-65.660

> <W(SA)>
2.071

> <Valence>
15.230

> <Coulomb>
-1.333

> <VdW>
0.224

> <VdW6>
-4.212

> <VdW12>
4.436

> <Bond>
0.044

> <Angle>
2.230

> <Pdih>
12.956

> <Idih>
0.000

> <Tether>
0.000

$$$$
VeraChem MOL file


 17 16  0  0  0  0  0  0  0  0999 V2000     
   21.2533   18.6736   19.8156 C   0  0  0  0  0  0  0  0  0  0  0  0
   20.9111   17.5151   19.6824 O   0  5  0  0  0  0  0  0  0  0  0  0
   22.4076   19.0458   19.7371 O   0  0  0  0  0  0  0  0  0  0  0  0
   20.1730   19.7210   20.0672 C   0  0  0  0  0  0  0  0  0  0  0  0
   19.2620   19.3950   19.5519 H   0  0  0  0  0  0  0  0  0  0  0  0
   20.4833   20.6488   19.5726 H   0  0  0  0  0  0  0  0  0  0  0  0
   19.8588   20.0027   21.5296 C   0  0  0  0  0  0  0  0  0  0  0  0
   19.0852   20.7534   21.6866 H   0  0  0  0  0  0  0  0  0  0  0  0
   20.4379   19.4186   22.5853 C   0  0  0  0  0  0  0  0  0  0  0  0
   21.2133   18.6644   22.4561 H   0  0  0  0  0  0  0  0  0  0  0  0
   20.0894   19.7363   24.0225 C   0  0  0  0  0  0  0  0  0  0  0  0
   21.0096   19.9023   24.5988 H   0  0  0  0  0  0  0  0  0  0  0  0
   19.5086   20.6672   24.0813 H   0  0  0  0  0  0  0  0  0  0  0  0
   19.2820   18.5903   24.6627 C   0  0  0  0  0  0  0  0  0  0  0  0
   19.0331   18.8256   25.7057 H   0  0  0  0  0  0  0  0  0  0  0  0
   18.3436   18.4229   24.1177 H   0  0  0  0  0  0  0  0  0  0  0  0
   19.8553   17.6540   24.6520 H   0  0  0  0  0  0  0  0  0  0  0  0
  1  2  1  0  0  0  0
  1  3  2  0  0  0  0
  1  4  1  0  0  0  0
  4  5  1  0  0  0  0
  4  6  1  0  0  0  0
  4  7  1  0  0  0  0
  7  8  1  0  0  0  0
  7  9  2  0  0  0  0
  9 10  1  0  0  0  0
  9 11  1  0  0  0  0
 11 12  1  0  0  0  0
 11 13  1  0  0  0  0
 11 14  1  0  0  0  0
 14 15  1  0  0  0  0
 14 16  1  0  0  0  0
 14 17  1  0  0  0  0
M  END
> <VConfSearch Rank>
275

> <Conf_Id>
39

> <Delta U+W>
-0.422

> <U+W>
-49.849

> <U>
14.465

> <W>
-64.314

> <W(PB)>
-66.406

> <W(SA)>
2.093

> <Valence>
14.072

> <Coulomb>
-0.199

> <VdW>
0.592

> <VdW6>
-5.019

> <VdW12>
5.611

> <Bond>
0.085

> <Angle>
2.748

> <Pdih>
11.238

> <Idih>
0.001

> <Tether>
0.000

$$$$
VeraChem MOL file


 17 16  0  0  0  0  0  0  0  0999 V2000     
   22.1289   16.9034   22.6704 C   0  0  0  0  0  0  0  0  0  0  0  0
   23.1098   17.1729   23.3354 O   0  5  0  0  0  0  0  0  0  0  0  0
   22.1530   16.1635   21.7067 O   0  0  0  0  0  0  0  0  0  0  0  0
   20.7970   17.5236   23.0717 C   0  0  0  0  0  0  0  0  0  0  0  0
   20.7305   17.4955   24.1654 H   0  0  0  0  0  0  0  0  0  0  0  0
   19.9919   16.8873   22.6849 H   0  0  0  0  0  0  0  0  0  0  0  0
   20.6480   18.9498   22.5773 C   0  0  0  0  0  0  0  0  0  0  0  0
   21.3145   19.6754   23.0426 H   0  0  0  0  0  0  0  0  0  0  0  0
   19.7768   19.3322   21.6386 C   0  0  0  0  0  0  0  0  0  0  0  0
   19.1127   18.6056   21.1716 H   0  0  0  0  0  0  0  0  0  0  0  0
   19.6322   20.7541   21.1442 C   0  0  0  0  0  0  0  0  0  0  0  0
   20.4904   21.3613   21.4636 H   0  0  0  0  0  0  0  0  0  0  0  0
   19.6290   20.7661   20.0458 H   0  0  0  0  0  0  0  0  0  0  0  0
   18.3317   21.3934   21.6687 C   0  0  0  0  0  0  0  0  0  0  0  0
   18.3236   21.4159   22.7665 H   0  0  0  0  0  0  0  0  0  0  0  0
   18.2321   22.4247   21.3062 H   0  0  0  0  0  0  0  0  0  0  0  0
   17.4534   20.8274   21.3317 H   0  0  0  0  0  0  0  0  0  0  0  0
  1  2  1  0  0  0  0
  1  3  2  0  0  0  0
  1  4  1  0  0  0  0
  4  5  1  0  0  0  0
  4  6  1  0  0  0  0
  4  7  1  0  0  0  0
  7  8  1  0  0  0  0
  7  9  2  0  0  0  0
  9 10  1  0  0  0  0
  9 11  1  0  0  0  0
 11 12  1  0  0  0  0
 11 13  1  0  0  0  0
 11 14  1  0  0  0  0
 14 15  1  0  0  0  0
 14 16  1  0  0  0  0
 14 17  1  0  0  0  0
M  END
> <VConfSearch Rank>
276

> <Conf_Id>
38

> <Delta U+W>
0.000

> <U+W>
-49.427

> <U>
13.666

> <W>
-63.093

> <W(PB)>
-65.225

> <W(SA)>
2.132

> <Valence>
15.226

> <Coulomb>
-1.822

> <VdW>
0.261

> <VdW6>
-4.165

> <VdW12>
4.426

> <Bond>
0.044

> <Angle>
2.229

> <Pdih>
12.953

> <Idih>
0.000

> <Tether>
0.000

$$$$
VeraChem MOL file


 17 16  0  0  0  0  0  0  0  0999 V2000     
   18.8757   21.1645   19.8793 C   0  0  0  0  0  0  0  0  0  0  0  0
   17.6721   21.0035   19.8312 O   0  5  0  0  0  0  0  0  0  0  0  0
   19.5670   21.3612   18.8993 O   0  0  0  0  0  0  0  0  0  0  0  0
   19.5561   21.1233   21.2412 C   0  0  0  0  0  0  0  0  0  0  0  0
   18.8082   21.3657   22.0058 H   0  0  0  0  0  0  0  0  0  0  0  0
   20.3081   21.9204   21.2642 H   0  0  0  0  0  0  0  0  0  0  0  0
   20.2084   19.7835   21.5244 C   0  0  0  0  0  0  0  0  0  0  0  0
   21.0706   19.5453   20.9023 H   0  0  0  0  0  0  0  0  0  0  0  0
   19.7868   18.9252   22.4581 C   0  0  0  0  0  0  0  0  0  0  0  0
   18.9226   19.1626   23.0777 H   0  0  0  0  0  0  0  0  0  0  0  0
   20.4361   17.5879   22.7364 C   0  0  0  0  0  0  0  0  0  0  0  0
   19.6673   16.8047   22.7811 H   0  0  0  0  0  0  0  0  0  0  0  0
   21.1179   17.3142   21.9194 H   0  0  0  0  0  0  0  0  0  0  0  0
   21.2174   17.6172   24.0645 C   0  0  0  0  0  0  0  0  0  0  0  0
   20.5516   17.8512   24.9055 H   0  0  0  0  0  0  0  0  0  0  0  0
   21.6857   16.6441   24.2613 H   0  0  0  0  0  0  0  0  0  0  0  0
   22.0098   18.3767   24.0340 H   0  0  0  0  0  0  0  0  0  0  0  0
  1  2  1  0  0  0  0
  1  3  2  0  0  0  0
  1  4  1  0  0  0  0
  4  5  1  0  0  0  0
  4  6  1  0  0  0  0
  4  7  1  0  0  0  0
  7  8  1  0  0  0  0
  7  9  2  0  0  0  0
  9 10  1  0  0  0  0
  9 11  1  0  0  0  0
 11 12  1  0  0  0  0
 11 13  1  0  0  0  0
 11 14  1  0  0  0  0
 14 15  1  0  0  0  0
 14 16  1  0  0  0  0
 14 17  1  0  0  0  0
M  END
> <VConfSearch Rank>
277

> <Conf_Id>
35

> <Delta U+W>
-0.102

> <U+W>
-49.529

> <U>
13.666

> <W>
-63.195

> <W(PB)>
-65.299

> <W(SA)>
2.103

> <Valence>
15.226

> <Coulomb>
-1.822

> <VdW>
0.261

> <VdW6>
-4.165

> <VdW12>
4.426

> <Bond>
0.044

> <Angle>
2.229

> <Pdih>
12.953

> <Idih>
0.000

> <Tether>
0.000

$$$$
VeraChem MOL file


 17 16  0  0  0  0  0  0  0  0999 V2000     
   17.5387   19.5873   21.0793 C   0  0  0  0  0  0  0  0  0  0  0  0
   17.6162   19.7382   19.8759 O   0  5  0  0  0  0  0  0  0  0  0  0
   16.6997   18.8916   21.6168 O   0  0  0  0  0  0  0  0  0  0  0  0
   18.5430   20.3184   21.9606 C   0  0  0  0  0  0  0  0  0  0  0  0
   18.1019   20.4370   22.9575 H   0  0  0  0  0  0  0  0  0  0  0  0
   18.6792   21.3251   21.5488 H   0  0  0  0  0  0  0  0  0  0  0  0
   19.8781   19.6021   22.0365 C   0  0  0  0  0  0  0  0  0  0  0  0
   20.4413   19.5909   21.1050 H   0  0  0  0  0  0  0  0  0  0  0  0
   20.3498   19.0165   23.1444 C   0  0  0  0  0  0  0  0  0  0  0  0
   19.7557   19.0445   24.0572 H   0  0  0  0  0  0  0  0  0  0  0  0
   21.6715   18.2814   23.2899 C   0  0  0  0  0  0  0  0  0  0  0  0
   22.2565   18.7544   24.0903 H   0  0  0  0  0  0  0  0  0  0  0  0
   21.4737   17.2574   23.6347 H   0  0  0  0  0  0  0  0  0  0  0  0
   22.5298   18.2227   22.0070 C   0  0  0  0  0  0  0  0  0  0  0  0
   22.7933   19.2314   21.6627 H   0  0  0  0  0  0  0  0  0  0  0  0
   23.4637   17.6766   22.1933 H   0  0  0  0  0  0  0  0  0  0  0  0
   21.9947   17.7075   21.1984 H   0  0  0  0  0  0  0  0  0  0  0  0
  1  2  1  0  0  0  0
  1  3  2  0  0  0  0
  1  4  1  0  0  0  0
  4  5  1  0  0  0  0
  4  6  1  0  0  0  0
  4  7  1  0  0  0  0
  7  8  1  0  0  0  0
  7  9  2  0  0  0  0
  9 10  1  0  0  0  0
  9 11  1  0  0  0  0
 11 12  1  0  0  0  0
 11 13  1  0  0  0  0
 11 14  1  0  0  0  0
 14 15  1  0  0  0  0
 14 16  1  0  0  0  0
 14 17  1  0  0  0  0
M  END
> <VConfSearch Rank>
278

> <Conf_Id>
19

> <Delta U+W>
-0.496

> <U+W>
-49.923

> <U>
13.863

> <W>
-63.786

> <W(PB)>
-65.856

> <W(SA)>
2.070

> <Valence>
14.117

> <Coulomb>
-1.228

> <VdW>
0.974

> <VdW6>
-4.885

> <VdW12>
5.859

> <Bond>
0.094

> <Angle>
2.818

> <Pdih>
11.205

> <Idih>
0.000

> <Tether>
0.000

$$$$
VeraChem MOL file


 17 16  0  0  0  0  0  0  0  0999 V2000     
   17.8259   20.0660   23.6881 C   0  0  0  0  0  0  0  0  0  0  0  0
   17.4790   19.0865   24.3182 O   0  5  0  0  0  0  0  0  0  0  0  0
   17.9275   21.1757   24.1730 O   0  0  0  0  0  0  0  0  0  0  0  0
   18.1408   19.8982   22.2073 C   0  0  0  0  0  0  0  0  0  0  0  0
   17.7084   20.7529   21.6744 H   0  0  0  0  0  0  0  0  0  0  0  0
   17.6248   19.0004   21.8463 H   0  0  0  0  0  0  0  0  0  0  0  0
   19.6309   19.8149   21.9362 C   0  0  0  0  0  0  0  0  0  0  0  0
   20.1900   20.7307   22.1260 H   0  0  0  0  0  0  0  0  0  0  0  0
   20.2553   18.7156   21.5029 C   0  0  0  0  0  0  0  0  0  0  0  0
   19.6965   17.7987   21.3182 H   0  0  0  0  0  0  0  0  0  0  0  0
   21.7417   18.6338   21.2359 C   0  0  0  0  0  0  0  0  0  0  0  0
   21.9175   18.1744   20.2538 H   0  0  0  0  0  0  0  0  0  0  0  0
   22.1811   19.6401   21.1966 H   0  0  0  0  0  0  0  0  0  0  0  0
   22.4548   17.8083   22.3245 C   0  0  0  0  0  0  0  0  0  0  0  0
   22.0614   16.7839   22.3599 H   0  0  0  0  0  0  0  0  0  0  0  0
   23.5330   17.7526   22.1261 H   0  0  0  0  0  0  0  0  0  0  0  0
   22.3132   18.2632   23.3138 H   0  0  0  0  0  0  0  0  0  0  0  0
  1  2  1  0  0  0  0
  1  3  2  0  0  0  0
  1  4  1  0  0  0  0
  4  5  1  0  0  0  0
  4  6  1  0  0  0  0
  4  7  1  0  0  0  0
  7  8  1  0  0  0  0
  7  9  2  0  0  0  0
  9 10  1  0  0  0  0
  9 11  1  0  0  0  0
 11 12  1  0  0  0  0
 11 13  1  0  0  0  0
 11 14  1  0  0  0  0
 14 15  1  0  0  0  0
 14 16  1  0  0  0  0
 14 17  1  0  0  0  0
M  END
> <VConfSearch Rank>
279

> <Conf_Id>
7

> <Delta U+W>
-0.041

> <U+W>
-49.468

> <U>
14.121

> <W>
-63.589

> <W(PB)>
-65.660

> <W(SA)>
2.071

> <Valence>
15.230

> <Coulomb>
-1.333

> <VdW>
0.224

> <VdW6>
-4.212

> <VdW12>
4.436

> <Bond>
0.044

> <Angle>
2.230

> <Pdih>
12.956

> <Idih>
0.000

> <Tether>
0.000

$$$$
VeraChem MOL file


 17 16  0  0  0  0  0  0  0  0999 V2000     
   18.0567   18.6148   23.9680 C   0  0  0  0  0  0  0  0  0  0  0  0
   17.2873   19.5319   23.7590 O   0  5  0  0  0  0  0  0  0  0  0  0
   18.4523   18.3096   25.0759 O   0  0  0  0  0  0  0  0  0  0  0  0
   18.5299   17.7843   22.7789 C   0  0  0  0  0  0  0  0  0  0  0  0
   17.7204   17.7633   22.0399 H   0  0  0  0  0  0  0  0  0  0  0  0
   18.6535   16.7498   23.1199 H   0  0  0  0  0  0  0  0  0  0  0  0
   19.8144   18.2597   22.1149 C   0  0  0  0  0  0  0  0  0  0  0  0
   20.1341   17.6528   21.2687 H   0  0  0  0  0  0  0  0  0  0  0  0
   20.5421   19.3219   22.4798 C   0  0  0  0  0  0  0  0  0  0  0  0
   20.2442   19.9458   23.3217 H   0  0  0  0  0  0  0  0  0  0  0  0
   21.8153   19.7518   21.7855 C   0  0  0  0  0  0  0  0  0  0  0  0
   22.5982   19.9421   22.5320 H   0  0  0  0  0  0  0  0  0  0  0  0
   22.1889   18.9494   21.1346 H   0  0  0  0  0  0  0  0  0  0  0  0
   21.5857   21.0238   20.9462 C   0  0  0  0  0  0  0  0  0  0  0  0
   22.5130   21.3319   20.4459 H   0  0  0  0  0  0  0  0  0  0  0  0
   20.8238   20.8496   20.1750 H   0  0  0  0  0  0  0  0  0  0  0  0
   21.2476   21.8547   21.5792 H   0  0  0  0  0  0  0  0  0  0  0  0
  1  2  1  0  0  0  0
  1  3  2  0  0  0  0
  1  4  1  0  0  0  0
  4  5  1  0  0  0  0
  4  6  1  0  0  0  0
  4  7  1  0  0  0  0
  7  8  1  0  0  0  0
  7  9  2  0  0  0  0
  9 10  1  0  0  0  0
  9 11  1  0  0  0  0
 11 12  1  0  0  0  0
 11 13  1  0  0  0  0
 11 14  1  0  0  0  0
 14 15  1  0  0  0  0
 14 16  1  0  0  0  0
 14 17  1  0  0  0  0
M  END
> <VConfSearch Rank>
280

> <Conf_Id>
39

> <Delta U+W>
-0.422

> <U+W>
-49.849

> <U>
14.465

> <W>
-64.314

> <W(PB)>
-66.406

> <W(SA)>
2.093

> <Valence>
14.072

> <Coulomb>
-0.199

> <VdW>
0.592

> <VdW6>
-5.019

> <VdW12>
5.611

> <Bond>
0.085

> <Angle>
2.748

> <Pdih>
11.238

> <Idih>
0.001

> <Tether>
0.000

$$$$
VeraChem MOL file


 17 16  0  0  0  0  0  0  0  0999 V2000     
   22.9909   18.2153   22.8751 C   0  0  0  0  0  0  0  0  0  0  0  0
   23.4243   17.2918   22.2146 O   0  5  0  0  0  0  0  0  0  0  0  0
   23.1413   18.3104   24.0772 O   0  0  0  0  0  0  0  0  0  0  0  0
   22.2224   19.3149   22.1541 C   0  0  0  0  0  0  0  0  0  0  0  0
   22.7417   19.5239   21.2117 H   0  0  0  0  0  0  0  0  0  0  0  0
   22.2786   20.2270   22.7604 H   0  0  0  0  0  0  0  0  0  0  0  0
   20.7804   18.9321   21.8803 C   0  0  0  0  0  0  0  0  0  0  0  0
   20.6416   18.1311   21.1548 H   0  0  0  0  0  0  0  0  0  0  0  0
   19.7262   19.5078   22.4662 C   0  0  0  0  0  0  0  0  0  0  0  0
   19.8658   20.3067   23.1938 H   0  0  0  0  0  0  0  0  0  0  0  0
   18.2892   19.1222   22.1948 C   0  0  0  0  0  0  0  0  0  0  0  0
   18.2428   18.1613   21.6640 H   0  0  0  0  0  0  0  0  0  0  0  0
   17.7568   18.9832   23.1454 H   0  0  0  0  0  0  0  0  0  0  0  0
   17.5745   20.2017   21.3587 C   0  0  0  0  0  0  0  0  0  0  0  0
   18.0748   20.3401   20.3911 H   0  0  0  0  0  0  0  0  0  0  0  0
   16.5322   19.9166   21.1655 H   0  0  0  0  0  0  0  0  0  0  0  0
   17.5723   21.1660   21.8836 H   0  0  0  0  0  0  0  0  0  0  0  0
  1  2  1  0  0  0  0
  1  3  2  0  0  0  0
  1  4  1  0  0  0  0
  4  5  1  0  0  0  0
  4  6  1  0  0  0  0
  4  7  1  0  0  0  0
  7  8  1  0  0  0  0
  7  9  2  0  0  0  0
  9 10  1  0  0  0  0
  9 11  1  0  0  0  0
 11 12  1  0  0  0  0
 11 13  1  0  0  0  0
 11 14  1  0  0  0  0
 14 15  1  0  0  0  0
 14 16  1  0  0  0  0
 14 17  1  0  0  0  0
M  END
> <VConfSearch Rank>
281

> <Conf_Id>
38

> <Delta U+W>
0.000

> <U+W>
-49.427

> <U>
13.666

> <W>
-63.093

> <W(PB)>
-65.225

> <W(SA)>
2.132

> <Valence>
15.226

> <Coulomb>
-1.822

> <VdW>
0.261

> <VdW6>
-4.165

> <VdW12>
4.426

> <Bond>
0.044

> <Angle>
2.229

> <Pdih>
12.953

> <Idih>
0.000

> <Tether>
0.000

$$$$
VeraChem MOL file


 17 16  0  0  0  0  0  0  0  0999 V2000     
   19.1920   21.2239   24.4268 C   0  0  0  0  0  0  0  0  0  0  0  0
   18.3076   20.6968   25.0724 O   0  5  0  0  0  0  0  0  0  0  0  0
   19.2246   22.4129   24.1774 O   0  0  0  0  0  0  0  0  0  0  0  0
   20.3250   20.3497   23.9056 C   0  0  0  0  0  0  0  0  0  0  0  0
   20.3873   19.4557   24.5377 H   0  0  0  0  0  0  0  0  0  0  0  0
   21.2625   20.9021   24.0383 H   0  0  0  0  0  0  0  0  0  0  0  0
   20.1444   19.9730   22.4475 C   0  0  0  0  0  0  0  0  0  0  0  0
   20.2332   20.7968   21.7399 H   0  0  0  0  0  0  0  0  0  0  0  0
   19.8907   18.7331   22.0179 C   0  0  0  0  0  0  0  0  0  0  0  0
   19.7989   17.9104   22.7262 H   0  0  0  0  0  0  0  0  0  0  0  0
   19.7070   18.3601   20.5638 C   0  0  0  0  0  0  0  0  0  0  0  0
   18.8024   17.7475   20.4497 H   0  0  0  0  0  0  0  0  0  0  0  0
   19.5574   19.2603   19.9519 H   0  0  0  0  0  0  0  0  0  0  0  0
   20.9259   17.5800   20.0339 C   0  0  0  0  0  0  0  0  0  0  0  0
   21.0763   16.6538   20.6040 H   0  0  0  0  0  0  0  0  0  0  0  0
   20.7865   17.3115   18.9786 H   0  0  0  0  0  0  0  0  0  0  0  0
   21.8398   18.1833   20.1141 H   0  0  0  0  0  0  0  0  0  0  0  0
  1  2  1  0  0  0  0
  1  3  2  0  0  0  0
  1  4  1  0  0  0  0
  4  5  1  0  0  0  0
  4  6  1  0  0  0  0
  4  7  1  0  0  0  0
  7  8  1  0  0  0  0
  7  9  2  0  0  0  0
  9 10  1  0  0  0  0
  9 11  1  0  0  0  0
 11 12  1  0  0  0  0
 11 13  1  0  0  0  0
 11 14  1  0  0  0  0
 14 15  1  0  0  0  0
 14 16  1  0  0  0  0
 14 17  1  0  0  0  0
M  END
> <VConfSearch Rank>
282

> <Conf_Id>
35

> <Delta U+W>
-0.102

> <U+W>
-49.529

> <U>
13.666

> <W>
-63.195

> <W(PB)>
-65.299

> <W(SA)>
2.103

> <Valence>
15.226

> <Coulomb>
-1.822

> <VdW>
0.261

> <VdW6>
-4.165

> <VdW12>
4.426

> <Bond>
0.044

> <Angle>
2.229

> <Pdih>
12.953

> <Idih>
0.000

> <Tether>
0.000

$$$$
VeraChem MOL file


 17 16  0  0  0  0  0  0  0  0999 V2000     
   19.5992   17.3084   19.9427 C   0  0  0  0  0  0  0  0  0  0  0  0
   20.6271   16.9613   19.3950 O   0  5  0  0  0  0  0  0  0  0  0  0
   18.6937   16.5460   20.2177 O   0  0  0  0  0  0  0  0  0  0  0  0
   19.4349   18.7812   20.2940 C   0  0  0  0  0  0  0  0  0  0  0  0
   18.3625   18.9997   20.3632 H   0  0  0  0  0  0  0  0  0  0  0  0
   19.8287   19.3707   19.4580 H   0  0  0  0  0  0  0  0  0  0  0  0
   20.1516   19.1552   21.5777 C   0  0  0  0  0  0  0  0  0  0  0  0
   21.2379   19.1109   21.5210 H   0  0  0  0  0  0  0  0  0  0  0  0
   19.5255   19.5098   22.7068 C   0  0  0  0  0  0  0  0  0  0  0  0
   18.4366   19.5385   22.7270 H   0  0  0  0  0  0  0  0  0  0  0  0
   20.1780   19.8917   24.0249 C   0  0  0  0  0  0  0  0  0  0  0  0
   19.8458   20.8995   24.3085 H   0  0  0  0  0  0  0  0  0  0  0  0
   19.8043   19.2249   24.8137 H   0  0  0  0  0  0  0  0  0  0  0  0
   21.7222   19.8526   24.0235 C   0  0  0  0  0  0  0  0  0  0  0  0
   22.1333   20.5498   23.2817 H   0  0  0  0  0  0  0  0  0  0  0  0
   22.1152   20.1389   25.0077 H   0  0  0  0  0  0  0  0  0  0  0  0
   22.0904   18.8438   23.7950 H   0  0  0  0  0  0  0  0  0  0  0  0
  1  2  1  0  0  0  0
  1  3  2  0  0  0  0
  1  4  1  0  0  0  0
  4  5  1  0  0  0  0
  4  6  1  0  0  0  0
  4  7  1  0  0  0  0
  7  8  1  0  0  0  0
  7  9  2  0  0  0  0
  9 10  1  0  0  0  0
  9 11  1  0  0  0  0
 11 12  1  0  0  0  0
 11 13  1  0  0  0  0
 11 14  1  0  0  0  0
 14 15  1  0  0  0  0
 14 16  1  0  0  0  0
 14 17  1  0  0  0  0
M  END
> <VConfSearch Rank>
283

> <Conf_Id>
19

> <Delta U+W>
-0.496

> <U+W>
-49.923

> <U>
13.863

> <W>
-63.786

> <W(PB)>
-65.856

> <W(SA)>
2.070

> <Valence>
14.117

> <Coulomb>
-1.228

> <VdW>
0.974

> <VdW6>
-4.885

> <VdW12>
5.859

> <Bond>
0.094

> <Angle>
2.818

> <Pdih>
11.205

> <Idih>
0.000

> <Tether>
0.000

$$$$
VeraChem MOL file


 17 16  0  0  0  0  0  0  0  0999 V2000     
   18.4403   21.2569   21.2827 C   0  0  0  0  0  0  0  0  0  0  0  0
   19.1710   21.8490   20.5131 O   0  5  0  0  0  0  0  0  0  0  0  0
   17.2867   20.9710   21.0286 O   0  0  0  0  0  0  0  0  0  0  0  0
   18.9949   20.8599   22.6445 C   0  0  0  0  0  0  0  0  0  0  0  0
   18.2200   21.0616   23.3931 H   0  0  0  0  0  0  0  0  0  0  0  0
   19.8423   21.5169   22.8748 H   0  0  0  0  0  0  0  0  0  0  0  0
   19.4068   19.4012   22.7012 C   0  0  0  0  0  0  0  0  0  0  0  0
   18.5890   18.6842   22.6353 H   0  0  0  0  0  0  0  0  0  0  0  0
   20.6705   18.9814   22.8151 C   0  0  0  0  0  0  0  0  0  0  0  0
   21.4883   19.6988   22.8759 H   0  0  0  0  0  0  0  0  0  0  0  0
   21.0794   17.5263   22.8685 C   0  0  0  0  0  0  0  0  0  0  0  0
   21.7743   17.3666   23.7041 H   0  0  0  0  0  0  0  0  0  0  0  0
   20.2054   16.8882   23.0587 H   0  0  0  0  0  0  0  0  0  0  0  0
   21.7509   17.0915   21.5513 C   0  0  0  0  0  0  0  0  0  0  0  0
   22.6515   17.6882   21.3553 H   0  0  0  0  0  0  0  0  0  0  0  0
   22.0452   16.0349   21.5953 H   0  0  0  0  0  0  0  0  0  0  0  0
   21.0650   17.2194   20.7035 H   0  0  0  0  0  0  0  0  0  0  0  0
  1  2  1  0  0  0  0
  1  3  2  0  0  0  0
  1  4  1  0  0  0  0
  4  5  1  0  0  0  0
  4  6  1  0  0  0  0
  4  7  1  0  0  0  0
  7  8  1  0  0  0  0
  7  9  2  0  0  0  0
  9 10  1  0  0  0  0
  9 11  1  0  0  0  0
 11 12  1  0  0  0  0
 11 13  1  0  0  0  0
 11 14  1  0  0  0  0
 14 15  1  0  0  0  0
 14 16  1  0  0  0  0
 14 17  1  0  0  0  0
M  END
> <VConfSearch Rank>
284

> <Conf_Id>
7

> <Delta U+W>
-0.041

> <U+W>
-49.468

> <U>
14.121

> <W>
-63.589

> <W(PB)>
-65.660

> <W(SA)>
2.071

> <Valence>
15.230

> <Coulomb>
-1.333

> <VdW>
0.224

> <VdW6>
-4.212

> <VdW12>
4.436

> <Bond>
0.044

> <Angle>
2.230

> <Pdih>
12.956

> <Idih>
0.000

> <Tether>
0.000

$$$$
VeraChem MOL file


 17 16  0  0  0  0  0  0  0  0999 V2000     
   20.5456   16.7809   23.3818 C   0  0  0  0  0  0  0  0  0  0  0  0
   21.2661   16.2717   22.5459 O   0  5  0  0  0  0  0  0  0  0  0  0
   19.5122   16.2761   23.7745 O   0  0  0  0  0  0  0  0  0  0  0  0
   20.9756   18.1118   23.9911 C   0  0  0  0  0  0  0  0  0  0  0  0
   22.0714   18.1317   24.0166 H   0  0  0  0  0  0  0  0  0  0  0  0
   20.6496   18.1228   25.0377 H   0  0  0  0  0  0  0  0  0  0  0  0
   20.4592   19.3562   23.2827 C   0  0  0  0  0  0  0  0  0  0  0  0
   20.7777   20.2950   23.7340 H   0  0  0  0  0  0  0  0  0  0  0  0
   19.6801   19.3758   22.1948 C   0  0  0  0  0  0  0  0  0  0  0  0
   19.3483   18.4514   21.7235 H   0  0  0  0  0  0  0  0  0  0  0  0
   19.1920   20.6431   21.5287 C   0  0  0  0  0  0  0  0  0  0  0  0
   18.1122   20.5706   21.3408 H   0  0  0  0  0  0  0  0  0  0  0  0
   19.3392   21.5075   22.1908 H   0  0  0  0  0  0  0  0  0  0  0  0
   19.9296   20.8885   20.1981 C   0  0  0  0  0  0  0  0  0  0  0  0
   19.5706   21.8084   19.7185 H   0  0  0  0  0  0  0  0  0  0  0  0
   21.0102   20.9901   20.3644 H   0  0  0  0  0  0  0  0  0  0  0  0
   19.7679   20.0555   19.5014 H   0  0  0  0  0  0  0  0  0  0  0  0
  1  2  1  0  0  0  0
  1  3  2  0  0  0  0
  1  4  1  0  0  0  0
  4  5  1  0  0  0  0
  4  6  1  0  0  0  0
  4  7  1  0  0  0  0
  7  8  1  0  0  0  0
  7  9  2  0  0  0  0
  9 10  1  0  0  0  0
  9 11  1  0  0  0  0
 11 12  1  0  0  0  0
 11 13  1  0  0  0  0
 11 14  1  0  0  0  0
 14 15  1  0  0  0  0
 14 16  1  0  0  0  0
 14 17  1  0  0  0  0
M  END
> <VConfSearch Rank>
285

> <Conf_Id>
39

> <Delta U+W>
-0.422

> <U+W>
-49.849

> <U>
14.465

> <W>
-64.314

> <W(PB)>
-66.406

> <W(SA)>
2.093

> <Valence>
14.072

> <Coulomb>
-0.199

> <VdW>
0.592

> <VdW6>
-5.019

> <VdW12>
5.611

> <Bond>
0.085

> <Angle>
2.748

> <Pdih>
11.238

> <Idih>
0.001

> <Tether>
0.000

$$$$
VeraChem MOL file


 17 16  0  0  0  0  0  0  0  0999 V2000     
   20.4013   16.5364   23.6671 C   0  0  0  0  0  0  0  0  0  0  0  0
   19.5017   16.2492   24.4321 O   0  5  0  0  0  0  0  0  0  0  0  0
   21.5762   16.3392   23.9072 O   0  0  0  0  0  0  0  0  0  0  0  0
   20.0337   17.1732   22.3334 C   0  0  0  0  0  0  0  0  0  0  0  0
   19.1447   16.6588   21.9504 H   0  0  0  0  0  0  0  0  0  0  0  0
   20.8473   16.9785   21.6244 H   0  0  0  0  0  0  0  0  0  0  0  0
   19.7628   18.6607   22.4549 C   0  0  0  0  0  0  0  0  0  0  0  0
   18.8676   18.9260   23.0165 H   0  0  0  0  0  0  0  0  0  0  0  0
   20.5411   19.6113   21.9288 C   0  0  0  0  0  0  0  0  0  0  0  0
   21.4377   19.3454   21.3699 H   0  0  0  0  0  0  0  0  0  0  0  0
   20.2714   21.0942   22.0543 C   0  0  0  0  0  0  0  0  0  0  0  0
   19.5177   21.2834   22.8310 H   0  0  0  0  0  0  0  0  0  0  0  0
   21.1870   21.6120   22.3707 H   0  0  0  0  0  0  0  0  0  0  0  0
   19.7842   21.6836   20.7163 C   0  0  0  0  0  0  0  0  0  0  0  0
   18.8542   21.1982   20.3920 H   0  0  0  0  0  0  0  0  0  0  0  0
   19.5908   22.7598   20.8133 H   0  0  0  0  0  0  0  0  0  0  0  0
   20.5363   21.5423   19.9290 H   0  0  0  0  0  0  0  0  0  0  0  0
  1  2  1  0  0  0  0
  1  3  2  0  0  0  0
  1  4  1  0  0  0  0
  4  5  1  0  0  0  0
  4  6  1  0  0  0  0
  4  7  1  0  0  0  0
  7  8  1  0  0  0  0
  7  9  2  0  0  0  0
  9 10  1  0  0  0  0
  9 11  1  0  0  0  0
 11 12  1  0  0  0  0
 11 13  1  0  0  0  0
 11 14  1  0  0  0  0
 14 15  1  0  0  0  0
 14 16  1  0  0  0  0
 14 17  1  0  0  0  0
M  END
> <VConfSearch Rank>
286

> <Conf_Id>
38

> <Delta U+W>
0.000

> <U+W>
-49.427

> <U>
13.666

> <W>
-63.093

> <W(PB)>
-65.225

> <W(SA)>
2.132

> <Valence>
15.226

> <Coulomb>
-1.822

> <VdW>
0.261

> <VdW6>
-4.165

> <VdW12>
4.426

> <Bond>
0.044

> <Angle>
2.229

> <Pdih>
12.953

> <Idih>
0.000

> <Tether>
0.000

$$$$
VeraChem MOL file


 17 16  0  0  0  0  0  0  0  0999 V2000     
   19.5139   19.5571   19.0058 C   0  0  0  0  0  0  0  0  0  0  0  0
   20.4658   20.0938   18.4742 O   0  5  0  0  0  0  0  0  0  0  0  0
   18.3602   19.7629   18.6837 O   0  0  0  0  0  0  0  0  0  0  0  0
   19.7790   18.5685   20.1335 C   0  0  0  0  0  0  0  0  0  0  0  0
   20.7985   18.1814   20.0179 H   0  0  0  0  0  0  0  0  0  0  0  0
   19.0972   17.7203   20.0025 H   0  0  0  0  0  0  0  0  0  0  0  0
   19.5843   19.1861   21.5052 C   0  0  0  0  0  0  0  0  0  0  0  0
   18.5570   19.4494   21.7551 H   0  0  0  0  0  0  0  0  0  0  0  0
   20.5739   19.4114   22.3748 C   0  0  0  0  0  0  0  0  0  0  0  0
   21.6014   19.1507   22.1229 H   0  0  0  0  0  0  0  0  0  0  0  0
   20.3785   20.0310   23.7405 C   0  0  0  0  0  0  0  0  0  0  0  0
   21.1120   20.8346   23.8913 H   0  0  0  0  0  0  0  0  0  0  0  0
   19.3845   20.4934   23.8142 H   0  0  0  0  0  0  0  0  0  0  0  0
   20.5346   18.9773   24.8542 C   0  0  0  0  0  0  0  0  0  0  0  0
   21.5348   18.5250   24.8282 H   0  0  0  0  0  0  0  0  0  0  0  0
   20.3925   19.4329   25.8428 H   0  0  0  0  0  0  0  0  0  0  0  0
   19.7935   18.1753   24.7389 H   0  0  0  0  0  0  0  0  0  0  0  0
  1  2  1  0  0  0  0
  1  3  2  0  0  0  0
  1  4  1  0  0  0  0
  4  5  1  0  0  0  0
  4  6  1  0  0  0  0
  4  7  1  0  0  0  0
  7  8  1  0  0  0  0
  7  9  2  0  0  0  0
  9 10  1  0  0  0  0
  9 11  1  0  0  0  0
 11 12  1  0  0  0  0
 11 13  1  0  0  0  0
 11 14  1  0  0  0  0
 14 15  1  0  0  0  0
 14 16  1  0  0  0  0
 14 17  1  0  0  0  0
M  END
> <VConfSearch Rank>
287

> <Conf_Id>
35

> <Delta U+W>
-0.102

> <U+W>
-49.529

> <U>
13.666

> <W>
-63.195

> <W(PB)>
-65.299

> <W(SA)>
2.103

> <Valence>
15.226

> <Coulomb>
-1.822

> <VdW>
0.261

> <VdW6>
-4.165

> <VdW12>
4.426

> <Bond>
0.044

> <Angle>
2.229

> <Pdih>
12.953

> <Idih>
0.000

> <Tether>
0.000

$$$$
VeraChem MOL file


 17 16  0  0  0  0  0  0  0  0999 V2000     
   17.9668   19.1856   20.3037 C   0  0  0  0  0  0  0  0  0  0  0  0
   18.3699   18.9871   19.1744 O   0  5  0  0  0  0  0  0  0  0  0  0
   16.9766   18.6546   20.7667 O   0  0  0  0  0  0  0  0  0  0  0  0
   18.7408   20.1604   21.1813 C   0  0  0  0  0  0  0  0  0  0  0  0
   18.0580   20.5497   21.9461 H   0  0  0  0  0  0  0  0  0  0  0  0
   19.0390   21.0097   20.5559 H   0  0  0  0  0  0  0  0  0  0  0  0
   19.9643   19.5255   21.8148 C   0  0  0  0  0  0  0  0  0  0  0  0
   20.7533   19.2604   21.1131 H   0  0  0  0  0  0  0  0  0  0  0  0
   20.0901   19.2923   23.1272 C   0  0  0  0  0  0  0  0  0  0  0  0
   19.2773   19.5673   23.7986 H   0  0  0  0  0  0  0  0  0  0  0  0
   21.2812   18.6590   23.8264 C   0  0  0  0  0  0  0  0  0  0  0  0
   21.6584   19.3542   24.5886 H   0  0  0  0  0  0  0  0  0  0  0  0
   20.9405   17.7725   24.3783 H   0  0  0  0  0  0  0  0  0  0  0  0
   22.4448   18.2543   22.8946 C   0  0  0  0  0  0  0  0  0  0  0  0
   22.8477   19.1277   22.3652 H   0  0  0  0  0  0  0  0  0  0  0  0
   23.2627   17.8052   23.4730 H   0  0  0  0  0  0  0  0  0  0  0  0
   22.1154   17.5174   22.1503 H   0  0  0  0  0  0  0  0  0  0  0  0
  1  2  1  0  0  0  0
  1  3  2  0  0  0  0
  1  4  1  0  0  0  0
  4  5  1  0  0  0  0
  4  6  1  0  0  0  0
  4  7  1  0  0  0  0
  7  8  1  0  0  0  0
  7  9  2  0  0  0  0
  9 10  1  0  0  0  0
  9 11  1  0  0  0  0
 11 12  1  0  0  0  0
 11 13  1  0  0  0  0
 11 14  1  0  0  0  0
 14 15  1  0  0  0  0
 14 16  1  0  0  0  0
 14 17  1  0  0  0  0
M  END
> <VConfSearch Rank>
288

> <Conf_Id>
19

> <Delta U+W>
-0.496

> <U+W>
-49.923

> <U>
13.863

> <W>
-63.786

> <W(PB)>
-65.856

> <W(SA)>
2.070

> <Valence>
14.117

> <Coulomb>
-1.228

> <VdW>
0.974

> <VdW6>
-4.885

> <VdW12>
5.859

> <Bond>
0.094

> <Angle>
2.818

> <Pdih>
11.205

> <Idih>
0.000

> <Tether>
0.000

$$$$
VeraChem MOL file


 17 16  0  0  0  0  0  0  0  0999 V2000     
   17.2803   18.5988   21.8609 C   0  0  0  0  0  0  0  0  0  0  0  0
   17.0443   19.2032   20.8334 O   0  5  0  0  0  0  0  0  0  0  0  0
   16.8826   17.4723   22.0844 O   0  0  0  0  0  0  0  0  0  0  0  0
   18.1105   19.2927   22.9328 C   0  0  0  0  0  0  0  0  0  0  0  0
   17.6530   19.0735   23.9045 H   0  0  0  0  0  0  0  0  0  0  0  0
   18.0335   20.3758   22.7789 H   0  0  0  0  0  0  0  0  0  0  0  0
   19.5595   18.8443   22.9262 C   0  0  0  0  0  0  0  0  0  0  0  0
   19.7275   17.8099   23.2245 H   0  0  0  0  0  0  0  0  0  0  0  0
   20.5863   19.6262   22.5789 C   0  0  0  0  0  0  0  0  0  0  0  0
   20.4172   20.6589   22.2758 H   0  0  0  0  0  0  0  0  0  0  0  0
   22.0301   19.1761   22.5702 C   0  0  0  0  0  0  0  0  0  0  0  0
   22.6532   19.9183   23.0874 H   0  0  0  0  0  0  0  0  0  0  0  0
   22.1418   18.2319   23.1209 H   0  0  0  0  0  0  0  0  0  0  0  0
   22.5428   18.9894   21.1289 C   0  0  0  0  0  0  0  0  0  0  0  0
   22.4790   19.9296   20.5656 H   0  0  0  0  0  0  0  0  0  0  0  0
   23.5908   18.6624   21.1285 H   0  0  0  0  0  0  0  0  0  0  0  0
   21.9493   18.2326   20.5992 H   0  0  0  0  0  0  0  0  0  0  0  0
  1  2  1  0  0  0  0
  1  3  2  0  0  0  0
  1  4  1  0  0  0  0
  4  5  1  0  0  0  0
  4  6  1  0  0  0  0
  4  7  1  0  0  0  0
  7  8  1  0  0  0  0
  7  9  2  0  0  0  0
  9 10  1  0  0  0  0
  9 11  1  0  0  0  0
 11 12  1  0  0  0  0
 11 13  1  0  0  0  0
 11 14  1  0  0  0  0
 14 15  1  0  0  0  0
 14 16  1  0  0  0  0
 14 17  1  0  0  0  0
M  END
> <VConfSearch Rank>
289

> <Conf_Id>
7

> <Delta U+W>
-0.041

> <U+W>
-49.468

> <U>
14.121

> <W>
-63.589

> <W(PB)>
-65.660

> <W(SA)>
2.071

> <Valence>
15.230

> <Coulomb>
-1.333

> <VdW>
0.224

> <VdW6>
-4.212

> <VdW12>
4.436

> <Bond>
0.044

> <Angle>
2.230

> <Pdih>
12.956

> <Idih>
0.000

> <Tether>
0.000

$$$$
VeraChem MOL file


 17 16  0  0  0  0  0  0  0  0999 V2000     
   22.6694   18.9835   21.2203 C   0  0  0  0  0  0  0  0  0  0  0  0
   22.5678   17.9085   20.6626 O   0  5  0  0  0  0  0  0  0  0  0  0
   23.5331   19.2372   22.0368 O   0  0  0  0  0  0  0  0  0  0  0  0
   21.6764   20.0828   20.8553 C   0  0  0  0  0  0  0  0  0  0  0  0
   21.3990   19.9497   19.8032 H   0  0  0  0  0  0  0  0  0  0  0  0
   22.2034   21.0426   20.9090 H   0  0  0  0  0  0  0  0  0  0  0  0
   20.4188   20.1427   21.7108 C   0  0  0  0  0  0  0  0  0  0  0  0
   19.7239   20.9344   21.4334 H   0  0  0  0  0  0  0  0  0  0  0  0
   20.1210   19.3279   22.7297 C   0  0  0  0  0  0  0  0  0  0  0  0
   20.7979   18.5278   23.0269 H   0  0  0  0  0  0  0  0  0  0  0  0
   18.8549   19.4311   23.5510 C   0  0  0  0  0  0  0  0  0  0  0  0
   19.1032   19.3961   24.6204 H   0  0  0  0  0  0  0  0  0  0  0  0
   18.3587   20.3953   23.3742 H   0  0  0  0  0  0  0  0  0  0  0  0
   17.8804   18.2863   23.2121 C   0  0  0  0  0  0  0  0  0  0  0  0
   16.9643   18.3654   23.8118 H   0  0  0  0  0  0  0  0  0  0  0  0
   17.5974   18.3165   22.1517 H   0  0  0  0  0  0  0  0  0  0  0  0
   18.3380   17.3094   23.4161 H   0  0  0  0  0  0  0  0  0  0  0  0
  1  2  1  0  0  0  0
  1  3  2  0  0  0  0
  1  4  1  0  0  0  0
  4  5  1  0  0  0  0
  4  6  1  0  0  0  0
  4  7  1  0  0  0  0
  7  8  1  0  0  0  0
  7  9  2  0  0  0  0
  9 10  1  0  0  0  0
  9 11  1  0  0  0  0
 11 12  1  0  0  0  0
 11 13  1  0  0  0  0
 11 14  1  0  0  0  0
 14 15  1  0  0  0  0
 14 16  1  0  0  0  0
 14 17  1  0  0  0  0
M  END
> <VConfSearch Rank>
290

> <Conf_Id>
39

> <Delta U+W>
-0.422

> <U+W>
-49.849

> <U>
14.465

> <W>
-64.314

> <W(PB)>
-66.406

> <W(SA)>
2.093

> <Valence>
14.072

> <Coulomb>
-0.199

> <VdW>
0.592

> <VdW6>
-5.019

> <VdW12>
5.611

> <Bond>
0.085

> <Angle>
2.748

> <Pdih>
11.238

> <Idih>
0.001

> <Tether>
0.000

$$$$
VeraChem MOL file


 17 16  0  0  0  0  0  0  0  0999 V2000     
   19.6092   22.3071   21.3537 C   0  0  0  0  0  0  0  0  0  0  0  0
   18.8467   22.5194   20.4316 O   0  5  0  0  0  0  0  0  0  0  0  0
   20.6326   22.9361   21.5378 O   0  0  0  0  0  0  0  0  0  0  0  0
   19.2585   21.1956   22.3340 C   0  0  0  0  0  0  0  0  0  0  0  0
   18.1808   21.2472   22.5274 H   0  0  0  0  0  0  0  0  0  0  0  0
   19.7651   21.4035   23.2841 H   0  0  0  0  0  0  0  0  0  0  0  0
   19.6283   19.8210   21.8101 C   0  0  0  0  0  0  0  0  0  0  0  0
   19.0464   19.4769   20.9556 H   0  0  0  0  0  0  0  0  0  0  0  0
   20.5932   19.0545   22.3276 C   0  0  0  0  0  0  0  0  0  0  0  0
   21.1768   19.4005   23.1802 H   0  0  0  0  0  0  0  0  0  0  0  0
   20.9632   17.6857   21.8015 C   0  0  0  0  0  0  0  0  0  0  0  0
   20.5219   17.5234   20.8085 H   0  0  0  0  0  0  0  0  0  0  0  0
   22.0525   17.6183   21.6772 H   0  0  0  0  0  0  0  0  0  0  0  0
   20.4858   16.5767   22.7592 C   0  0  0  0  0  0  0  0  0  0  0  0
   19.3948   16.6081   22.8791 H   0  0  0  0  0  0  0  0  0  0  0  0
   20.7576   15.5859   22.3725 H   0  0  0  0  0  0  0  0  0  0  0  0
   20.9423   16.6923   23.7510 H   0  0  0  0  0  0  0  0  0  0  0  0
  1  2  1  0  0  0  0
  1  3  2  0  0  0  0
  1  4  1  0  0  0  0
  4  5  1  0  0  0  0
  4  6  1  0  0  0  0
  4  7  1  0  0  0  0
  7  8  1  0  0  0  0
  7  9  2  0  0  0  0
  9 10  1  0  0  0  0
  9 11  1  0  0  0  0
 11 12  1  0  0  0  0
 11 13  1  0  0  0  0
 11 14  1  0  0  0  0
 14 15  1  0  0  0  0
 14 16  1  0  0  0  0
 14 17  1  0  0  0  0
M  END
> <VConfSearch Rank>
291

> <Conf_Id>
38

> <Delta U+W>
0.000

> <U+W>
-49.427

> <U>
13.666

> <W>
-63.093

> <W(PB)>
-65.225

> <W(SA)>
2.132

> <Valence>
15.226

> <Coulomb>
-1.822

> <VdW>
0.261

> <VdW6>
-4.165

> <VdW12>
4.426

> <Bond>
0.044

> <Angle>
2.229

> <Pdih>
12.953

> <Idih>
0.000

> <Tether>
0.000

$$$$
VeraChem MOL file


 17 16  0  0  0  0  0  0  0  0999 V2000     
   22.7031   19.2651   23.8847 C   0  0  0  0  0  0  0  0  0  0  0  0
   22.4609   18.7271   24.9471 O   0  5  0  0  0  0  0  0  0  0  0  0
   23.4383   20.2260   23.7702 O   0  0  0  0  0  0  0  0  0  0  0  0
   22.0555   18.7026   22.6262 C   0  0  0  0  0  0  0  0  0  0  0  0
   21.7994   17.6526   22.8120 H   0  0  0  0  0  0  0  0  0  0  0  0
   22.8079   18.7129   21.8291 H   0  0  0  0  0  0  0  0  0  0  0  0
   20.8334   19.4929   22.1989 C   0  0  0  0  0  0  0  0  0  0  0  0
   21.0337   20.5033   21.8436 H   0  0  0  0  0  0  0  0  0  0  0  0
   19.5827   19.0235   22.2415 C   0  0  0  0  0  0  0  0  0  0  0  0
   19.3828   18.0143   22.5999 H   0  0  0  0  0  0  0  0  0  0  0  0
   18.3649   19.8144   21.8188 C   0  0  0  0  0  0  0  0  0  0  0  0
   17.5886   19.7414   22.5925 H   0  0  0  0  0  0  0  0  0  0  0  0
   18.6135   20.8802   21.7211 H   0  0  0  0  0  0  0  0  0  0  0  0
   17.8056   19.2964   20.4794 C   0  0  0  0  0  0  0  0  0  0  0  0
   17.5125   18.2413   20.5591 H   0  0  0  0  0  0  0  0  0  0  0  0
   16.9217   19.8736   20.1782 H   0  0  0  0  0  0  0  0  0  0  0  0
   18.5569   19.3835   19.6834 H   0  0  0  0  0  0  0  0  0  0  0  0
  1  2  1  0  0  0  0
  1  3  2  0  0  0  0
  1  4  1  0  0  0  0
  4  5  1  0  0  0  0
  4  6  1  0  0  0  0
  4  7  1  0  0  0  0
  7  8  1  0  0  0  0
  7  9  2  0  0  0  0
  9 10  1  0  0  0  0
  9 11  1  0  0  0  0
 11 12  1  0  0  0  0
 11 13  1  0  0  0  0
 11 14  1  0  0  0  0
 14 15  1  0  0  0  0
 14 16  1  0  0  0  0
 14 17  1  0  0  0  0
M  END
> <VConfSearch Rank>
292

> <Conf_Id>
35

> <Delta U+W>
-0.102

> <U+W>
-49.529

> <U>
13.666

> <W>
-63.195

> <W(PB)>
-65.299

> <W(SA)>
2.103

> <Valence>
15.226

> <Coulomb>
-1.822

> <VdW>
0.261

> <VdW6>
-4.165

> <VdW12>
4.426

> <Bond>
0.044

> <Angle>
2.229

> <Pdih>
12.953

> <Idih>
0.000

> <Tether>
0.000

$$$$
VeraChem MOL file


 17 16  0  0  0  0  0  0  0  0999 V2000     
   21.4116   21.6327   21.2691 C   0  0  0  0  0  0  0  0  0  0  0  0
   20.5590   22.3190   20.7409 O   0  5  0  0  0  0  0  0  0  0  0  0
   22.2217   22.0629   22.0664 O   0  0  0  0  0  0  0  0  0  0  0  0
   21.4725   20.1555   20.9036 C   0  0  0  0  0  0  0  0  0  0  0  0
   22.4907   19.7963   21.0956 H   0  0  0  0  0  0  0  0  0  0  0  0
   21.3010   20.0704   19.8243 H   0  0  0  0  0  0  0  0  0  0  0  0
   20.4505   19.3278   21.6598 C   0  0  0  0  0  0  0  0  0  0  0  0
   19.4147   19.5297   21.3924 H   0  0  0  0  0  0  0  0  0  0  0  0
   20.7665   18.4187   22.5906 C   0  0  0  0  0  0  0  0  0  0  0  0
   21.8143   18.2469   22.8349 H   0  0  0  0  0  0  0  0  0  0  0  0
   19.7979   17.5603   23.3865 C   0  0  0  0  0  0  0  0  0  0  0  0
   20.0410   16.5018   23.2218 H   0  0  0  0  0  0  0  0  0  0  0  0
   19.9623   17.7375   24.4580 H   0  0  0  0  0  0  0  0  0  0  0  0
   18.3051   17.7899   23.0625 C   0  0  0  0  0  0  0  0  0  0  0  0
   18.0923   17.5691   22.0083 H   0  0  0  0  0  0  0  0  0  0  0  0
   17.6729   17.1361   23.6770 H   0  0  0  0  0  0  0  0  0  0  0  0
   18.0130   18.8285   23.2666 H   0  0  0  0  0  0  0  0  0  0  0  0
  1  2  1  0  0  0  0
  1  3  2  0  0  0  0
  1  4  1  0  0  0  0
  4  5  1  0  0  0  0
  4  6  1  0  0  0  0
  4  7  1  0  0  0  0
  7  8  1  0  0  0  0
  7  9  2  0  0  0  0
  9 10  1  0  0  0  0
  9 11  1  0  0  0  0
 11 12  1  0  0  0  0
 11 13  1  0  0  0  0
 11 14  1  0  0  0  0
 14 15  1  0  0  0  0
 14 16  1  0  0  0  0
 14 17  1  0  0  0  0
M  END
> <VConfSearch Rank>
293

> <Conf_Id>
19

> <Delta U+W>
-0.496

> <U+W>
-49.923

> <U>
13.863

> <W>
-63.786

> <W(PB)>
-65.856

> <W(SA)>
2.070

> <Valence>
14.117

> <Coulomb>
-1.228

> <VdW>
0.974

> <VdW6>
-4.885

> <VdW12>
5.859

> <Bond>
0.094

> <Angle>
2.818

> <Pdih>
11.205

> <Idih>
0.000

> <Tether>
0.000

$$$$
VeraChem MOL file


 17 16  0  0  0  0  0  0  0  0999 V2000     
   21.1856   21.7997   21.9258 C   0  0  0  0  0  0  0  0  0  0  0  0
   21.3244   22.1457   23.0825 O   0  5  0  0  0  0  0  0  0  0  0  0
   22.0267   21.9752   21.0663 O   0  0  0  0  0  0  0  0  0  0  0  0
   19.8831   21.1184   21.5269 C   0  0  0  0  0  0  0  0  0  0  0  0
   19.5752   21.5267   20.5574 H   0  0  0  0  0  0  0  0  0  0  0  0
   19.1117   21.4006   22.2535 H   0  0  0  0  0  0  0  0  0  0  0  0
   20.0200   19.6104   21.4374 C   0  0  0  0  0  0  0  0  0  0  0  0
   20.6554   19.2483   20.6297 H   0  0  0  0  0  0  0  0  0  0  0  0
   19.4283   18.7515   22.2730 C   0  0  0  0  0  0  0  0  0  0  0  0
   18.7972   19.1143   23.0836 H   0  0  0  0  0  0  0  0  0  0  0  0
   19.5685   17.2482   22.1837 C   0  0  0  0  0  0  0  0  0  0  0  0
   18.5772   16.7789   22.2444 H   0  0  0  0  0  0  0  0  0  0  0  0
   19.9956   16.9589   21.2137 H   0  0  0  0  0  0  0  0  0  0  0  0
   20.4631   16.7078   23.3162 C   0  0  0  0  0  0  0  0  0  0  0  0
   20.0390   16.9494   24.2996 H   0  0  0  0  0  0  0  0  0  0  0  0
   20.5619   15.6167   23.2464 H   0  0  0  0  0  0  0  0  0  0  0  0
   21.4687   17.1453   23.2608 H   0  0  0  0  0  0  0  0  0  0  0  0
  1  2  1  0  0  0  0
  1  3  2  0  0  0  0
  1  4  1  0  0  0  0
  4  5  1  0  0  0  0
  4  6  1  0  0  0  0
  4  7  1  0  0  0  0
  7  8  1  0  0  0  0
  7  9  2  0  0  0  0
  9 10  1  0  0  0  0
  9 11  1  0  0  0  0
 11 12  1  0  0  0  0
 11 13  1  0  0  0  0
 11 14  1  0  0  0  0
 14 15  1  0  0  0  0
 14 16  1  0  0  0  0
 14 17  1  0  0  0  0
M  END
> <VConfSearch Rank>
294

> <Conf_Id>
7

> <Delta U+W>
-0.041

> <U+W>
-49.468

> <U>
14.121

> <W>
-63.589

> <W(PB)>
-65.660

> <W(SA)>
2.071

> <Valence>
15.230

> <Coulomb>
-1.333

> <VdW>
0.224

> <VdW6>
-4.212

> <VdW12>
4.436

> <Bond>
0.044

> <Angle>
2.230

> <Pdih>
12.956

> <Idih>
0.000

> <Tether>
0.000

$$$$
VeraChem MOL file


 17 16  0  0  0  0  0  0  0  0999 V2000     
   19.4992   21.9289   21.8488 C   0  0  0  0  0  0  0  0  0  0  0  0
   20.6081   22.4156   21.7469 O   0  5  0  0  0  0  0  0  0  0  0  0
   18.6596   22.3292   22.6310 O   0  0  0  0  0  0  0  0  0  0  0  0
   19.1315   20.7711   20.9257 C   0  0  0  0  0  0  0  0  0  0  0  0
   19.6660   20.9128   19.9792 H   0  0  0  0  0  0  0  0  0  0  0  0
   18.0654   20.8585   20.6859 H   0  0  0  0  0  0  0  0  0  0  0  0
   19.4195   19.3793   21.4707 C   0  0  0  0  0  0  0  0  0  0  0  0
   19.1495   18.5678   20.7961 H   0  0  0  0  0  0  0  0  0  0  0  0
   19.9576   19.0972   22.6631 C   0  0  0  0  0  0  0  0  0  0  0  0
   20.2374   19.8899   23.3560 H   0  0  0  0  0  0  0  0  0  0  0  0
   20.2225   17.6929   23.1587 C   0  0  0  0  0  0  0  0  0  0  0  0
   19.8383   17.5826   24.1818 H   0  0  0  0  0  0  0  0  0  0  0  0
   19.6877   16.9589   22.5405 H   0  0  0  0  0  0  0  0  0  0  0  0
   21.7302   17.3741   23.1391 C   0  0  0  0  0  0  0  0  0  0  0  0
   21.9167   16.3546   23.5009 H   0  0  0  0  0  0  0  0  0  0  0  0
   22.1320   17.4531   22.1203 H   0  0  0  0  0  0  0  0  0  0  0  0
   22.2860   18.0705   23.7806 H   0  0  0  0  0  0  0  0  0  0  0  0
  1  2  1  0  0  0  0
  1  3  2  0  0  0  0
  1  4  1  0  0  0  0
  4  5  1  0  0  0  0
  4  6  1  0  0  0  0
  4  7  1  0  0  0  0
  7  8  1  0  0  0  0
  7  9  2  0  0  0  0
  9 10  1  0  0  0  0
  9 11  1  0  0  0  0
 11 12  1  0  0  0  0
 11 13  1  0  0  0  0
 11 14  1  0  0  0  0
 14 15  1  0  0  0  0
 14 16  1  0  0  0  0
 14 17  1  0  0  0  0
M  END
> <VConfSearch Rank>
295

> <Conf_Id>
39

> <Delta U+W>
-0.422

> <U+W>
-49.849

> <U>
14.465

> <W>
-64.314

> <W(PB)>
-66.406

> <W(SA)>
2.093

> <Valence>
14.072

> <Coulomb>
-0.199

> <VdW>
0.592

> <VdW6>
-5.019

> <VdW12>
5.611

> <Bond>
0.085

> <Angle>
2.748

> <Pdih>
11.238

> <Idih>
0.001

> <Tether>
0.000

$$$$
VeraChem MOL file


 17 16  0  0  0  0  0  0  0  0999 V2000     
   19.4586   16.7138   23.8492 C   0  0  0  0  0  0  0  0  0  0  0  0
   19.6272   16.8166   25.0483 O   0  5  0  0  0  0  0  0  0  0  0  0
   19.7420   15.7175   23.2137 O   0  0  0  0  0  0  0  0  0  0  0  0
   18.8540   17.8972   23.1052 C   0  0  0  0  0  0  0  0  0  0  0  0
   18.0524   18.3105   23.7283 H   0  0  0  0  0  0  0  0  0  0  0  0
   18.3857   17.5224   22.1871 H   0  0  0  0  0  0  0  0  0  0  0  0
   19.8780   18.9719   22.7934 C   0  0  0  0  0  0  0  0  0  0  0  0
   20.2711   19.5047   23.6588 H   0  0  0  0  0  0  0  0  0  0  0  0
   20.2979   19.2744   21.5612 C   0  0  0  0  0  0  0  0  0  0  0  0
   19.9066   18.7393   20.6966 H   0  0  0  0  0  0  0  0  0  0  0  0
   21.3219   20.3438   21.2526 C   0  0  0  0  0  0  0  0  0  0  0  0
   21.8474   20.6485   22.1682 H   0  0  0  0  0  0  0  0  0  0  0  0
   22.0837   19.9419   20.5709 H   0  0  0  0  0  0  0  0  0  0  0  0
   20.6579   21.5777   20.6110 C   0  0  0  0  0  0  0  0  0  0  0  0
   19.9092   22.0129   21.2861 H   0  0  0  0  0  0  0  0  0  0  0  0
   21.4059   22.3499   20.3888 H   0  0  0  0  0  0  0  0  0  0  0  0
   20.1565   21.3089   19.6720 H   0  0  0  0  0  0  0  0  0  0  0  0
  1  2  1  0  0  0  0
  1  3  2  0  0  0  0
  1  4  1  0  0  0  0
  4  5  1  0  0  0  0
  4  6  1  0  0  0  0
  4  7  1  0  0  0  0
  7  8  1  0  0  0  0
  7  9  2  0  0  0  0
  9 10  1  0  0  0  0
  9 11  1  0  0  0  0
 11 12  1  0  0  0  0
 11 13  1  0  0  0  0
 11 14  1  0  0  0  0
 14 15  1  0  0  0  0
 14 16  1  0  0  0  0
 14 17  1  0  0  0  0
M  END
> <VConfSearch Rank>
296

> <Conf_Id>
38

> <Delta U+W>
0.000

> <U+W>
-49.427

> <U>
13.666

> <W>
-63.093

> <W(PB)>
-65.225

> <W(SA)>
2.132

> <Valence>
15.226

> <Coulomb>
-1.822

> <VdW>
0.261

> <VdW6>
-4.165

> <VdW12>
4.426

> <Bond>
0.044

> <Angle>
2.229

> <Pdih>
12.953

> <Idih>
0.000

> <Tether>
0.000

$$$$
VeraChem MOL file


 17 16  0  0  0  0  0  0  0  0999 V2000     
   22.4728   18.8558   20.0679 C   0  0  0  0  0  0  0  0  0  0  0  0
   22.0546   18.9851   18.9342 O   0  5  0  0  0  0  0  0  0  0  0  0
   23.3213   18.0447   20.3827 O   0  0  0  0  0  0  0  0  0  0  0  0
   21.9081   19.7624   21.1537 C   0  0  0  0  0  0  0  0  0  0  0  0
   21.5145   20.6670   20.6749 H   0  0  0  0  0  0  0  0  0  0  0  0
   22.7402   20.0752   21.7950 H   0  0  0  0  0  0  0  0  0  0  0  0
   20.8393   19.0778   21.9841 C   0  0  0  0  0  0  0  0  0  0  0  0
   21.1920   18.2635   22.6164 H   0  0  0  0  0  0  0  0  0  0  0  0
   19.5461   19.4151   21.9697 C   0  0  0  0  0  0  0  0  0  0  0  0
   19.1935   20.2273   21.3348 H   0  0  0  0  0  0  0  0  0  0  0  0
   18.4811   18.7288   22.7955 C   0  0  0  0  0  0  0  0  0  0  0  0
   17.6208   18.4810   22.1590 H   0  0  0  0  0  0  0  0  0  0  0  0
   18.8594   17.7790   23.1980 H   0  0  0  0  0  0  0  0  0  0  0  0
   18.0176   19.6272   23.9588 C   0  0  0  0  0  0  0  0  0  0  0  0
   17.5986   20.5698   23.5828 H   0  0  0  0  0  0  0  0  0  0  0  0
   17.2444   19.1241   24.5539 H   0  0  0  0  0  0  0  0  0  0  0  0
   18.8573   19.8674   24.6243 H   0  0  0  0  0  0  0  0  0  0  0  0
  1  2  1  0  0  0  0
  1  3  2  0  0  0  0
  1  4  1  0  0  0  0
  4  5  1  0  0  0  0
  4  6  1  0  0  0  0
  4  7  1  0  0  0  0
  7  8  1  0  0  0  0
  7  9  2  0  0  0  0
  9 10  1  0  0  0  0
  9 11  1  0  0  0  0
 11 12  1  0  0  0  0
 11 13  1  0  0  0  0
 11 14  1  0  0  0  0
 14 15  1  0  0  0  0
 14 16  1  0  0  0  0
 14 17  1  0  0  0  0
M  END
> <VConfSearch Rank>
297

> <Conf_Id>
35

> <Delta U+W>
-0.102

> <U+W>
-49.529

> <U>
13.666

> <W>
-63.195

> <W(PB)>
-65.299

> <W(SA)>
2.103

> <Valence>
15.226

> <Coulomb>
-1.822

> <VdW>
0.261

> <VdW6>
-4.165

> <VdW12>
4.426

> <Bond>
0.044

> <Angle>
2.229

> <Pdih>
12.953

> <Idih>
0.000

> <Tether>
0.000

$$$$
VeraChem MOL file


 17 16  0  0  0  0  0  0  0  0999 V2000     
   19.5466   20.8169   19.9017 C   0  0  0  0  0  0  0  0  0  0  0  0
   19.7508   21.9818   20.1817 O   0  5  0  0  0  0  0  0  0  0  0  0
   19.8894   20.3079   18.8528 O   0  0  0  0  0  0  0  0  0  0  0  0
   18.8128   19.9522   20.9183 C   0  0  0  0  0  0  0  0  0  0  0  0
   18.3406   19.1196   20.3830 H   0  0  0  0  0  0  0  0  0  0  0  0
   18.0051   20.5549   21.3495 H   0  0  0  0  0  0  0  0  0  0  0  0
   19.7276   19.4452   22.0172 C   0  0  0  0  0  0  0  0  0  0  0  0
   20.1046   20.2167   22.6863 H   0  0  0  0  0  0  0  0  0  0  0  0
   20.0665   18.1593   22.1732 C   0  0  0  0  0  0  0  0  0  0  0  0
   19.6728   17.4158   21.4809 H   0  0  0  0  0  0  0  0  0  0  0  0
   20.9773   17.5844   23.2449 C   0  0  0  0  0  0  0  0  0  0  0  0
   20.4265   16.8188   23.8080 H   0  0  0  0  0  0  0  0  0  0  0  0
   21.8075   17.0536   22.7597 H   0  0  0  0  0  0  0  0  0  0  0  0
   21.5534   18.6202   24.2354 C   0  0  0  0  0  0  0  0  0  0  0  0
   20.7502   19.1339   24.7799 H   0  0  0  0  0  0  0  0  0  0  0  0
   22.1990   18.1283   24.9745 H   0  0  0  0  0  0  0  0  0  0  0  0
   22.1560   19.3736   23.7113 H   0  0  0  0  0  0  0  0  0  0  0  0
  1  2  1  0  0  0  0
  1  3  2  0  0  0  0
  1  4  1  0  0  0  0
  4  5  1  0  0  0  0
  4  6  1  0  0  0  0
  4  7  1  0  0  0  0
  7  8  1  0  0  0  0
  7  9  2  0  0  0  0
  9 10  1  0  0  0  0
  9 11  1  0  0  0  0
 11 12  1  0  0  0  0
 11 13  1  0  0  0  0
 11 14  1  0  0  0  0
 14 15  1  0  0  0  0
 14 16  1  0  0  0  0
 14 17  1  0  0  0  0
M  END
> <VConfSearch Rank>
298

> <Conf_Id>
19

> <Delta U+W>
-0.496

> <U+W>
-49.923

> <U>
13.863

> <W>
-63.786

> <W(PB)>
-65.856

> <W(SA)>
2.070

> <Valence>
14.117

> <Coulomb>
-1.228

> <VdW>
0.974

> <VdW6>
-4.885

> <VdW12>
5.859

> <Bond>
0.094

> <Angle>
2.818

> <Pdih>
11.205

> <Idih>
0.000

> <Tether>
0.000

$$$$
VeraChem MOL file


 17 16  0  0  0  0  0  0  0  0999 V2000     
   21.5846   20.7173   24.1745 C   0  0  0  0  0  0  0  0  0  0  0  0
   22.2992   21.3995   23.4668 O   0  5  0  0  0  0  0  0  0  0  0  0
   20.9221   21.1641   25.0902 O   0  0  0  0  0  0  0  0  0  0  0  0
   21.5224   19.2190   23.9080 C   0  0  0  0  0  0  0  0  0  0  0  0
   21.5399   18.7059   24.8764 H   0  0  0  0  0  0  0  0  0  0  0  0
   22.4347   18.9273   23.3738 H   0  0  0  0  0  0  0  0  0  0  0  0
   20.2844   18.8185   23.1285 C   0  0  0  0  0  0  0  0  0  0  0  0
   19.3413   18.9355   23.6615 H   0  0  0  0  0  0  0  0  0  0  0  0
   20.3028   18.3584   21.8738 C   0  0  0  0  0  0  0  0  0  0  0  0
   21.2457   18.2465   21.3396 H   0  0  0  0  0  0  0  0  0  0  0  0
   19.0669   17.9624   21.0973 C   0  0  0  0  0  0  0  0  0  0  0  0
   19.2208   16.9800   20.6306 H   0  0  0  0  0  0  0  0  0  0  0  0
   18.2057   17.8596   21.7718 H   0  0  0  0  0  0  0  0  0  0  0  0
   18.7403   19.0031   20.0086 C   0  0  0  0  0  0  0  0  0  0  0  0
   19.5703   19.0983   19.2963 H   0  0  0  0  0  0  0  0  0  0  0  0
   17.8425   18.7110   19.4486 H   0  0  0  0  0  0  0  0  0  0  0  0
   18.5580   19.9896   20.4548 H   0  0  0  0  0  0  0  0  0  0  0  0
  1  2  1  0  0  0  0
  1  3  2  0  0  0  0
  1  4  1  0  0  0  0
  4  5  1  0  0  0  0
  4  6  1  0  0  0  0
  4  7  1  0  0  0  0
  7  8  1  0  0  0  0
  7  9  2  0  0  0  0
  9 10  1  0  0  0  0
  9 11  1  0  0  0  0
 11 12  1  0  0  0  0
 11 13  1  0  0  0  0
 11 14  1  0  0  0  0
 14 15  1  0  0  0  0
 14 16  1  0  0  0  0
 14 17  1  0  0  0  0
M  END
> <VConfSearch Rank>
299

> <Conf_Id>
7

> <Delta U+W>
-0.041

> <U+W>
-49.468

> <U>
14.121

> <W>
-63.589

> <W(PB)>
-65.660

> <W(SA)>
2.071

> <Valence>
15.230

> <Coulomb>
-1.333

> <VdW>
0.224

> <VdW6>
-4.212

> <VdW12>
4.436

> <Bond>
0.044

> <Angle>
2.230

> <Pdih>
12.956

> <Idih>
0.000

> <Tether>
0.000

$$$$
VeraChem MOL file


 17 16  0  0  0  0  0  0  0  0999 V2000     
   22.8418   19.7127   21.9854 C   0  0  0  0  0  0  0  0  0  0  0  0
   23.1907   18.6732   21.4614 O   0  5  0  0  0  0  0  0  0  0  0  0
   23.3424   20.1534   23.0014 O   0  0  0  0  0  0  0  0  0  0  0  0
   21.7348   20.5222   21.3167 C   0  0  0  0  0  0  0  0  0  0  0  0
   21.8088   20.3632   20.2346 H   0  0  0  0  0  0  0  0  0  0  0  0
   21.9499   21.5845   21.4807 H   0  0  0  0  0  0  0  0  0  0  0  0
   20.3197   20.2102   21.7826 C   0  0  0  0  0  0  0  0  0  0  0  0
   19.5453   20.7992   21.2927 H   0  0  0  0  0  0  0  0  0  0  0  0
   19.9773   19.3045   22.7063 C   0  0  0  0  0  0  0  0  0  0  0  0
   20.7319   18.7018   23.2105 H   0  0  0  0  0  0  0  0  0  0  0  0
   18.5524   19.0334   23.1354 C   0  0  0  0  0  0  0  0  0  0  0  0
   18.4916   19.0219   24.2321 H   0  0  0  0  0  0  0  0  0  0  0  0
   17.8870   19.8372   22.7914 H   0  0  0  0  0  0  0  0  0  0  0  0
   18.0536   17.6855   22.5791 C   0  0  0  0  0  0  0  0  0  0  0  0
   17.0199   17.4934   22.8946 H   0  0  0  0  0  0  0  0  0  0  0  0
   18.0812   17.6827   21.4815 H   0  0  0  0  0  0  0  0  0  0  0  0
   18.6792   16.8580   22.9388 H   0  0  0  0  0  0  0  0  0  0  0  0
  1  2  1  0  0  0  0
  1  3  2  0  0  0  0
  1  4  1  0  0  0  0
  4  5  1  0  0  0  0
  4  6  1  0  0  0  0
  4  7  1  0  0  0  0
  7  8  1  0  0  0  0
  7  9  2  0  0  0  0
  9 10  1  0  0  0  0
  9 11  1  0  0  0  0
 11 12  1  0  0  0  0
 11 13  1  0  0  0  0
 11 14  1  0  0  0  0
 14 15  1  0  0  0  0
 14 16  1  0  0  0  0
 14 17  1  0  0  0  0
M  END
> <VConfSearch Rank>
300

> <Conf_Id>
39

> <Delta U+W>
-0.422

> <U+W>
-49.849

> <U>
14.465

> <W>
-64.314

> <W(PB)>
-66.406

> <W(SA)>
2.093

> <Valence>
14.072

> <Coulomb>
-0.199

> <VdW>
0.592

> <VdW6>
-5.019

> <VdW12>
5.611

> <Bond>
0.085

> <Angle>
2.748

> <Pdih>
11.238

> <Idih>
0.001

> <Tether>
0.000

$$$$
VeraChem MOL file


 17 16  0  0  0  0  0  0  0  0999 V2000     
   20.0796   21.1226   19.5368 C   0  0  0  0  0  0  0  0  0  0  0  0
   21.1531   21.5568   19.1681 O   0  5  0  0  0  0  0  0  0  0  0  0
   19.0526   21.7723   19.5266 O   0  0  0  0  0  0  0  0  0  0  0  0
   20.0192   19.6841   20.0334 C   0  0  0  0  0  0  0  0  0  0  0  0
   20.6485   19.0754   19.3738 H   0  0  0  0  0  0  0  0  0  0  0  0
   18.9900   19.3238   19.9170 H   0  0  0  0  0  0  0  0  0  0  0  0
   20.4844   19.5456   21.4705 C   0  0  0  0  0  0  0  0  0  0  0  0
   21.5450   19.7328   21.6360 H   0  0  0  0  0  0  0  0  0  0  0  0
   19.6845   19.2218   22.4910 C   0  0  0  0  0  0  0  0  0  0  0  0
   18.6235   19.0377   22.3252 H   0  0  0  0  0  0  0  0  0  0  0  0
   20.1494   19.0879   23.9239 C   0  0  0  0  0  0  0  0  0  0  0  0
   21.1465   19.5325   24.0476 H   0  0  0  0  0  0  0  0  0  0  0  0
   19.4722   19.6434   24.5868 H   0  0  0  0  0  0  0  0  0  0  0  0
   20.1930   17.6093   24.3561 C   0  0  0  0  0  0  0  0  0  0  0  0
   20.8846   17.0382   23.7227 H   0  0  0  0  0  0  0  0  0  0  0  0
   20.5304   17.5186   25.3968 H   0  0  0  0  0  0  0  0  0  0  0  0
   19.1992   17.1491   24.2789 H   0  0  0  0  0  0  0  0  0  0  0  0
  1  2  1  0  0  0  0
  1  3  2  0  0  0  0
  1  4  1  0  0  0  0
  4  5  1  0  0  0  0
  4  6  1  0  0  0  0
  4  7  1  0  0  0  0
  7  8  1  0  0  0  0
  7  9  2  0  0  0  0
  9 10  1  0  0  0  0
  9 11  1  0  0  0  0
 11 12  1  0  0  0  0
 11 13  1  0  0  0  0
 11 14  1  0  0  0  0
 14 15  1  0  0  0  0
 14 16  1  0  0  0  0
 14 17  1  0  0  0  0
M  END
> <VConfSearch Rank>
301

> <Conf_Id>
38

> <Delta U+W>
0.000

> <U+W>
-49.427

> <U>
13.666

> <W>
-63.093

> <W(PB)>
-65.225

> <W(SA)>
2.132

> <Valence>
15.226

> <Coulomb>
-1.822

> <VdW>
0.261

> <VdW6>
-4.165

> <VdW12>
4.426

> <Bond>
0.044

> <Angle>
2.229

> <Pdih>
12.953

> <Idih>
0.000

> <Tether>
0.000

$$$$
VeraChem MOL file


 17 16  0  0  0  0  0  0  0  0999 V2000     
   16.9506   18.9160   21.8548 C   0  0  0  0  0  0  0  0  0  0  0  0
   16.5009   18.5812   22.9330 O   0  5  0  0  0  0  0  0  0  0  0  0
   16.5347   18.4954   20.7932 O   0  0  0  0  0  0  0  0  0  0  0  0
   18.0943   19.9216   21.8301 C   0  0  0  0  0  0  0  0  0  0  0  0
   18.0625   20.5003   22.7611 H   0  0  0  0  0  0  0  0  0  0  0  0
   17.9054   20.6236   21.0097 H   0  0  0  0  0  0  0  0  0  0  0  0
   19.4465   19.2590   21.6477 C   0  0  0  0  0  0  0  0  0  0  0  0
   19.6111   18.7984   20.6741 H   0  0  0  0  0  0  0  0  0  0  0  0
   20.3955   19.2175   22.5879 C   0  0  0  0  0  0  0  0  0  0  0  0
   20.2289   19.6755   23.5624 H   0  0  0  0  0  0  0  0  0  0  0  0
   21.7417   18.5529   22.4056 C   0  0  0  0  0  0  0  0  0  0  0  0
   21.9545   17.9044   23.2663 H   0  0  0  0  0  0  0  0  0  0  0  0
   21.7339   17.9059   21.5176 H   0  0  0  0  0  0  0  0  0  0  0  0
   22.8622   19.6013   22.2630 C   0  0  0  0  0  0  0  0  0  0  0  0
   22.9180   20.2389   23.1551 H   0  0  0  0  0  0  0  0  0  0  0  0
   23.8366   19.1132   22.1317 H   0  0  0  0  0  0  0  0  0  0  0  0
   22.6841   20.2462   21.3923 H   0  0  0  0  0  0  0  0  0  0  0  0
  1  2  1  0  0  0  0
  1  3  2  0  0  0  0
  1  4  1  0  0  0  0
  4  5  1  0  0  0  0
  4  6  1  0  0  0  0
  4  7  1  0  0  0  0
  7  8  1  0  0  0  0
  7  9  2  0  0  0  0
  9 10  1  0  0  0  0
  9 11  1  0  0  0  0
 11 12  1  0  0  0  0
 11 13  1  0  0  0  0
 11 14  1  0  0  0  0
 14 15  1  0  0  0  0
 14 16  1  0  0  0  0
 14 17  1  0  0  0  0
M  END
> <VConfSearch Rank>
302

> <Conf_Id>
35

> <Delta U+W>
-0.102

> <U+W>
-49.529

> <U>
13.666

> <W>
-63.195

> <W(PB)>
-65.299

> <W(SA)>
2.103

> <Valence>
15.226

> <Coulomb>
-1.822

> <VdW>
0.261

> <VdW6>
-4.165

> <VdW12>
4.426

> <Bond>
0.044

> <Angle>
2.229

> <Pdih>
12.953

> <Idih>
0.000

> <Tether>
0.000

$$$$
VeraChem MOL file


 17 16  0  0  0  0  0  0  0  0999 V2000     
   20.2647   20.9187   24.5257 C   0  0  0  0  0  0  0  0  0  0  0  0
   20.2978   20.2737   25.5553 O   0  5  0  0  0  0  0  0  0  0  0  0
   20.9676   21.8877   24.3170 O   0  0  0  0  0  0  0  0  0  0  0  0
   19.2813   20.4932   23.4433 C   0  0  0  0  0  0  0  0  0  0  0  0
   19.0635   21.3657   22.8157 H   0  0  0  0  0  0  0  0  0  0  0  0
   18.3435   20.2105   23.9354 H   0  0  0  0  0  0  0  0  0  0  0  0
   19.8005   19.3373   22.6092 C   0  0  0  0  0  0  0  0  0  0  0  0
   19.8873   18.3936   23.1448 H   0  0  0  0  0  0  0  0  0  0  0  0
   20.1383   19.4406   21.3177 C   0  0  0  0  0  0  0  0  0  0  0  0
   20.0420   20.4029   20.8160 H   0  0  0  0  0  0  0  0  0  0  0  0
   20.6666   18.3294   20.4262 C   0  0  0  0  0  0  0  0  0  0  0  0
   20.0022   18.2222   19.5581 H   0  0  0  0  0  0  0  0  0  0  0  0
   21.6398   18.6330   20.0172 H   0  0  0  0  0  0  0  0  0  0  0  0
   20.8179   16.9558   21.1164 C   0  0  0  0  0  0  0  0  0  0  0  0
   19.8512   16.5946   21.4912 H   0  0  0  0  0  0  0  0  0  0  0  0
   21.2041   16.2102   20.4094 H   0  0  0  0  0  0  0  0  0  0  0  0
   21.5187   17.0139   21.9597 H   0  0  0  0  0  0  0  0  0  0  0  0
  1  2  1  0  0  0  0
  1  3  2  0  0  0  0
  1  4  1  0  0  0  0
  4  5  1  0  0  0  0
  4  6  1  0  0  0  0
  4  7  1  0  0  0  0
  7  8  1  0  0  0  0
  7  9  2  0  0  0  0
  9 10  1  0  0  0  0
  9 11  1  0  0  0  0
 11 12  1  0  0  0  0
 11 13  1  0  0  0  0
 11 14  1  0  0  0  0
 14 15  1  0  0  0  0
 14 16  1  0  0  0  0
 14 17  1  0  0  0  0
M  END
> <VConfSearch Rank>
303

> <Conf_Id>
19

> <Delta U+W>
-0.496

> <U+W>
-49.923

> <U>
13.863

> <W>
-63.786

> <W(PB)>
-65.856

> <W(SA)>
2.070

> <Valence>
14.117

> <Coulomb>
-1.228

> <VdW>
0.974

> <VdW6>
-4.885

> <VdW12>
5.859

> <Bond>
0.094

> <Angle>
2.818

> <Pdih>
11.205

> <Idih>
0.000

> <Tether>
0.000

$$$$
VeraChem MOL file


 17 16  0  0  0  0  0  0  0  0999 V2000     
   19.0570   19.4377   24.9079 C   0  0  0  0  0  0  0  0  0  0  0  0
   19.9474   20.0458   25.4685 O   0  5  0  0  0  0  0  0  0  0  0  0
   17.8843   19.7491   24.9759 O   0  0  0  0  0  0  0  0  0  0  0  0
   19.4274   18.2118   24.0834 C   0  0  0  0  0  0  0  0  0  0  0  0
   18.6818   17.4343   24.2863 H   0  0  0  0  0  0  0  0  0  0  0  0
   20.3915   17.8339   24.4444 H   0  0  0  0  0  0  0  0  0  0  0  0
   19.4813   18.5065   22.5964 C   0  0  0  0  0  0  0  0  0  0  0  0
   18.5229   18.7393   22.1335 H   0  0  0  0  0  0  0  0  0  0  0  0
   20.6028   18.5000   21.8695 C   0  0  0  0  0  0  0  0  0  0  0  0
   21.5617   18.2723   22.3340 H   0  0  0  0  0  0  0  0  0  0  0  0
   20.6548   18.7971   20.3875 C   0  0  0  0  0  0  0  0  0  0  0  0
   21.2459   18.0261   19.8751 H   0  0  0  0  0  0  0  0  0  0  0  0
   19.6463   18.7621   19.9529 H   0  0  0  0  0  0  0  0  0  0  0  0
   21.2764   20.1821   20.1222 C   0  0  0  0  0  0  0  0  0  0  0  0
   22.3013   20.2327   20.5127 H   0  0  0  0  0  0  0  0  0  0  0  0
   21.3113   20.3927   19.0454 H   0  0  0  0  0  0  0  0  0  0  0  0
   20.6872   20.9727   20.6053 H   0  0  0  0  0  0  0  0  0  0  0  0
  1  2  1  0  0  0  0
  1  3  2  0  0  0  0
  1  4  1  0  0  0  0
  4  5  1  0  0  0  0
  4  6  1  0  0  0  0
  4  7  1  0  0  0  0
  7  8  1  0  0  0  0
  7  9  2  0  0  0  0
  9 10  1  0  0  0  0
  9 11  1  0  0  0  0
 11 12  1  0  0  0  0
 11 13  1  0  0  0  0
 11 14  1  0  0  0  0
 14 15  1  0  0  0  0
 14 16  1  0  0  0  0
 14 17  1  0  0  0  0
M  END
> <VConfSearch Rank>
304

> <Conf_Id>
7

> <Delta U+W>
-0.041

> <U+W>
-49.468

> <U>
14.121

> <W>
-63.589

> <W(PB)>
-65.660

> <W(SA)>
2.071

> <Valence>
15.230

> <Coulomb>
-1.333

> <VdW>
0.224

> <VdW6>
-4.212

> <VdW12>
4.436

> <Bond>
0.044

> <Angle>
2.230

> <Pdih>
12.956

> <Idih>
0.000

> <Tether>
0.000

$$$$
VeraChem MOL file


 17 16  0  0  0  0  0  0  0  0999 V2000     
   20.3756   21.7749   23.4088 C   0  0  0  0  0  0  0  0  0  0  0  0
   20.8306   21.4869   24.4983 O   0  5  0  0  0  0  0  0  0  0  0  0
   19.3761   22.4491   23.2556 O   0  0  0  0  0  0  0  0  0  0  0  0
   21.1145   21.2875   22.1662 C   0  0  0  0  0  0  0  0  0  0  0  0
   22.1837   21.2471   22.4049 H   0  0  0  0  0  0  0  0  0  0  0  0
   21.0077   22.0540   21.3898 H   0  0  0  0  0  0  0  0  0  0  0  0
   20.6628   19.9408   21.6192 C   0  0  0  0  0  0  0  0  0  0  0  0
   21.2029   19.6118   20.7323 H   0  0  0  0  0  0  0  0  0  0  0  0
   19.6958   19.1688   22.1292 C   0  0  0  0  0  0  0  0  0  0  0  0
   19.1410   19.4738   23.0157 H   0  0  0  0  0  0  0  0  0  0  0  0
   19.2833   17.8360   21.5450 C   0  0  0  0  0  0  0  0  0  0  0  0
   18.1894   17.7937   21.4546 H   0  0  0  0  0  0  0  0  0  0  0  0
   19.6880   17.7183   20.5303 H   0  0  0  0  0  0  0  0  0  0  0  0
   19.7713   16.6702   22.4269 C   0  0  0  0  0  0  0  0  0  0  0  0
   19.4681   15.7057   21.9991 H   0  0  0  0  0  0  0  0  0  0  0  0
   20.8661   16.6768   22.5109 H   0  0  0  0  0  0  0  0  0  0  0  0
   19.3505   16.7417   23.4384 H   0  0  0  0  0  0  0  0  0  0  0  0
  1  2  1  0  0  0  0
  1  3  2  0  0  0  0
  1  4  1  0  0  0  0
  4  5  1  0  0  0  0
  4  6  1  0  0  0  0
  4  7  1  0  0  0  0
  7  8  1  0  0  0  0
  7  9  2  0  0  0  0
  9 10  1  0  0  0  0
  9 11  1  0  0  0  0
 11 12  1  0  0  0  0
 11 13  1  0  0  0  0
 11 14  1  0  0  0  0
 14 15  1  0  0  0  0
 14 16  1  0  0  0  0
 14 17  1  0  0  0  0
M  END
> <VConfSearch Rank>
305

> <Conf_Id>
39

> <Delta U+W>
-0.422

> <U+W>
-49.849

> <U>
14.465

> <W>
-64.314

> <W(PB)>
-66.406

> <W(SA)>
2.093

> <Valence>
14.072

> <Coulomb>
-0.199

> <VdW>
0.592

> <VdW6>
-5.019

> <VdW12>
5.611

> <Bond>
0.085

> <Angle>
2.748

> <Pdih>
11.238

> <Idih>
0.001

> <Tether>
0.000

$$$$
VeraChem MOL file


 17 16  0  0  0  0  0  0  0  0999 V2000     
   19.0859   18.0397   24.8344 C   0  0  0  0  0  0  0  0  0  0  0  0
   18.0197   18.4494   25.2494 O   0  5  0  0  0  0  0  0  0  0  0  0
   20.0413   17.8087   25.5491 O   0  0  0  0  0  0  0  0  0  0  0  0
   19.2288   17.7983   23.3374 C   0  0  0  0  0  0  0  0  0  0  0  0
   18.2997   17.3375   22.9823 H   0  0  0  0  0  0  0  0  0  0  0  0
   20.0297   17.0653   23.1829 H   0  0  0  0  0  0  0  0  0  0  0  0
   19.5044   19.0754   22.5668 C   0  0  0  0  0  0  0  0  0  0  0  0
   18.6820   19.7896   22.5408 H   0  0  0  0  0  0  0  0  0  0  0  0
   20.6593   19.3468   21.9512 C   0  0  0  0  0  0  0  0  0  0  0  0
   21.4823   18.6334   21.9801 H   0  0  0  0  0  0  0  0  0  0  0  0
   20.9337   20.6224   21.1865 C   0  0  0  0  0  0  0  0  0  0  0  0
   20.1729   21.3806   21.4180 H   0  0  0  0  0  0  0  0  0  0  0  0
   21.9005   21.0406   21.4978 H   0  0  0  0  0  0  0  0  0  0  0  0
   20.9508   20.3644   19.6672 C   0  0  0  0  0  0  0  0  0  0  0  0
   19.9842   19.9694   19.3278 H   0  0  0  0  0  0  0  0  0  0  0  0
   21.1510   21.2934   19.1176 H   0  0  0  0  0  0  0  0  0  0  0  0
   21.7296   19.6373   19.4021 H   0  0  0  0  0  0  0  0  0  0  0  0
  1  2  1  0  0  0  0
  1  3  2  0  0  0  0
  1  4  1  0  0  0  0
  4  5  1  0  0  0  0
  4  6  1  0  0  0  0
  4  7  1  0  0  0  0
  7  8  1  0  0  0  0
  7  9  2  0  0  0  0
  9 10  1  0  0  0  0
  9 11  1  0  0  0  0
 11 12  1  0  0  0  0
 11 13  1  0  0  0  0
 11 14  1  0  0  0  0
 14 15  1  0  0  0  0
 14 16  1  0  0  0  0
 14 17  1  0  0  0  0
M  END
> <VConfSearch Rank>
306

> <Conf_Id>
38

> <Delta U+W>
0.000

> <U+W>
-49.427

> <U>
13.666

> <W>
-63.093

> <W(PB)>
-65.225

> <W(SA)>
2.132

> <Valence>
15.226

> <Coulomb>
-1.822

> <VdW>
0.261

> <VdW6>
-4.165

> <VdW12>
4.426

> <Bond>
0.044

> <Angle>
2.229

> <Pdih>
12.953

> <Idih>
0.000

> <Tether>
0.000

$$$$
VeraChem MOL file


 17 16  0  0  0  0  0  0  0  0999 V2000     
   21.9071   21.7436   22.8602 C   0  0  0  0  0  0  0  0  0  0  0  0
   21.2653   22.5146   23.5462 O   0  5  0  0  0  0  0  0  0  0  0  0
   22.7130   22.0999   22.0233 O   0  0  0  0  0  0  0  0  0  0  0  0
   21.6954   20.2490   23.0626 C   0  0  0  0  0  0  0  0  0  0  0  0
   21.3042   20.0918   24.0750 H   0  0  0  0  0  0  0  0  0  0  0  0
   22.6768   19.7628   23.0190 H   0  0  0  0  0  0  0  0  0  0  0  0
   20.7695   19.6474   22.0226 C   0  0  0  0  0  0  0  0  0  0  0  0
   21.1645   19.6218   21.0075 H   0  0  0  0  0  0  0  0  0  0  0  0
   19.5484   19.1736   22.2883 C   0  0  0  0  0  0  0  0  0  0  0  0
   19.1527   19.2024   23.3031 H   0  0  0  0  0  0  0  0  0  0  0  0
   18.6250   18.5777   21.2493 C   0  0  0  0  0  0  0  0  0  0  0  0
   17.6242   19.0202   21.3454 H   0  0  0  0  0  0  0  0  0  0  0  0
   18.9796   18.8170   20.2373 H   0  0  0  0  0  0  0  0  0  0  0  0
   18.5276   17.0478   21.4072 C   0  0  0  0  0  0  0  0  0  0  0  0
   18.1386   16.7802   22.3984 H   0  0  0  0  0  0  0  0  0  0  0  0
   17.8557   16.6212   20.6510 H   0  0  0  0  0  0  0  0  0  0  0  0
   19.5140   16.5801   21.2892 H   0  0  0  0  0  0  0  0  0  0  0  0
  1  2  1  0  0  0  0
  1  3  2  0  0  0  0
  1  4  1  0  0  0  0
  4  5  1  0  0  0  0
  4  6  1  0  0  0  0
  4  7  1  0  0  0  0
  7  8  1  0  0  0  0
  7  9  2  0  0  0  0
  9 10  1  0  0  0  0
  9 11  1  0  0  0  0
 11 12  1  0  0  0  0
 11 13  1  0  0  0  0
 11 14  1  0  0  0  0
 14 15  1  0  0  0  0
 14 16  1  0  0  0  0
 14 17  1  0  0  0  0
M  END
> <VConfSearch Rank>
307

> <Conf_Id>
35

> <Delta U+W>
-0.102

> <U+W>
-49.529

> <U>
13.666

> <W>
-63.195

> <W(PB)>
-65.299

> <W(SA)>
2.103

> <Valence>
15.226

> <Coulomb>
-1.822

> <VdW>
0.261

> <VdW6>
-4.165

> <VdW12>
4.426

> <Bond>
0.044

> <Angle>
2.229

> <Pdih>
12.953

> <Idih>
0.000

> <Tether>
0.000

$$$$
VeraChem MOL file


 17 16  0  0  0  0  0  0  0  0999 V2000     
   20.5930   16.1876   21.8987 C   0  0  0  0  0  0  0  0  0  0  0  0
   20.3755   15.6306   22.9567 O   0  5  0  0  0  0  0  0  0  0  0  0
   20.1630   15.7953   20.8319 O   0  0  0  0  0  0  0  0  0  0  0  0
   21.4597   17.4400   21.9114 C   0  0  0  0  0  0  0  0  0  0  0  0
   21.9047   17.5592   20.9163 H   0  0  0  0  0  0  0  0  0  0  0  0
   22.2845   17.2691   22.6129 H   0  0  0  0  0  0  0  0  0  0  0  0
   20.6828   18.6795   22.3134 C   0  0  0  0  0  0  0  0  0  0  0  0
   20.3483   18.6899   23.3494 H   0  0  0  0  0  0  0  0  0  0  0  0
   20.4100   19.6926   21.4817 C   0  0  0  0  0  0  0  0  0  0  0  0
   20.7576   19.6448   20.4502 H   0  0  0  0  0  0  0  0  0  0  0  0
   19.6369   20.9575   21.8150 C   0  0  0  0  0  0  0  0  0  0  0  0
   20.2710   21.8292   21.6041 H   0  0  0  0  0  0  0  0  0  0  0  0
   18.7813   21.0427   21.1315 H   0  0  0  0  0  0  0  0  0  0  0  0
   19.1279   21.0461   23.2707 C   0  0  0  0  0  0  0  0  0  0  0  0
   19.9633   21.0186   23.9826 H   0  0  0  0  0  0  0  0  0  0  0  0
   18.5808   21.9842   23.4307 H   0  0  0  0  0  0  0  0  0  0  0  0
   18.4467   20.2163   23.5010 H   0  0  0  0  0  0  0  0  0  0  0  0
  1  2  1  0  0  0  0
  1  3  2  0  0  0  0
  1  4  1  0  0  0  0
  4  5  1  0  0  0  0
  4  6  1  0  0  0  0
  4  7  1  0  0  0  0
  7  8  1  0  0  0  0
  7  9  2  0  0  0  0
  9 10  1  0  0  0  0
  9 11  1  0  0  0  0
 11 12  1  0  0  0  0
 11 13  1  0  0  0  0
 11 14  1  0  0  0  0
 14 15  1  0  0  0  0
 14 16  1  0  0  0  0
 14 17  1  0  0  0  0
M  END
> <VConfSearch Rank>
308

> <Conf_Id>
19

> <Delta U+W>
-0.496

> <U+W>
-49.923

> <U>
13.863

> <W>
-63.786

> <W(PB)>
-65.856

> <W(SA)>
2.070

> <Valence>
14.117

> <Coulomb>
-1.228

> <VdW>
0.974

> <VdW6>
-4.885

> <VdW12>
5.859

> <Bond>
0.094

> <Angle>
2.818

> <Pdih>
11.205

> <Idih>
0.000

> <Tether>
0.000

$$$$
VeraChem MOL file


 17 16  0  0  0  0  0  0  0  0999 V2000     
   19.5193   18.9351   25.0746 C   0  0  0  0  0  0  0  0  0  0  0  0
   20.6126   18.7601   25.5754 O   0  5  0  0  0  0  0  0  0  0  0  0
   18.7132   19.7457   25.4870 O   0  0  0  0  0  0  0  0  0  0  0  0
   19.1317   18.0859   23.8710 C   0  0  0  0  0  0  0  0  0  0  0  0
   18.0875   17.7786   24.0006 H   0  0  0  0  0  0  0  0  0  0  0  0
   19.7391   17.1729   23.8852 H   0  0  0  0  0  0  0  0  0  0  0  0
   19.2971   18.8285   22.5588 C   0  0  0  0  0  0  0  0  0  0  0  0
   18.6118   19.6618   22.4064 H   0  0  0  0  0  0  0  0  0  0  0  0
   20.2096   18.5216   21.6318 C   0  0  0  0  0  0  0  0  0  0  0  0
   20.8980   17.6915   21.7869 H   0  0  0  0  0  0  0  0  0  0  0  0
   20.3748   19.2652   20.3252 C   0  0  0  0  0  0  0  0  0  0  0  0
   20.4302   18.5484   19.4948 H   0  0  0  0  0  0  0  0  0  0  0  0
   19.5013   19.9035   20.1331 H   0  0  0  0  0  0  0  0  0  0  0  0
   21.6476   20.1340   20.3400 C   0  0  0  0  0  0  0  0  0  0  0  0
   22.5420   19.5156   20.4919 H   0  0  0  0  0  0  0  0  0  0  0  0
   21.7623   20.6716   19.3899 H   0  0  0  0  0  0  0  0  0  0  0  0
   21.6036   20.8758   21.1484 H   0  0  0  0  0  0  0  0  0  0  0  0
  1  2  1  0  0  0  0
  1  3  2  0  0  0  0
  1  4  1  0  0  0  0
  4  5  1  0  0  0  0
  4  6  1  0  0  0  0
  4  7  1  0  0  0  0
  7  8  1  0  0  0  0
  7  9  2  0  0  0  0
  9 10  1  0  0  0  0
  9 11  1  0  0  0  0
 11 12  1  0  0  0  0
 11 13  1  0  0  0  0
 11 14  1  0  0  0  0
 14 15  1  0  0  0  0
 14 16  1  0  0  0  0
 14 17  1  0  0  0  0
M  END
> <VConfSearch Rank>
309

> <Conf_Id>
7

> <Delta U+W>
-0.041

> <U+W>
-49.468

> <U>
14.121

> <W>
-63.589

> <W(PB)>
-65.660

> <W(SA)>
2.071

> <Valence>
15.230

> <Coulomb>
-1.333

> <VdW>
0.224

> <VdW6>
-4.212

> <VdW12>
4.436

> <Bond>
0.044

> <Angle>
2.230

> <Pdih>
12.956

> <Idih>
0.000

> <Tether>
0.000

$$$$
VeraChem MOL file


 17 16  0  0  0  0  0  0  0  0999 V2000     
   20.3458   21.6849   20.9388 C   0  0  0  0  0  0  0  0  0  0  0  0
   20.9626   22.3420   21.7541 O   0  5  0  0  0  0  0  0  0  0  0  0
   19.2887   22.0375   20.4537 O   0  0  0  0  0  0  0  0  0  0  0  0
   20.9442   20.3591   20.4787 C   0  0  0  0  0  0  0  0  0  0  0  0
   22.0359   20.4558   20.5047 H   0  0  0  0  0  0  0  0  0  0  0  0
   20.6791   20.2191   19.4243 H   0  0  0  0  0  0  0  0  0  0  0  0
   20.5214   19.1347   21.2781 C   0  0  0  0  0  0  0  0  0  0  0  0
   20.9599   18.1992   20.9329 H   0  0  0  0  0  0  0  0  0  0  0  0
   19.6899   19.1285   22.3267 C   0  0  0  0  0  0  0  0  0  0  0  0
   19.2387   20.0500   22.6926 H   0  0  0  0  0  0  0  0  0  0  0  0
   19.3000   17.8806   23.0874 C   0  0  0  0  0  0  0  0  0  0  0  0
   18.2098   17.8524   23.2188 H   0  0  0  0  0  0  0  0  0  0  0  0
   19.5721   16.9814   22.5178 H   0  0  0  0  0  0  0  0  0  0  0  0
   19.9848   17.8368   24.4673 C   0  0  0  0  0  0  0  0  0  0  0  0
   19.6973   16.9302   25.0154 H   0  0  0  0  0  0  0  0  0  0  0  0
   21.0776   17.8383   24.3603 H   0  0  0  0  0  0  0  0  0  0  0  0
   19.6996   18.7065   25.0737 H   0  0  0  0  0  0  0  0  0  0  0  0
  1  2  1  0  0  0  0
  1  3  2  0  0  0  0
  1  4  1  0  0  0  0
  4  5  1  0  0  0  0
  4  6  1  0  0  0  0
  4  7  1  0  0  0  0
  7  8  1  0  0  0  0
  7  9  2  0  0  0  0
  9 10  1  0  0  0  0
  9 11  1  0  0  0  0
 11 12  1  0  0  0  0
 11 13  1  0  0  0  0
 11 14  1  0  0  0  0
 14 15  1  0  0  0  0
 14 16  1  0  0  0  0
 14 17  1  0  0  0  0
M  END
> <VConfSearch Rank>
310

> <Conf_Id>
39

> <Delta U+W>
-0.422

> <U+W>
-49.849

> <U>
14.465

> <W>
-64.314

> <W(PB)>
-66.406

> <W(SA)>
2.093

> <Valence>
14.072

> <Coulomb>
-0.199

> <VdW>
0.592

> <VdW6>
-5.019

> <VdW12>
5.611

> <Bond>
0.085

> <Angle>
2.748

> <Pdih>
11.238

> <Idih>
0.001

> <Tether>
0.000

$$$$
VeraChem MOL file


 17 16  0  0  0  0  0  0  0  0999 V2000     
   22.0540   17.7064   24.0491 C   0  0  0  0  0  0  0  0  0  0  0  0
   23.0421   17.2104   23.5445 O   0  5  0  0  0  0  0  0  0  0  0  0
   21.3973   17.1632   24.9154 O   0  0  0  0  0  0  0  0  0  0  0  0
   21.6201   19.0862   23.5722 C   0  0  0  0  0  0  0  0  0  0  0  0
   22.5224   19.6951   23.4434 H   0  0  0  0  0  0  0  0  0  0  0  0
   21.0284   19.5540   24.3683 H   0  0  0  0  0  0  0  0  0  0  0  0
   20.8382   19.0326   22.2735 C   0  0  0  0  0  0  0  0  0  0  0  0
   21.4110   18.7281   21.3981 H   0  0  0  0  0  0  0  0  0  0  0  0
   19.5389   19.3268   22.1664 C   0  0  0  0  0  0  0  0  0  0  0  0
   18.9661   19.6283   23.0427 H   0  0  0  0  0  0  0  0  0  0  0  0
   18.7600   19.2691   20.8713 C   0  0  0  0  0  0  0  0  0  0  0  0
   19.3263   18.7202   20.1063 H   0  0  0  0  0  0  0  0  0  0  0  0
   17.8231   18.7172   21.0264 H   0  0  0  0  0  0  0  0  0  0  0  0
   18.4423   20.6851   20.3525 C   0  0  0  0  0  0  0  0  0  0  0  0
   19.3662   21.2482   20.1654 H   0  0  0  0  0  0  0  0  0  0  0  0
   17.8766   20.6368   19.4130 H   0  0  0  0  0  0  0  0  0  0  0  0
   17.8429   21.2445   21.0827 H   0  0  0  0  0  0  0  0  0  0  0  0
  1  2  1  0  0  0  0
  1  3  2  0  0  0  0
  1  4  1  0  0  0  0
  4  5  1  0  0  0  0
  4  6  1  0  0  0  0
  4  7  1  0  0  0  0
  7  8  1  0  0  0  0
  7  9  2  0  0  0  0
  9 10  1  0  0  0  0
  9 11  1  0  0  0  0
 11 12  1  0  0  0  0
 11 13  1  0  0  0  0
 11 14  1  0  0  0  0
 14 15  1  0  0  0  0
 14 16  1  0  0  0  0
 14 17  1  0  0  0  0
M  END
> <VConfSearch Rank>
311

> <Conf_Id>
38

> <Delta U+W>
0.000

> <U+W>
-49.427

> <U>
13.666

> <W>
-63.093

> <W(PB)>
-65.225

> <W(SA)>
2.132

> <Valence>
15.226

> <Coulomb>
-1.822

> <VdW>
0.261

> <VdW6>
-4.165

> <VdW12>
4.426

> <Bond>
0.044

> <Angle>
2.229

> <Pdih>
12.953

> <Idih>
0.000

> <Tether>
0.000

$$$$
VeraChem MOL file


 17 16  0  0  0  0  0  0  0  0999 V2000     
   20.3632   18.8767   25.2334 C   0  0  0  0  0  0  0  0  0  0  0  0
   20.2792   19.9596   25.7784 O   0  5  0  0  0  0  0  0  0  0  0  0
   21.1099   17.9931   25.6059 O   0  0  0  0  0  0  0  0  0  0  0  0
   19.4818   18.6081   24.0207 C   0  0  0  0  0  0  0  0  0  0  0  0
   18.6131   19.2753   24.0735 H   0  0  0  0  0  0  0  0  0  0  0  0
   19.1037   17.5825   24.1020 H   0  0  0  0  0  0  0  0  0  0  0  0
   20.2257   18.7866   22.7110 C   0  0  0  0  0  0  0  0  0  0  0  0
   21.0048   18.0506   22.5146 H   0  0  0  0  0  0  0  0  0  0  0  0
   19.9777   19.7637   21.8335 C   0  0  0  0  0  0  0  0  0  0  0  0
   19.2007   20.5012   22.0320 H   0  0  0  0  0  0  0  0  0  0  0  0
   20.7232   19.9425   20.5298 C   0  0  0  0  0  0  0  0  0  0  0  0
   21.0383   20.9894   20.4235 H   0  0  0  0  0  0  0  0  0  0  0  0
   21.6391   19.3355   20.5243 H   0  0  0  0  0  0  0  0  0  0  0  0
   19.8419   19.5468   19.3290 C   0  0  0  0  0  0  0  0  0  0  0  0
   18.9357   20.1652   19.2877 H   0  0  0  0  0  0  0  0  0  0  0  0
   20.3880   19.6793   18.3860 H   0  0  0  0  0  0  0  0  0  0  0  0
   19.5353   18.4949   19.4003 H   0  0  0  0  0  0  0  0  0  0  0  0
  1  2  1  0  0  0  0
  1  3  2  0  0  0  0
  1  4  1  0  0  0  0
  4  5  1  0  0  0  0
  4  6  1  0  0  0  0
  4  7  1  0  0  0  0
  7  8  1  0  0  0  0
  7  9  2  0  0  0  0
  9 10  1  0  0  0  0
  9 11  1  0  0  0  0
 11 12  1  0  0  0  0
 11 13  1  0  0  0  0
 11 14  1  0  0  0  0
 14 15  1  0  0  0  0
 14 16  1  0  0  0  0
 14 17  1  0  0  0  0
M  END
> <VConfSearch Rank>
312

> <Conf_Id>
35

> <Delta U+W>
-0.102

> <U+W>
-49.529

> <U>
13.666

> <W>
-63.195

> <W(PB)>
-65.299

> <W(SA)>
2.103

> <Valence>
15.226

> <Coulomb>
-1.822

> <VdW>
0.261

> <VdW6>
-4.165

> <VdW12>
4.426

> <Bond>
0.044

> <Angle>
2.229

> <Pdih>
12.953

> <Idih>
0.000

> <Tether>
0.000

$$$$
VeraChem MOL file


 17 16  0  0  0  0  0  0  0  0999 V2000     
   19.5079   21.9615   22.2342 C   0  0  0  0  0  0  0  0  0  0  0  0
   19.8823   22.4919   21.2069 O   0  5  0  0  0  0  0  0  0  0  0  0
   18.4079   22.1386   22.7196 O   0  0  0  0  0  0  0  0  0  0  0  0
   20.4747   21.0322   22.9562 C   0  0  0  0  0  0  0  0  0  0  0  0
   20.1859   20.9910   24.0133 H   0  0  0  0  0  0  0  0  0  0  0  0
   21.4710   21.4873   22.9138 H   0  0  0  0  0  0  0  0  0  0  0  0
   20.5103   19.6438   22.3460 C   0  0  0  0  0  0  0  0  0  0  0  0
   20.9395   19.5976   21.3467 H   0  0  0  0  0  0  0  0  0  0  0  0
   20.0528   18.5457   22.9606 C   0  0  0  0  0  0  0  0  0  0  0  0
   19.6257   18.6317   23.9592 H   0  0  0  0  0  0  0  0  0  0  0  0
   20.0537   17.1300   22.4090 C   0  0  0  0  0  0  0  0  0  0  0  0
   20.6075   16.4787   23.0987 H   0  0  0  0  0  0  0  0  0  0  0  0
   19.0237   16.7482   22.4056 H   0  0  0  0  0  0  0  0  0  0  0  0
   20.6488   16.9830   20.9911 C   0  0  0  0  0  0  0  0  0  0  0  0
   21.6980   17.3054   20.9688 H   0  0  0  0  0  0  0  0  0  0  0  0
   20.6122   15.9354   20.6651 H   0  0  0  0  0  0  0  0  0  0  0  0
   20.0850   17.5813   20.2634 H   0  0  0  0  0  0  0  0  0  0  0  0
  1  2  1  0  0  0  0
  1  3  2  0  0  0  0
  1  4  1  0  0  0  0
  4  5  1  0  0  0  0
  4  6  1  0  0  0  0
  4  7  1  0  0  0  0
  7  8  1  0  0  0  0
  7  9  2  0  0  0  0
  9 10  1  0  0  0  0
  9 11  1  0  0  0  0
 11 12  1  0  0  0  0
 11 13  1  0  0  0  0
 11 14  1  0  0  0  0
 14 15  1  0  0  0  0
 14 16  1  0  0  0  0
 14 17  1  0  0  0  0
M  END
> <VConfSearch Rank>
313

> <Conf_Id>
19

> <Delta U+W>
-0.496

> <U+W>
-49.923

> <U>
13.863

> <W>
-63.786

> <W(PB)>
-65.856

> <W(SA)>
2.070

> <Valence>
14.117

> <Coulomb>
-1.228

> <VdW>
0.974

> <VdW6>
-4.885

> <VdW12>
5.859

> <Bond>
0.094

> <Angle>
2.818

> <Pdih>
11.205

> <Idih>
0.000

> <Tether>
0.000

$$$$
VeraChem MOL file


 17 16  0  0  0  0  0  0  0  0999 V2000     
   22.8597   18.1103   21.5726 C   0  0  0  0  0  0  0  0  0  0  0  0
   22.9317   17.0851   22.2211 O   0  5  0  0  0  0  0  0  0  0  0  0
   23.2034   18.1955   20.4100 O   0  0  0  0  0  0  0  0  0  0  0  0
   22.3196   19.3603   22.2549 C   0  0  0  0  0  0  0  0  0  0  0  0
   22.9441   20.2065   21.9459 H   0  0  0  0  0  0  0  0  0  0  0  0
   22.4499   19.2438   23.3375 H   0  0  0  0  0  0  0  0  0  0  0  0
   20.8679   19.6302   21.9079 C   0  0  0  0  0  0  0  0  0  0  0  0
   20.6816   19.9087   20.8711 H   0  0  0  0  0  0  0  0  0  0  0  0
   19.8577   19.5370   22.7780 C   0  0  0  0  0  0  0  0  0  0  0  0
   20.0440   19.2534   23.8134 H   0  0  0  0  0  0  0  0  0  0  0  0
   18.4105   19.8037   22.4293 C   0  0  0  0  0  0  0  0  0  0  0  0
   17.9650   20.4711   23.1794 H   0  0  0  0  0  0  0  0  0  0  0  0
   18.3370   20.3215   21.4630 H   0  0  0  0  0  0  0  0  0  0  0  0
   17.6054   18.4911   22.3666 C   0  0  0  0  0  0  0  0  0  0  0  0
   17.6293   17.9704   23.3329 H   0  0  0  0  0  0  0  0  0  0  0  0
   16.5562   18.6903   22.1127 H   0  0  0  0  0  0  0  0  0  0  0  0
   18.0184   17.8167   21.6047 H   0  0  0  0  0  0  0  0  0  0  0  0
  1  2  1  0  0  0  0
  1  3  2  0  0  0  0
  1  4  1  0  0  0  0
  4  5  1  0  0  0  0
  4  6  1  0  0  0  0
  4  7  1  0  0  0  0
  7  8  1  0  0  0  0
  7  9  2  0  0  0  0
  9 10  1  0  0  0  0
  9 11  1  0  0  0  0
 11 12  1  0  0  0  0
 11 13  1  0  0  0  0
 11 14  1  0  0  0  0
 14 15  1  0  0  0  0
 14 16  1  0  0  0  0
 14 17  1  0  0  0  0
M  END
> <VConfSearch Rank>
314

> <Conf_Id>
7

> <Delta U+W>
-0.041

> <U+W>
-49.468

> <U>
14.121

> <W>
-63.589

> <W(PB)>
-65.660

> <W(SA)>
2.071

> <Valence>
15.230

> <Coulomb>
-1.333

> <VdW>
0.224

> <VdW6>
-4.212

> <VdW12>
4.436

> <Bond>
0.044

> <Angle>
2.230

> <Pdih>
12.956

> <Idih>
0.000

> <Tether>
0.000

$$$$
VeraChem MOL file


 17 16  0  0  0  0  0  0  0  0999 V2000     
   19.1889   21.5050   20.9402 C   0  0  0  0  0  0  0  0  0  0  0  0
   18.1030   21.6455   21.4675 O   0  5  0  0  0  0  0  0  0  0  0  0
   19.3457   21.4240   19.7377 O   0  0  0  0  0  0  0  0  0  0  0  0
   20.4244   21.4556   21.8338 C   0  0  0  0  0  0  0  0  0  0  0  0
   20.2327   22.0887   22.7080 H   0  0  0  0  0  0  0  0  0  0  0  0
   21.2499   21.9317   21.2920 H   0  0  0  0  0  0  0  0  0  0  0  0
   20.8485   20.0675   22.2924 C   0  0  0  0  0  0  0  0  0  0  0  0
   21.7323   20.0551   22.9290 H   0  0  0  0  0  0  0  0  0  0  0  0
   20.2387   18.9168   21.9844 C   0  0  0  0  0  0  0  0  0  0  0  0
   19.3528   18.9014   21.3506 H   0  0  0  0  0  0  0  0  0  0  0  0
   20.7027   17.5602   22.4662 C   0  0  0  0  0  0  0  0  0  0  0  0
   20.7393   16.8595   21.6211 H   0  0  0  0  0  0  0  0  0  0  0  0
   21.7233   17.6225   22.8683 H   0  0  0  0  0  0  0  0  0  0  0  0
   19.7598   17.0062   23.5522 C   0  0  0  0  0  0  0  0  0  0  0  0
   20.1004   16.0213   23.8971 H   0  0  0  0  0  0  0  0  0  0  0  0
   19.7269   17.6786   24.4196 H   0  0  0  0  0  0  0  0  0  0  0  0
   18.7382   16.8973   23.1652 H   0  0  0  0  0  0  0  0  0  0  0  0
  1  2  1  0  0  0  0
  1  3  2  0  0  0  0
  1  4  1  0  0  0  0
  4  5  1  0  0  0  0
  4  6  1  0  0  0  0
  4  7  1  0  0  0  0
  7  8  1  0  0  0  0
  7  9  2  0  0  0  0
  9 10  1  0  0  0  0
  9 11  1  0  0  0  0
 11 12  1  0  0  0  0
 11 13  1  0  0  0  0
 11 14  1  0  0  0  0
 14 15  1  0  0  0  0
 14 16  1  0  0  0  0
 14 17  1  0  0  0  0
M  END
> <VConfSearch Rank>
315

> <Conf_Id>
39

> <Delta U+W>
-0.422

> <U+W>
-49.849

> <U>
14.465

> <W>
-64.314

> <W(PB)>
-66.406

> <W(SA)>
2.093

> <Valence>
14.072

> <Coulomb>
-0.199

> <VdW>
0.592

> <VdW6>
-5.019

> <VdW12>
5.611

> <Bond>
0.085

> <Angle>
2.748

> <Pdih>
11.238

> <Idih>
0.001

> <Tether>
0.000

$$$$
VeraChem MOL file


 17 16  0  0  0  0  0  0  0  0999 V2000     
   23.1307   18.3406   21.9763 C   0  0  0  0  0  0  0  0  0  0  0  0
   23.7117   18.2335   23.0383 O   0  5  0  0  0  0  0  0  0  0  0  0
   23.6440   18.7935   20.9722 O   0  0  0  0  0  0  0  0  0  0  0  0
   21.6822   17.8761   21.9003 C   0  0  0  0  0  0  0  0  0  0  0  0
   21.5999   16.9417   22.4674 H   0  0  0  0  0  0  0  0  0  0  0  0
   21.4526   17.6380   20.8547 H   0  0  0  0  0  0  0  0  0  0  0  0
   20.7126   18.9054   22.4491 C   0  0  0  0  0  0  0  0  0  0  0  0
   20.7748   19.0765   23.5234 H   0  0  0  0  0  0  0  0  0  0  0  0
   19.8309   19.5790   21.7040 C   0  0  0  0  0  0  0  0  0  0  0  0
   19.7714   19.4096   20.6294 H   0  0  0  0  0  0  0  0  0  0  0  0
   18.8675   20.6078   22.2524 C   0  0  0  0  0  0  0  0  0  0  0  0
   19.1597   20.9045   23.2691 H   0  0  0  0  0  0  0  0  0  0  0  0
   18.9047   21.5161   21.6359 H   0  0  0  0  0  0  0  0  0  0  0  0
   17.4269   20.0608   22.2749 C   0  0  0  0  0  0  0  0  0  0  0  0
   17.3596   19.1655   22.9070 H   0  0  0  0  0  0  0  0  0  0  0  0
   16.7323   20.8119   22.6731 H   0  0  0  0  0  0  0  0  0  0  0  0
   17.0943   19.7915   21.2638 H   0  0  0  0  0  0  0  0  0  0  0  0
  1  2  1  0  0  0  0
  1  3  2  0  0  0  0
  1  4  1  0  0  0  0
  4  5  1  0  0  0  0
  4  6  1  0  0  0  0
  4  7  1  0  0  0  0
  7  8  1  0  0  0  0
  7  9  2  0  0  0  0
  9 10  1  0  0  0  0
  9 11  1  0  0  0  0
 11 12  1  0  0  0  0
 11 13  1  0  0  0  0
 11 14  1  0  0  0  0
 14 15  1  0  0  0  0
 14 16  1  0  0  0  0
 14 17  1  0  0  0  0
M  END
> <VConfSearch Rank>
316

> <Conf_Id>
38

> <Delta U+W>
0.000

> <U+W>
-49.427

> <U>
13.666

> <W>
-63.093

> <W(PB)>
-65.225

> <W(SA)>
2.132

> <Valence>
15.226

> <Coulomb>
-1.822

> <VdW>
0.261

> <VdW6>
-4.165

> <VdW12>
4.426

> <Bond>
0.044

> <Angle>
2.229

> <Pdih>
12.953

> <Idih>
0.000

> <Tether>
0.000

$$$$
VeraChem MOL file


 17 16  0  0  0  0  0  0  0  0999 V2000     
   20.9883   16.2346   22.0538 C   0  0  0  0  0  0  0  0  0  0  0  0
   20.4938   15.6890   21.0870 O   0  5  0  0  0  0  0  0  0  0  0  0
   21.1300   15.6922   23.1321 O   0  0  0  0  0  0  0  0  0  0  0  0
   21.4618   17.6747   21.9068 C   0  0  0  0  0  0  0  0  0  0  0  0
   21.6622   17.8633   20.8452 H   0  0  0  0  0  0  0  0  0  0  0  0
   22.4176   17.7686   22.4351 H   0  0  0  0  0  0  0  0  0  0  0  0
   20.4621   18.6739   22.4572 C   0  0  0  0  0  0  0  0  0  0  0  0
   20.3312   18.6531   23.5387 H   0  0  0  0  0  0  0  0  0  0  0  0
   19.7682   19.5339   21.7055 C   0  0  0  0  0  0  0  0  0  0  0  0
   19.8972   19.5519   20.6238 H   0  0  0  0  0  0  0  0  0  0  0  0
   18.7688   20.5268   22.2557 C   0  0  0  0  0  0  0  0  0  0  0  0
   17.8374   20.4753   21.6758 H   0  0  0  0  0  0  0  0  0  0  0  0
   18.5086   20.2755   23.2932 H   0  0  0  0  0  0  0  0  0  0  0  0
   19.3279   21.9620   22.2034 C   0  0  0  0  0  0  0  0  0  0  0  0
   19.5613   22.2541   21.1711 H   0  0  0  0  0  0  0  0  0  0  0  0
   18.5981   22.6780   22.6032 H   0  0  0  0  0  0  0  0  0  0  0  0
   20.2471   22.0443   22.7983 H   0  0  0  0  0  0  0  0  0  0  0  0
  1  2  1  0  0  0  0
  1  3  2  0  0  0  0
  1  4  1  0  0  0  0
  4  5  1  0  0  0  0
  4  6  1  0  0  0  0
  4  7  1  0  0  0  0
  7  8  1  0  0  0  0
  7  9  2  0  0  0  0
  9 10  1  0  0  0  0
  9 11  1  0  0  0  0
 11 12  1  0  0  0  0
 11 13  1  0  0  0  0
 11 14  1  0  0  0  0
 14 15  1  0  0  0  0
 14 16  1  0  0  0  0
 14 17  1  0  0  0  0
M  END
> <VConfSearch Rank>
317

> <Conf_Id>
35

> <Delta U+W>
-0.102

> <U+W>
-49.529

> <U>
13.666

> <W>
-63.195

> <W(PB)>
-65.299

> <W(SA)>
2.103

> <Valence>
15.226

> <Coulomb>
-1.822

> <VdW>
0.261

> <VdW6>
-4.165

> <VdW12>
4.426

> <Bond>
0.044

> <Angle>
2.229

> <Pdih>
12.953

> <Idih>
0.000

> <Tether>
0.000

$$$$
VeraChem MOL file


 17 16  0  0  0  0  0  0  0  0999 V2000     
   19.2590   20.3667   19.7194 C   0  0  0  0  0  0  0  0  0  0  0  0
   19.1804   21.5697   19.8732 O   0  5  0  0  0  0  0  0  0  0  0  0
   19.7487   19.8455   18.7369 O   0  0  0  0  0  0  0  0  0  0  0  0
   18.7046   19.4651   20.8146 C   0  0  0  0  0  0  0  0  0  0  0  0
   18.4562   18.4951   20.3672 H   0  0  0  0  0  0  0  0  0  0  0  0
   17.7647   19.9055   21.1669 H   0  0  0  0  0  0  0  0  0  0  0  0
   19.6689   19.3000   21.9741 C   0  0  0  0  0  0  0  0  0  0  0  0
   19.8337   20.2026   22.5599 H   0  0  0  0  0  0  0  0  0  0  0  0
   20.2870   18.1507   22.2739 C   0  0  0  0  0  0  0  0  0  0  0  0
   20.1005   17.2689   21.6618 H   0  0  0  0  0  0  0  0  0  0  0  0
   21.2639   17.9161   23.4137 C   0  0  0  0  0  0  0  0  0  0  0  0
   20.8821   17.1061   24.0497 H   0  0  0  0  0  0  0  0  0  0  0  0
   22.2114   17.5450   23.0002 H   0  0  0  0  0  0  0  0  0  0  0  0
   21.5497   19.1538   24.2927 C   0  0  0  0  0  0  0  0  0  0  0  0
   20.6302   19.5208   24.7673 H   0  0  0  0  0  0  0  0  0  0  0  0
   22.2624   18.9037   25.0893 H   0  0  0  0  0  0  0  0  0  0  0  0
   21.9833   19.9681   23.6973 H   0  0  0  0  0  0  0  0  0  0  0  0
  1  2  1  0  0  0  0
  1  3  2  0  0  0  0
  1  4  1  0  0  0  0
  4  5  1  0  0  0  0
  4  6  1  0  0  0  0
  4  7  1  0  0  0  0
  7  8  1  0  0  0  0
  7  9  2  0  0  0  0
  9 10  1  0  0  0  0
  9 11  1  0  0  0  0
 11 12  1  0  0  0  0
 11 13  1  0  0  0  0
 11 14  1  0  0  0  0
 14 15  1  0  0  0  0
 14 16  1  0  0  0  0
 14 17  1  0  0  0  0
M  END
> <VConfSearch Rank>
318

> <Conf_Id>
19

> <Delta U+W>
-0.496

> <U+W>
-49.923

> <U>
13.863

> <W>
-63.786

> <W(PB)>
-65.856

> <W(SA)>
2.070

> <Valence>
14.117

> <Coulomb>
-1.228

> <VdW>
0.974

> <VdW6>
-4.885

> <VdW12>
5.859

> <Bond>
0.094

> <Angle>
2.818

> <Pdih>
11.205

> <Idih>
0.000

> <Tether>
0.000

$$$$
VeraChem MOL file


 17 16  0  0  0  0  0  0  0  0999 V2000     
   23.0916   18.9811   22.1416 C   0  0  0  0  0  0  0  0  0  0  0  0
   23.3472   18.1570   22.9974 O   0  5  0  0  0  0  0  0  0  0  0  0
   23.6076   18.9894   21.0412 O   0  0  0  0  0  0  0  0  0  0  0  0
   22.0778   20.0701   22.4671 C   0  0  0  0  0  0  0  0  0  0  0  0
   22.4624   21.0156   22.0674 H   0  0  0  0  0  0  0  0  0  0  0  0
   22.0290   20.1788   23.5573 H   0  0  0  0  0  0  0  0  0  0  0  0
   20.7065   19.7790   21.8878 C   0  0  0  0  0  0  0  0  0  0  0  0
   20.6451   19.8094   20.8003 H   0  0  0  0  0  0  0  0  0  0  0  0
   19.6264   19.4933   22.6212 C   0  0  0  0  0  0  0  0  0  0  0  0
   19.6896   19.4581   23.7083 H   0  0  0  0  0  0  0  0  0  0  0  0
   18.2606   19.2005   22.0414 C   0  0  0  0  0  0  0  0  0  0  0  0
   17.4993   19.7911   22.5689 H   0  0  0  0  0  0  0  0  0  0  0  0
   18.2184   19.5022   20.9858 H   0  0  0  0  0  0  0  0  0  0  0  0
   17.9200   17.7020   22.1573 C   0  0  0  0  0  0  0  0  0  0  0  0
   17.9168   17.3811   23.2073 H   0  0  0  0  0  0  0  0  0  0  0  0
   16.9282   17.4950   21.7348 H   0  0  0  0  0  0  0  0  0  0  0  0
   18.6553   17.0923   21.6158 H   0  0  0  0  0  0  0  0  0  0  0  0
  1  2  1  0  0  0  0
  1  3  2  0  0  0  0
  1  4  1  0  0  0  0
  4  5  1  0  0  0  0
  4  6  1  0  0  0  0
  4  7  1  0  0  0  0
  7  8  1  0  0  0  0
  7  9  2  0  0  0  0
  9 10  1  0  0  0  0
  9 11  1  0  0  0  0
 11 12  1  0  0  0  0
 11 13  1  0  0  0  0
 11 14  1  0  0  0  0
 14 15  1  0  0  0  0
 14 16  1  0  0  0  0
 14 17  1  0  0  0  0
M  END
> <VConfSearch Rank>
319

> <Conf_Id>
7

> <Delta U+W>
-0.041

> <U+W>
-49.468

> <U>
14.121

> <W>
-63.589

> <W(PB)>
-65.660

> <W(SA)>
2.071

> <Valence>
15.230

> <Coulomb>
-1.333

> <VdW>
0.224

> <VdW6>
-4.212

> <VdW12>
4.436

> <Bond>
0.044

> <Angle>
2.230

> <Pdih>
12.956

> <Idih>
0.000

> <Tether>
0.000

$$$$
VeraChem MOL file


 17 16  0  0  0  0  0  0  0  0999 V2000     
   21.7462   17.3643   21.0950 C   0  0  0  0  0  0  0  0  0  0  0  0
   21.5586   16.4183   21.8345 O   0  5  0  0  0  0  0  0  0  0  0  0
   22.8493   17.7990   20.8278 O   0  0  0  0  0  0  0  0  0  0  0  0
   20.5339   18.0241   20.4452 C   0  0  0  0  0  0  0  0  0  0  0  0
   19.7740   17.2499   20.2871 H   0  0  0  0  0  0  0  0  0  0  0  0
   20.8314   18.3629   19.4460 H   0  0  0  0  0  0  0  0  0  0  0  0
   19.9253   19.1859   21.2177 C   0  0  0  0  0  0  0  0  0  0  0  0
   19.0614   19.6424   20.7362 H   0  0  0  0  0  0  0  0  0  0  0  0
   20.3561   19.6613   22.3922 C   0  0  0  0  0  0  0  0  0  0  0  0
   21.2170   19.2225   22.8953 H   0  0  0  0  0  0  0  0  0  0  0  0
   19.7149   20.8223   23.1193 C   0  0  0  0  0  0  0  0  0  0  0  0
   20.4892   21.5339   23.4365 H   0  0  0  0  0  0  0  0  0  0  0  0
   19.0387   21.3705   22.4490 H   0  0  0  0  0  0  0  0  0  0  0  0
   18.9277   20.3367   24.3520 C   0  0  0  0  0  0  0  0  0  0  0  0
   18.4658   21.1833   24.8765 H   0  0  0  0  0  0  0  0  0  0  0  0
   18.1300   19.6425   24.0564 H   0  0  0  0  0  0  0  0  0  0  0  0
   19.5882   19.8173   25.0587 H   0  0  0  0  0  0  0  0  0  0  0  0
  1  2  1  0  0  0  0
  1  3  2  0  0  0  0
  1  4  1  0  0  0  0
  4  5  1  0  0  0  0
  4  6  1  0  0  0  0
  4  7  1  0  0  0  0
  7  8  1  0  0  0  0
  7  9  2  0  0  0  0
  9 10  1  0  0  0  0
  9 11  1  0  0  0  0
 11 12  1  0  0  0  0
 11 13  1  0  0  0  0
 11 14  1  0  0  0  0
 14 15  1  0  0  0  0
 14 16  1  0  0  0  0
 14 17  1  0  0  0  0
M  END
> <VConfSearch Rank>
320

> <Conf_Id>
39

> <Delta U+W>
-0.422

> <U+W>
-49.849

> <U>
14.465

> <W>
-64.314

> <W(PB)>
-66.406

> <W(SA)>
2.093

> <Valence>
14.072

> <Coulomb>
-0.199

> <VdW>
0.592

> <VdW6>
-5.019

> <VdW12>
5.611

> <Bond>
0.085

> <Angle>
2.748

> <Pdih>
11.238

> <Idih>
0.001

> <Tether>
0.000

$$$$
VeraChem MOL file


 17 16  0  0  0  0  0  0  0  0999 V2000     
   17.8365   20.6644   23.8135 C   0  0  0  0  0  0  0  0  0  0  0  0
   17.2433   21.5827   23.2825 O   0  5  0  0  0  0  0  0  0  0  0  0
   18.1617   20.6622   24.9844 O   0  0  0  0  0  0  0  0  0  0  0  0
   18.1855   19.4489   22.9647 C   0  0  0  0  0  0  0  0  0  0  0  0
   17.3263   19.2333   22.3191 H   0  0  0  0  0  0  0  0  0  0  0  0
   18.3088   18.5880   23.6327 H   0  0  0  0  0  0  0  0  0  0  0  0
   19.4282   19.6660   22.1226 C   0  0  0  0  0  0  0  0  0  0  0  0
   19.3266   20.4008   21.3244 H   0  0  0  0  0  0  0  0  0  0  0  0
   20.5858   19.0257   22.3128 C   0  0  0  0  0  0  0  0  0  0  0  0
   20.6876   18.2933   23.1130 H   0  0  0  0  0  0  0  0  0  0  0  0
   21.8251   19.2462   21.4745 C   0  0  0  0  0  0  0  0  0  0  0  0
   21.7257   20.1615   20.8749 H   0  0  0  0  0  0  0  0  0  0  0  0
   22.6948   19.3914   22.1296 H   0  0  0  0  0  0  0  0  0  0  0  0
   22.0810   18.0488   20.5387 C   0  0  0  0  0  0  0  0  0  0  0  0
   21.2343   17.8997   19.8557 H   0  0  0  0  0  0  0  0  0  0  0  0
   22.9818   18.2143   19.9335 H   0  0  0  0  0  0  0  0  0  0  0  0
   22.2227   17.1248   21.1146 H   0  0  0  0  0  0  0  0  0  0  0  0
  1  2  1  0  0  0  0
  1  3  2  0  0  0  0
  1  4  1  0  0  0  0
  4  5  1  0  0  0  0
  4  6  1  0  0  0  0
  4  7  1  0  0  0  0
  7  8  1  0  0  0  0
  7  9  2  0  0  0  0
  9 10  1  0  0  0  0
  9 11  1  0  0  0  0
 11 12  1  0  0  0  0
 11 13  1  0  0  0  0
 11 14  1  0  0  0  0
 14 15  1  0  0  0  0
 14 16  1  0  0  0  0
 14 17  1  0  0  0  0
M  END
> <VConfSearch Rank>
321

> <Conf_Id>
38

> <Delta U+W>
0.000

> <U+W>
-49.427

> <U>
13.666

> <W>
-63.093

> <W(PB)>
-65.225

> <W(SA)>
2.132

> <Valence>
15.226

> <Coulomb>
-1.822

> <VdW>
0.261

> <VdW6>
-4.165

> <VdW12>
4.426

> <Bond>
0.044

> <Angle>
2.229

> <Pdih>
12.953

> <Idih>
0.000

> <Tether>
0.000

$$$$
VeraChem MOL file


 17 16  0  0  0  0  0  0  0  0999 V2000     
   21.7774   18.1836   24.5505 C   0  0  0  0  0  0  0  0  0  0  0  0
   21.4857   18.8154   25.5468 O   0  5  0  0  0  0  0  0  0  0  0  0
   22.9039   17.8002   24.3038 O   0  0  0  0  0  0  0  0  0  0  0  0
   20.6715   17.8483   23.5585 C   0  0  0  0  0  0  0  0  0  0  0  0
   19.7138   17.8690   24.0923 H   0  0  0  0  0  0  0  0  0  0  0  0
   20.8272   16.8177   23.2191 H   0  0  0  0  0  0  0  0  0  0  0  0
   20.6520   18.7906   22.3700 C   0  0  0  0  0  0  0  0  0  0  0  0
   21.5060   18.7097   21.6982 H   0  0  0  0  0  0  0  0  0  0  0  0
   19.6787   19.6740   22.1279 C   0  0  0  0  0  0  0  0  0  0  0  0
   18.8266   19.7566   22.8018 H   0  0  0  0  0  0  0  0  0  0  0  0
   19.6628   20.6156   20.9445 C   0  0  0  0  0  0  0  0  0  0  0  0
   19.4370   21.6352   21.2850 H   0  0  0  0  0  0  0  0  0  0  0  0
   20.6532   20.6537   20.4702 H   0  0  0  0  0  0  0  0  0  0  0  0
   18.6150   20.1781   19.9025 C   0  0  0  0  0  0  0  0  0  0  0  0
   17.6080   20.1680   20.3400 H   0  0  0  0  0  0  0  0  0  0  0  0
   18.6076   20.8654   19.0466 H   0  0  0  0  0  0  0  0  0  0  0  0
   18.8352   19.1697   19.5279 H   0  0  0  0  0  0  0  0  0  0  0  0
  1  2  1  0  0  0  0
  1  3  2  0  0  0  0
  1  4  1  0  0  0  0
  4  5  1  0  0  0  0
  4  6  1  0  0  0  0
  4  7  1  0  0  0  0
  7  8  1  0  0  0  0
  7  9  2  0  0  0  0
  9 10  1  0  0  0  0
  9 11  1  0  0  0  0
 11 12  1  0  0  0  0
 11 13  1  0  0  0  0
 11 14  1  0  0  0  0
 14 15  1  0  0  0  0
 14 16  1  0  0  0  0
 14 17  1  0  0  0  0
M  END
> <VConfSearch Rank>
322

> <Conf_Id>
35

> <Delta U+W>
-0.102

> <U+W>
-49.529

> <U>
13.666

> <W>
-63.195

> <W(PB)>
-65.299

> <W(SA)>
2.103

> <Valence>
15.226

> <Coulomb>
-1.822

> <VdW>
0.261

> <VdW6>
-4.165

> <VdW12>
4.426

> <Bond>
0.044

> <Angle>
2.229

> <Pdih>
12.953

> <Idih>
0.000

> <Tether>
0.000

$$$$
VeraChem MOL file


 17 16  0  0  0  0  0  0  0  0999 V2000     
   21.9670   20.0507   20.0221 C   0  0  0  0  0  0  0  0  0  0  0  0
   23.1314   19.9768   20.3623 O   0  5  0  0  0  0  0  0  0  0  0  0
   21.5593   19.6855   18.9371 O   0  0  0  0  0  0  0  0  0  0  0  0
   20.9674   20.6425   21.0073 C   0  0  0  0  0  0  0  0  0  0  0  0
   20.1139   21.0303   20.4385 H   0  0  0  0  0  0  0  0  0  0  0  0
   21.4450   21.5009   21.4937 H   0  0  0  0  0  0  0  0  0  0  0  0
   20.5164   19.6377   22.0506 C   0  0  0  0  0  0  0  0  0  0  0  0
   21.2908   19.3325   22.7521 H   0  0  0  0  0  0  0  0  0  0  0  0
   19.2741   19.1437   22.1240 C   0  0  0  0  0  0  0  0  0  0  0  0
   18.5265   19.4695   21.4015 H   0  0  0  0  0  0  0  0  0  0  0  0
   18.7566   18.1359   23.1364 C   0  0  0  0  0  0  0  0  0  0  0  0
   17.9015   18.5728   23.6697 H   0  0  0  0  0  0  0  0  0  0  0  0
   18.3559   17.2653   22.5997 H   0  0  0  0  0  0  0  0  0  0  0  0
   19.7999   17.6536   24.1683 C   0  0  0  0  0  0  0  0  0  0  0  0
   20.1837   18.4933   24.7626 H   0  0  0  0  0  0  0  0  0  0  0  0
   19.3505   16.9298   24.8606 H   0  0  0  0  0  0  0  0  0  0  0  0
   20.6471   17.1625   23.6718 H   0  0  0  0  0  0  0  0  0  0  0  0
  1  2  1  0  0  0  0
  1  3  2  0  0  0  0
  1  4  1  0  0  0  0
  4  5  1  0  0  0  0
  4  6  1  0  0  0  0
  4  7  1  0  0  0  0
  7  8  1  0  0  0  0
  7  9  2  0  0  0  0
  9 10  1  0  0  0  0
  9 11  1  0  0  0  0
 11 12  1  0  0  0  0
 11 13  1  0  0  0  0
 11 14  1  0  0  0  0
 14 15  1  0  0  0  0
 14 16  1  0  0  0  0
 14 17  1  0  0  0  0
M  END
> <VConfSearch Rank>
323

> <Conf_Id>
19

> <Delta U+W>
-0.496

> <U+W>
-49.923

> <U>
13.863

> <W>
-63.786

> <W(PB)>
-65.856

> <W(SA)>
2.070

> <Valence>
14.117

> <Coulomb>
-1.228

> <VdW>
0.974

> <VdW6>
-4.885

> <VdW12>
5.859

> <Bond>
0.094

> <Angle>
2.818

> <Pdih>
11.205

> <Idih>
0.000

> <Tether>
0.000

$$$$
VeraChem MOL file


 17 16  0  0  0  0  0  0  0  0999 V2000     
   18.4336   21.2443   21.2655 C   0  0  0  0  0  0  0  0  0  0  0  0
   18.2009   20.9109   20.1203 O   0  5  0  0  0  0  0  0  0  0  0  0
   17.5807   21.6348   22.0382 O   0  0  0  0  0  0  0  0  0  0  0  0
   19.8734   21.1802   21.7581 C   0  0  0  0  0  0  0  0  0  0  0  0
   20.0652   22.0830   22.3496 H   0  0  0  0  0  0  0  0  0  0  0  0
   20.5368   21.2212   20.8858 H   0  0  0  0  0  0  0  0  0  0  0  0
   20.1476   19.9432   22.5920 C   0  0  0  0  0  0  0  0  0  0  0  0
   19.6372   19.9084   23.5540 H   0  0  0  0  0  0  0  0  0  0  0  0
   20.9442   18.9407   22.2092 C   0  0  0  0  0  0  0  0  0  0  0  0
   21.4502   18.9736   21.2449 H   0  0  0  0  0  0  0  0  0  0  0  0
   21.2139   17.7066   23.0410 C   0  0  0  0  0  0  0  0  0  0  0  0
   22.2945   17.5133   23.0783 H   0  0  0  0  0  0  0  0  0  0  0  0
   20.8853   17.8625   24.0778 H   0  0  0  0  0  0  0  0  0  0  0  0
   20.4917   16.4769   22.4569 C   0  0  0  0  0  0  0  0  0  0  0  0
   20.8302   16.2740   21.4323 H   0  0  0  0  0  0  0  0  0  0  0  0
   20.6904   15.5845   23.0644 H   0  0  0  0  0  0  0  0  0  0  0  0
   19.4058   16.6379   22.4325 H   0  0  0  0  0  0  0  0  0  0  0  0
  1  2  1  0  0  0  0
  1  3  2  0  0  0  0
  1  4  1  0  0  0  0
  4  5  1  0  0  0  0
  4  6  1  0  0  0  0
  4  7  1  0  0  0  0
  7  8  1  0  0  0  0
  7  9  2  0  0  0  0
  9 10  1  0  0  0  0
  9 11  1  0  0  0  0
 11 12  1  0  0  0  0
 11 13  1  0  0  0  0
 11 14  1  0  0  0  0
 14 15  1  0  0  0  0
 14 16  1  0  0  0  0
 14 17  1  0  0  0  0
M  END
> <VConfSearch Rank>
324

> <Conf_Id>
7

> <Delta U+W>
-0.041

> <U+W>
-49.468

> <U>
14.121

> <W>
-63.589

> <W(PB)>
-65.660

> <W(SA)>
2.071

> <Valence>
15.230

> <Coulomb>
-1.333

> <VdW>
0.224

> <VdW6>
-4.212

> <VdW12>
4.436

> <Bond>
0.044

> <Angle>
2.230

> <Pdih>
12.956

> <Idih>
0.000

> <Tether>
0.000

$$$$
VeraChem MOL file


 17 16  0  0  0  0  0  0  0  0999 V2000     
   21.5407   16.9297   22.6489 C   0  0  0  0  0  0  0  0  0  0  0  0
   20.8768   16.1513   21.9928 O   0  5  0  0  0  0  0  0  0  0  0  0
   21.8245   16.7510   23.8170 O   0  0  0  0  0  0  0  0  0  0  0  0
   22.0696   18.1850   21.9618 C   0  0  0  0  0  0  0  0  0  0  0  0
   22.2553   17.9395   20.9096 H   0  0  0  0  0  0  0  0  0  0  0  0
   23.0496   18.4170   22.3946 H   0  0  0  0  0  0  0  0  0  0  0  0
   21.1703   19.4100   22.0487 C   0  0  0  0  0  0  0  0  0  0  0  0
   21.5668   20.2947   21.5519 H   0  0  0  0  0  0  0  0  0  0  0  0
   19.9824   19.4720   22.6619 C   0  0  0  0  0  0  0  0  0  0  0  0
   19.5629   18.6018   23.1653 H   0  0  0  0  0  0  0  0  0  0  0  0
   19.1267   20.7179   22.7207 C   0  0  0  0  0  0  0  0  0  0  0  0
   18.7888   20.8869   23.7521 H   0  0  0  0  0  0  0  0  0  0  0  0
   19.7126   21.6015   22.4323 H   0  0  0  0  0  0  0  0  0  0  0  0
   17.9024   20.5929   21.7931 C   0  0  0  0  0  0  0  0  0  0  0  0
   17.2845   21.4989   21.8408 H   0  0  0  0  0  0  0  0  0  0  0  0
   18.2163   20.4487   20.7508 H   0  0  0  0  0  0  0  0  0  0  0  0
   17.2772   19.7382   22.0831 H   0  0  0  0  0  0  0  0  0  0  0  0
  1  2  1  0  0  0  0
  1  3  2  0  0  0  0
  1  4  1  0  0  0  0
  4  5  1  0  0  0  0
  4  6  1  0  0  0  0
  4  7  1  0  0  0  0
  7  8  1  0  0  0  0
  7  9  2  0  0  0  0
  9 10  1  0  0  0  0
  9 11  1  0  0  0  0
 11 12  1  0  0  0  0
 11 13  1  0  0  0  0
 11 14  1  0  0  0  0
 14 15  1  0  0  0  0
 14 16  1  0  0  0  0
 14 17  1  0  0  0  0
M  END
> <VConfSearch Rank>
325

> <Conf_Id>
39

> <Delta U+W>
-0.422

> <U+W>
-49.849

> <U>
14.465

> <W>
-64.314

> <W(PB)>
-66.406

> <W(SA)>
2.093

> <Valence>
14.072

> <Coulomb>
-0.199

> <VdW>
0.592

> <VdW6>
-5.019

> <VdW12>
5.611

> <Bond>
0.085

> <Angle>
2.748

> <Pdih>
11.238

> <Idih>
0.001

> <Tether>
0.000

$$$$
VeraChem MOL file


 17 16  0  0  0  0  0  0  0  0999 V2000     
   23.2497   19.0098   22.3957 C   0  0  0  0  0  0  0  0  0  0  0  0
   23.9230   19.7282   21.6833 O   0  5  0  0  0  0  0  0  0  0  0  0
   23.5304   17.8531   22.6409 O   0  0  0  0  0  0  0  0  0  0  0  0
   21.9888   19.5946   23.0184 C   0  0  0  0  0  0  0  0  0  0  0  0
   22.2193   20.6148   23.3464 H   0  0  0  0  0  0  0  0  0  0  0  0
   21.7497   19.0147   23.9180 H   0  0  0  0  0  0  0  0  0  0  0  0
   20.8180   19.6096   22.0542 C   0  0  0  0  0  0  0  0  0  0  0  0
   20.9181   20.2933   21.2117 H   0  0  0  0  0  0  0  0  0  0  0  0
   19.7242   18.8534   22.1889 C   0  0  0  0  0  0  0  0  0  0  0  0
   19.6261   18.1678   23.0300 H   0  0  0  0  0  0  0  0  0  0  0  0
   18.5594   18.8670   21.2244 C   0  0  0  0  0  0  0  0  0  0  0  0
   18.8395   19.3737   20.2906 H   0  0  0  0  0  0  0  0  0  0  0  0
   18.2890   17.8370   20.9552 H   0  0  0  0  0  0  0  0  0  0  0  0
   17.3373   19.5743   21.8418 C   0  0  0  0  0  0  0  0  0  0  0  0
   17.5766   20.6154   22.0959 H   0  0  0  0  0  0  0  0  0  0  0  0
   16.4952   19.5805   21.1376 H   0  0  0  0  0  0  0  0  0  0  0  0
   17.0114   19.0649   22.7582 H   0  0  0  0  0  0  0  0  0  0  0  0
  1  2  1  0  0  0  0
  1  3  2  0  0  0  0
  1  4  1  0  0  0  0
  4  5  1  0  0  0  0
  4  6  1  0  0  0  0
  4  7  1  0  0  0  0
  7  8  1  0  0  0  0
  7  9  2  0  0  0  0
  9 10  1  0  0  0  0
  9 11  1  0  0  0  0
 11 12  1  0  0  0  0
 11 13  1  0  0  0  0
 11 14  1  0  0  0  0
 14 15  1  0  0  0  0
 14 16  1  0  0  0  0
 14 17  1  0  0  0  0
M  END
> <VConfSearch Rank>
326

> <Conf_Id>
38

> <Delta U+W>
0.000

> <U+W>
-49.427

> <U>
13.666

> <W>
-63.093

> <W(PB)>
-65.225

> <W(SA)>
2.132

> <Valence>
15.226

> <Coulomb>
-1.822

> <VdW>
0.261

> <VdW6>
-4.165

> <VdW12>
4.426

> <Bond>
0.044

> <Angle>
2.229

> <Pdih>
12.953

> <Idih>
0.000

> <Tether>
0.000

$$$$
VeraChem MOL file


 17 16  0  0  0  0  0  0  0  0999 V2000     
   21.8152   21.6055   23.3544 C   0  0  0  0  0  0  0  0  0  0  0  0
   22.9855   21.2779   23.3548 O   0  5  0  0  0  0  0  0  0  0  0  0
   21.2966   22.2468   24.2470 O   0  0  0  0  0  0  0  0  0  0  0  0
   20.9509   21.1959   22.1692 C   0  0  0  0  0  0  0  0  0  0  0  0
   21.6080   21.0261   21.3078 H   0  0  0  0  0  0  0  0  0  0  0  0
   20.3044   22.0444   21.9169 H   0  0  0  0  0  0  0  0  0  0  0  0
   20.1090   19.9684   22.4610 C   0  0  0  0  0  0  0  0  0  0  0  0
   19.3200   20.1103   23.1989 H   0  0  0  0  0  0  0  0  0  0  0  0
   20.2893   18.7784   21.8799 C   0  0  0  0  0  0  0  0  0  0  0  0
   21.0805   18.6363   21.1445 H   0  0  0  0  0  0  0  0  0  0  0  0
   19.4514   17.5544   22.1751 C   0  0  0  0  0  0  0  0  0  0  0  0
   20.1065   16.6920   22.3582 H   0  0  0  0  0  0  0  0  0  0  0  0
   18.8627   17.7033   23.0908 H   0  0  0  0  0  0  0  0  0  0  0  0
   18.5011   17.2382   21.0037 C   0  0  0  0  0  0  0  0  0  0  0  0
   19.0659   17.0468   20.0818 H   0  0  0  0  0  0  0  0  0  0  0  0
   17.8963   16.3488   21.2234 H   0  0  0  0  0  0  0  0  0  0  0  0
   17.8180   18.0776   20.8183 H   0  0  0  0  0  0  0  0  0  0  0  0
  1  2  1  0  0  0  0
  1  3  2  0  0  0  0
  1  4  1  0  0  0  0
  4  5  1  0  0  0  0
  4  6  1  0  0  0  0
  4  7  1  0  0  0  0
  7  8  1  0  0  0  0
  7  9  2  0  0  0  0
  9 10  1  0  0  0  0
  9 11  1  0  0  0  0
 11 12  1  0  0  0  0
 11 13  1  0  0  0  0
 11 14  1  0  0  0  0
 14 15  1  0  0  0  0
 14 16  1  0  0  0  0
 14 17  1  0  0  0  0
M  END
> <VConfSearch Rank>
327

> <Conf_Id>
35

> <Delta U+W>
-0.102

> <U+W>
-49.529

> <U>
13.666

> <W>
-63.195

> <W(PB)>
-65.299

> <W(SA)>
2.103

> <Valence>
15.226

> <Coulomb>
-1.822

> <VdW>
0.261

> <VdW6>
-4.165

> <VdW12>
4.426

> <Bond>
0.044

> <Angle>
2.229

> <Pdih>
12.953

> <Idih>
0.000

> <Tether>
0.000

$$$$
VeraChem MOL file


 17 16  0  0  0  0  0  0  0  0999 V2000     
   19.6020   18.5196   25.0292 C   0  0  0  0  0  0  0  0  0  0  0  0
   18.8418   17.5740   25.0996 O   0  5  0  0  0  0  0  0  0  0  0  0
   20.5840   18.6463   25.7338 O   0  0  0  0  0  0  0  0  0  0  0  0
   19.3004   19.6087   24.0081 C   0  0  0  0  0  0  0  0  0  0  0  0
   19.7768   20.5369   24.3459 H   0  0  0  0  0  0  0  0  0  0  0  0
   18.2183   19.7833   24.0146 H   0  0  0  0  0  0  0  0  0  0  0  0
   19.7593   19.2374   22.6107 C   0  0  0  0  0  0  0  0  0  0  0  0
   19.2092   18.4159   22.1551 H   0  0  0  0  0  0  0  0  0  0  0  0
   20.7611   19.8488   21.9662 C   0  0  0  0  0  0  0  0  0  0  0  0
   21.2918   20.6646   22.4561 H   0  0  0  0  0  0  0  0  0  0  0  0
   21.2738   19.5273   20.5725 C   0  0  0  0  0  0  0  0  0  0  0  0
   21.2067   20.4302   19.9506 H   0  0  0  0  0  0  0  0  0  0  0  0
   22.3444   19.2894   20.6328 H   0  0  0  0  0  0  0  0  0  0  0  0
   20.5411   18.3695   19.8592 C   0  0  0  0  0  0  0  0  0  0  0  0
   19.4745   18.5969   19.7325 H   0  0  0  0  0  0  0  0  0  0  0  0
   20.9690   18.1991   18.8628 H   0  0  0  0  0  0  0  0  0  0  0  0
   20.6328   17.4352   20.4286 H   0  0  0  0  0  0  0  0  0  0  0  0
  1  2  1  0  0  0  0
  1  3  2  0  0  0  0
  1  4  1  0  0  0  0
  4  5  1  0  0  0  0
  4  6  1  0  0  0  0
  4  7  1  0  0  0  0
  7  8  1  0  0  0  0
  7  9  2  0  0  0  0
  9 10  1  0  0  0  0
  9 11  1  0  0  0  0
 11 12  1  0  0  0  0
 11 13  1  0  0  0  0
 11 14  1  0  0  0  0
 14 15  1  0  0  0  0
 14 16  1  0  0  0  0
 14 17  1  0  0  0  0
M  END
> <VConfSearch Rank>
328

> <Conf_Id>
19

> <Delta U+W>
-0.496

> <U+W>
-49.923

> <U>
13.863

> <W>
-63.786

> <W(PB)>
-65.856

> <W(SA)>
2.070

> <Valence>
14.117

> <Coulomb>
-1.228

> <VdW>
0.974

> <VdW6>
-4.885

> <VdW12>
5.859

> <Bond>
0.094

> <Angle>
2.818

> <Pdih>
11.205

> <Idih>
0.000

> <Tether>
0.000

$$$$
VeraChem MOL file


 17 16  0  0  0  0  0  0  0  0999 V2000     
   20.8258   16.2237   22.5336 C   0  0  0  0  0  0  0  0  0  0  0  0
   21.2431   16.1841   23.6742 O   0  5  0  0  0  0  0  0  0  0  0  0
   20.0290   15.4252   22.0814 O   0  0  0  0  0  0  0  0  0  0  0  0
   21.3360   17.3268   21.6156 C   0  0  0  0  0  0  0  0  0  0  0  0
   21.5291   16.8816   20.6327 H   0  0  0  0  0  0  0  0  0  0  0  0
   22.2997   17.6780   22.0038 H   0  0  0  0  0  0  0  0  0  0  0  0
   20.3524   18.4740   21.4837 C   0  0  0  0  0  0  0  0  0  0  0  0
   19.4259   18.2345   20.9627 H   0  0  0  0  0  0  0  0  0  0  0  0
   20.5632   19.7032   21.9640 C   0  0  0  0  0  0  0  0  0  0  0  0
   21.4877   19.9408   22.4893 H   0  0  0  0  0  0  0  0  0  0  0  0
   19.5798   20.8449   21.8339 C   0  0  0  0  0  0  0  0  0  0  0  0
   20.0995   21.7430   21.4735 H   0  0  0  0  0  0  0  0  0  0  0  0
   18.8094   20.6056   21.0880 H   0  0  0  0  0  0  0  0  0  0  0  0
   18.9040   21.1497   23.1850 C   0  0  0  0  0  0  0  0  0  0  0  0
   19.6489   21.4304   23.9411 H   0  0  0  0  0  0  0  0  0  0  0  0
   18.1912   21.9785   23.0848 H   0  0  0  0  0  0  0  0  0  0  0  0
   18.3567   20.2720   23.5536 H   0  0  0  0  0  0  0  0  0  0  0  0
  1  2  1  0  0  0  0
  1  3  2  0  0  0  0
  1  4  1  0  0  0  0
  4  5  1  0  0  0  0
  4  6  1  0  0  0  0
  4  7  1  0  0  0  0
  7  8  1  0  0  0  0
  7  9  2  0  0  0  0
  9 10  1  0  0  0  0
  9 11  1  0  0  0  0
 11 12  1  0  0  0  0
 11 13  1  0  0  0  0
 11 14  1  0  0  0  0
 14 15  1  0  0  0  0
 14 16  1  0  0  0  0
 14 17  1  0  0  0  0
M  END
> <VConfSearch Rank>
329

> <Conf_Id>
7

> <Delta U+W>
-0.041

> <U+W>
-49.468

> <U>
14.121

> <W>
-63.589

> <W(PB)>
-65.660

> <W(SA)>
2.071

> <Valence>
15.230

> <Coulomb>
-1.333

> <VdW>
0.224

> <VdW6>
-4.212

> <VdW12>
4.436

> <Bond>
0.044

> <Angle>
2.230

> <Pdih>
12.956

> <Idih>
0.000

> <Tether>
0.000

$$$$
VeraChem MOL file


 17 16  0  0  0  0  0  0  0  0999 V2000     
   21.9989   17.6854   20.9960 C   0  0  0  0  0  0  0  0  0  0  0  0
   22.8906   18.4884   20.8037 O   0  5  0  0  0  0  0  0  0  0  0  0
   21.5038   17.0087   20.1162 O   0  0  0  0  0  0  0  0  0  0  0  0
   21.4930   17.4963   22.4228 C   0  0  0  0  0  0  0  0  0  0  0  0
   22.3346   17.6688   23.1037 H   0  0  0  0  0  0  0  0  0  0  0  0
   21.2179   16.4422   22.5446 H   0  0  0  0  0  0  0  0  0  0  0  0
   20.3209   18.3794   22.8268 C   0  0  0  0  0  0  0  0  0  0  0  0
   19.9756   18.2283   23.8487 H   0  0  0  0  0  0  0  0  0  0  0  0
   19.7156   19.2867   22.0512 C   0  0  0  0  0  0  0  0  0  0  0  0
   20.0418   19.4581   21.0261 H   0  0  0  0  0  0  0  0  0  0  0  0
   18.5507   20.1399   22.5017 C   0  0  0  0  0  0  0  0  0  0  0  0
   17.7566   20.1129   21.7433 H   0  0  0  0  0  0  0  0  0  0  0  0
   18.1155   19.7396   23.4278 H   0  0  0  0  0  0  0  0  0  0  0  0
   18.9900   21.5987   22.7337 C   0  0  0  0  0  0  0  0  0  0  0  0
   18.1406   22.2134   23.0591 H   0  0  0  0  0  0  0  0  0  0  0  0
   19.7667   21.6534   23.5079 H   0  0  0  0  0  0  0  0  0  0  0  0
   19.3946   22.0370   21.8120 H   0  0  0  0  0  0  0  0  0  0  0  0
  1  2  1  0  0  0  0
  1  3  2  0  0  0  0
  1  4  1  0  0  0  0
  4  5  1  0  0  0  0
  4  6  1  0  0  0  0
  4  7  1  0  0  0  0
  7  8  1  0  0  0  0
  7  9  2  0  0  0  0
  9 10  1  0  0  0  0
  9 11  1  0  0  0  0
 11 12  1  0  0  0  0
 11 13  1  0  0  0  0
 11 14  1  0  0  0  0
 14 15  1  0  0  0  0
 14 16  1  0  0  0  0
 14 17  1  0  0  0  0
M  END
> <VConfSearch Rank>
330

> <Conf_Id>
39

> <Delta U+W>
-0.422

> <U+W>
-49.849

> <U>
14.465

> <W>
-64.314

> <W(PB)>
-66.406

> <W(SA)>
2.093

> <Valence>
14.072

> <Coulomb>
-0.199

> <VdW>
0.592

> <VdW6>
-5.019

> <VdW12>
5.611

> <Bond>
0.085

> <Angle>
2.748

> <Pdih>
11.238

> <Idih>
0.001

> <Tether>
0.000

$$$$
VeraChem MOL file


 17 16  0  0  0  0  0  0  0  0999 V2000     
   21.3980   17.2251   20.0659 C   0  0  0  0  0  0  0  0  0  0  0  0
   21.4782   17.5887   18.9090 O   0  5  0  0  0  0  0  0  0  0  0  0
   21.0988   16.0944   20.3957 O   0  0  0  0  0  0  0  0  0  0  0  0
   21.6942   18.2422   21.1602 C   0  0  0  0  0  0  0  0  0  0  0  0
   22.5588   18.8355   20.8409 H   0  0  0  0  0  0  0  0  0  0  0  0
   21.9951   17.6970   22.0629 H   0  0  0  0  0  0  0  0  0  0  0  0
   20.5138   19.1520   21.4425 C   0  0  0  0  0  0  0  0  0  0  0  0
   20.2570   19.8431   20.6403 H   0  0  0  0  0  0  0  0  0  0  0  0
   19.8099   19.1384   22.5786 C   0  0  0  0  0  0  0  0  0  0  0  0
   20.0654   18.4450   23.3792 H   0  0  0  0  0  0  0  0  0  0  0  0
   18.6309   20.0438   22.8568 C   0  0  0  0  0  0  0  0  0  0  0  0
   18.2818   20.5167   21.9285 H   0  0  0  0  0  0  0  0  0  0  0  0
   17.7911   19.4506   23.2435 H   0  0  0  0  0  0  0  0  0  0  0  0
   19.0009   21.1370   23.8782 C   0  0  0  0  0  0  0  0  0  0  0  0
   19.8228   21.7601   23.5017 H   0  0  0  0  0  0  0  0  0  0  0  0
   18.1413   21.7903   24.0766 H   0  0  0  0  0  0  0  0  0  0  0  0
   19.3176   20.6921   24.8307 H   0  0  0  0  0  0  0  0  0  0  0  0
  1  2  1  0  0  0  0
  1  3  2  0  0  0  0
  1  4  1  0  0  0  0
  4  5  1  0  0  0  0
  4  6  1  0  0  0  0
  4  7  1  0  0  0  0
  7  8  1  0  0  0  0
  7  9  2  0  0  0  0
  9 10  1  0  0  0  0
  9 11  1  0  0  0  0
 11 12  1  0  0  0  0
 11 13  1  0  0  0  0
 11 14  1  0  0  0  0
 14 15  1  0  0  0  0
 14 16  1  0  0  0  0
 14 17  1  0  0  0  0
M  END
> <VConfSearch Rank>
331

> <Conf_Id>
38

> <Delta U+W>
0.000

> <U+W>
-49.427

> <U>
13.666

> <W>
-63.093

> <W(PB)>
-65.225

> <W(SA)>
2.132

> <Valence>
15.226

> <Coulomb>
-1.822

> <VdW>
0.261

> <VdW6>
-4.165

> <VdW12>
4.426

> <Bond>
0.044

> <Angle>
2.229

> <Pdih>
12.953

> <Idih>
0.000

> <Tether>
0.000

$$$$
VeraChem MOL file


 17 16  0  0  0  0  0  0  0  0999 V2000     
   19.0355   22.2033   21.5617 C   0  0  0  0  0  0  0  0  0  0  0  0
   19.4986   22.6033   20.5118 O   0  5  0  0  0  0  0  0  0  0  0  0
   18.8717   22.9103   22.5366 O   0  0  0  0  0  0  0  0  0  0  0  0
   18.6327   20.7379   21.6617 C   0  0  0  0  0  0  0  0  0  0  0  0
   18.4375   20.3659   20.6488 H   0  0  0  0  0  0  0  0  0  0  0  0
   17.6849   20.6877   22.2100 H   0  0  0  0  0  0  0  0  0  0  0  0
   19.6825   19.8932   22.3582 C   0  0  0  0  0  0  0  0  0  0  0  0
   19.8167   20.1000   23.4196 H   0  0  0  0  0  0  0  0  0  0  0  0
   20.4149   18.9543   21.7514 C   0  0  0  0  0  0  0  0  0  0  0  0
   20.2825   18.7503   20.6894 H   0  0  0  0  0  0  0  0  0  0  0  0
   21.4640   18.1157   22.4466 C   0  0  0  0  0  0  0  0  0  0  0  0
   22.3894   18.1144   21.8549 H   0  0  0  0  0  0  0  0  0  0  0  0
   21.7158   18.5483   23.4247 H   0  0  0  0  0  0  0  0  0  0  0  0
   20.9760   16.6667   22.6402 C   0  0  0  0  0  0  0  0  0  0  0  0
   20.7530   16.1961   21.6737 H   0  0  0  0  0  0  0  0  0  0  0  0
   21.7417   16.0630   23.1445 H   0  0  0  0  0  0  0  0  0  0  0  0
   20.0644   16.6408   23.2517 H   0  0  0  0  0  0  0  0  0  0  0  0
  1  2  1  0  0  0  0
  1  3  2  0  0  0  0
  1  4  1  0  0  0  0
  4  5  1  0  0  0  0
  4  6  1  0  0  0  0
  4  7  1  0  0  0  0
  7  8  1  0  0  0  0
  7  9  2  0  0  0  0
  9 10  1  0  0  0  0
  9 11  1  0  0  0  0
 11 12  1  0  0  0  0
 11 13  1  0  0  0  0
 11 14  1  0  0  0  0
 14 15  1  0  0  0  0
 14 16  1  0  0  0  0
 14 17  1  0  0  0  0
M  END
> <VConfSearch Rank>
332

> <Conf_Id>
35

> <Delta U+W>
-0.102

> <U+W>
-49.529

> <U>
13.666

> <W>
-63.195

> <W(PB)>
-65.299

> <W(SA)>
2.103

> <Valence>
15.226

> <Coulomb>
-1.822

> <VdW>
0.261

> <VdW6>
-4.165

> <VdW12>
4.426

> <Bond>
0.044

> <Angle>
2.229

> <Pdih>
12.953

> <Idih>
0.000

> <Tether>
0.000

$$$$
VeraChem MOL file


 17 16  0  0  0  0  0  0  0  0999 V2000     
   19.1857   20.6568   19.9222 C   0  0  0  0  0  0  0  0  0  0  0  0
   18.9020   21.7815   20.2850 O   0  5  0  0  0  0  0  0  0  0  0  0
   19.8023   20.4148   18.9033 O   0  0  0  0  0  0  0  0  0  0  0  0
   18.7349   19.4879   20.7883 C   0  0  0  0  0  0  0  0  0  0  0  0
   18.6723   18.5954   20.1542 H   0  0  0  0  0  0  0  0  0  0  0  0
   17.7191   19.7035   21.1391 H   0  0  0  0  0  0  0  0  0  0  0  0
   19.6552   19.2531   21.9712 C   0  0  0  0  0  0  0  0  0  0  0  0
   19.6398   20.0410   22.7222 H   0  0  0  0  0  0  0  0  0  0  0  0
   20.4392   18.1760   22.1055 C   0  0  0  0  0  0  0  0  0  0  0  0
   20.4311   17.4099   21.3309 H   0  0  0  0  0  0  0  0  0  0  0  0
   21.3844   17.8795   23.2576 C   0  0  0  0  0  0  0  0  0  0  0  0
   21.1110   16.9138   23.7039 H   0  0  0  0  0  0  0  0  0  0  0  0
   22.3993   17.7439   22.8599 H   0  0  0  0  0  0  0  0  0  0  0  0
   21.4185   18.9545   24.3663 C   0  0  0  0  0  0  0  0  0  0  0  0
   20.4289   19.0786   24.8254 H   0  0  0  0  0  0  0  0  0  0  0  0
   22.1228   18.6684   25.1583 H   0  0  0  0  0  0  0  0  0  0  0  0
   21.7403   19.9244   23.9648 H   0  0  0  0  0  0  0  0  0  0  0  0
  1  2  1  0  0  0  0
  1  3  2  0  0  0  0
  1  4  1  0  0  0  0
  4  5  1  0  0  0  0
  4  6  1  0  0  0  0
  4  7  1  0  0  0  0
  7  8  1  0  0  0  0
  7  9  2  0  0  0  0
  9 10  1  0  0  0  0
  9 11  1  0  0  0  0
 11 12  1  0  0  0  0
 11 13  1  0  0  0  0
 11 14  1  0  0  0  0
 14 15  1  0  0  0  0
 14 16  1  0  0  0  0
 14 17  1  0  0  0  0
M  END
> <VConfSearch Rank>
333

> <Conf_Id>
19

> <Delta U+W>
-0.496

> <U+W>
-49.923

> <U>
13.863

> <W>
-63.786

> <W(PB)>
-65.856

> <W(SA)>
2.070

> <Valence>
14.117

> <Coulomb>
-1.228

> <VdW>
0.974

> <VdW6>
-4.885

> <VdW12>
5.859

> <Bond>
0.094

> <Angle>
2.818

> <Pdih>
11.205

> <Idih>
0.000

> <Tether>
0.000

$$$$
VeraChem MOL file


 17 16  0  0  0  0  0  0  0  0999 V2000     
   18.6314   16.7925   21.1497 C   0  0  0  0  0  0  0  0  0  0  0  0
   18.2373   16.2498   22.1631 O   0  5  0  0  0  0  0  0  0  0  0  0
   17.9223   17.0180   20.1889 O   0  0  0  0  0  0  0  0  0  0  0  0
   20.0960   17.2036   21.0732 C   0  0  0  0  0  0  0  0  0  0  0  0
   20.4623   16.9516   20.0713 H   0  0  0  0  0  0  0  0  0  0  0  0
   20.6620   16.5912   21.7853 H   0  0  0  0  0  0  0  0  0  0  0  0
   20.2993   18.6818   21.3456 C   0  0  0  0  0  0  0  0  0  0  0  0
   19.8945   19.3540   20.5896 H   0  0  0  0  0  0  0  0  0  0  0  0
   20.9174   19.1685   22.4260 C   0  0  0  0  0  0  0  0  0  0  0  0
   21.3175   18.4960   23.1842 H   0  0  0  0  0  0  0  0  0  0  0  0
   21.1166   20.6430   22.6972 C   0  0  0  0  0  0  0  0  0  0  0  0
   22.1619   20.8308   22.9775 H   0  0  0  0  0  0  0  0  0  0  0  0
   20.9231   21.2304   21.7891 H   0  0  0  0  0  0  0  0  0  0  0  0
   20.1866   21.1285   23.8261 C   0  0  0  0  0  0  0  0  0  0  0  0
   20.3852   20.5840   24.7586 H   0  0  0  0  0  0  0  0  0  0  0  0
   20.3349   22.1991   24.0184 H   0  0  0  0  0  0  0  0  0  0  0  0
   19.1334   20.9731   23.5572 H   0  0  0  0  0  0  0  0  0  0  0  0
  1  2  1  0  0  0  0
  1  3  2  0  0  0  0
  1  4  1  0  0  0  0
  4  5  1  0  0  0  0
  4  6  1  0  0  0  0
  4  7  1  0  0  0  0
  7  8  1  0  0  0  0
  7  9  2  0  0  0  0
  9 10  1  0  0  0  0
  9 11  1  0  0  0  0
 11 12  1  0  0  0  0
 11 13  1  0  0  0  0
 11 14  1  0  0  0  0
 14 15  1  0  0  0  0
 14 16  1  0  0  0  0
 14 17  1  0  0  0  0
M  END
> <VConfSearch Rank>
334

> <Conf_Id>
7

> <Delta U+W>
-0.041

> <U+W>
-49.468

> <U>
14.121

> <W>
-63.589

> <W(PB)>
-65.660

> <W(SA)>
2.071

> <Valence>
15.230

> <Coulomb>
-1.333

> <VdW>
0.224

> <VdW6>
-4.212

> <VdW12>
4.436

> <Bond>
0.044

> <Angle>
2.230

> <Pdih>
12.956

> <Idih>
0.000

> <Tether>
0.000

$$$$
VeraChem MOL file


 17 16  0  0  0  0  0  0  0  0999 V2000     
   21.5781   19.8428   24.5475 C   0  0  0  0  0  0  0  0  0  0  0  0
   21.9600   20.9701   24.3022 O   0  5  0  0  0  0  0  0  0  0  0  0
   22.3234   18.9339   24.8565 O   0  0  0  0  0  0  0  0  0  0  0  0
   20.0799   19.5600   24.4918 C   0  0  0  0  0  0  0  0  0  0  0  0
   19.5537   20.4751   24.7877 H   0  0  0  0  0  0  0  0  0  0  0  0
   19.8496   18.8168   25.2641 H   0  0  0  0  0  0  0  0  0  0  0  0
   19.5514   19.0797   23.1476 C   0  0  0  0  0  0  0  0  0  0  0  0
   18.4801   18.8837   23.1300 H   0  0  0  0  0  0  0  0  0  0  0  0
   20.2767   18.8925   22.0386 C   0  0  0  0  0  0  0  0  0  0  0  0
   21.3494   19.0819   22.0290 H   0  0  0  0  0  0  0  0  0  0  0  0
   19.7016   18.4109   20.7251 C   0  0  0  0  0  0  0  0  0  0  0  0
   20.3209   17.5963   20.3260 H   0  0  0  0  0  0  0  0  0  0  0  0
   18.6947   17.9973   20.8740 H   0  0  0  0  0  0  0  0  0  0  0  0
   19.6350   19.5568   19.6967 C   0  0  0  0  0  0  0  0  0  0  0  0
   19.2183   19.2015   18.7453 H   0  0  0  0  0  0  0  0  0  0  0  0
   18.9992   20.3733   20.0636 H   0  0  0  0  0  0  0  0  0  0  0  0
   20.6352   19.9645   19.4996 H   0  0  0  0  0  0  0  0  0  0  0  0
  1  2  1  0  0  0  0
  1  3  2  0  0  0  0
  1  4  1  0  0  0  0
  4  5  1  0  0  0  0
  4  6  1  0  0  0  0
  4  7  1  0  0  0  0
  7  8  1  0  0  0  0
  7  9  2  0  0  0  0
  9 10  1  0  0  0  0
  9 11  1  0  0  0  0
 11 12  1  0  0  0  0
 11 13  1  0  0  0  0
 11 14  1  0  0  0  0
 14 15  1  0  0  0  0
 14 16  1  0  0  0  0
 14 17  1  0  0  0  0
M  END
> <VConfSearch Rank>
335

> <Conf_Id>
39

> <Delta U+W>
-0.422

> <U+W>
-49.849

> <U>
14.465

> <W>
-64.314

> <W(PB)>
-66.406

> <W(SA)>
2.093

> <Valence>
14.072

> <Coulomb>
-0.199

> <VdW>
0.592

> <VdW6>
-5.019

> <VdW12>
5.611

> <Bond>
0.085

> <Angle>
2.748

> <Pdih>
11.238

> <Idih>
0.001

> <Tether>
0.000

$$$$
VeraChem MOL file


 17 16  0  0  0  0  0  0  0  0999 V2000     
   19.3165   19.1125   19.0455 C   0  0  0  0  0  0  0  0  0  0  0  0
   19.5311   18.0563   18.4840 O   0  5  0  0  0  0  0  0  0  0  0  0
   19.5005   20.1973   18.5296 O   0  0  0  0  0  0  0  0  0  0  0  0
   18.7828   19.0721   20.4714 C   0  0  0  0  0  0  0  0  0  0  0  0
   18.0365   18.2712   20.5271 H   0  0  0  0  0  0  0  0  0  0  0  0
   18.2574   20.0144   20.6679 H   0  0  0  0  0  0  0  0  0  0  0  0
   19.8773   18.8363   21.4948 C   0  0  0  0  0  0  0  0  0  0  0  0
   20.3385   17.8496   21.4634 H   0  0  0  0  0  0  0  0  0  0  0  0
   20.2798   19.7461   22.3872 C   0  0  0  0  0  0  0  0  0  0  0  0
   19.8202   20.7335   22.4161 H   0  0  0  0  0  0  0  0  0  0  0  0
   21.3739   19.5104   23.4044 C   0  0  0  0  0  0  0  0  0  0  0  0
   21.9508   18.6113   23.1472 H   0  0  0  0  0  0  0  0  0  0  0  0
   22.0796   20.3521   23.3915 H   0  0  0  0  0  0  0  0  0  0  0  0
   20.7883   19.3526   24.8212 C   0  0  0  0  0  0  0  0  0  0  0  0
   20.0981   18.4998   24.8650 H   0  0  0  0  0  0  0  0  0  0  0  0
   21.5869   19.1825   25.5549 H   0  0  0  0  0  0  0  0  0  0  0  0
   20.2375   20.2541   25.1200 H   0  0  0  0  0  0  0  0  0  0  0  0
  1  2  1  0  0  0  0
  1  3  2  0  0  0  0
  1  4  1  0  0  0  0
  4  5  1  0  0  0  0
  4  6  1  0  0  0  0
  4  7  1  0  0  0  0
  7  8  1  0  0  0  0
  7  9  2  0  0  0  0
  9 10  1  0  0  0  0
  9 11  1  0  0  0  0
 11 12  1  0  0  0  0
 11 13  1  0  0  0  0
 11 14  1  0  0  0  0
 14 15  1  0  0  0  0
 14 16  1  0  0  0  0
 14 17  1  0  0  0  0
M  END
> <VConfSearch Rank>
336

> <Conf_Id>
38

> <Delta U+W>
0.000

> <U+W>
-49.427

> <U>
13.666

> <W>
-63.093

> <W(PB)>
-65.225

> <W(SA)>
2.132

> <Valence>
15.226

> <Coulomb>
-1.822

> <VdW>
0.261

> <VdW6>
-4.165

> <VdW12>
4.426

> <Bond>
0.044

> <Angle>
2.229

> <Pdih>
12.953

> <Idih>
0.000

> <Tether>
0.000

$$$$
VeraChem MOL file


 17 16  0  0  0  0  0  0  0  0999 V2000     
   22.9257   17.8795   21.9448 C   0  0  0  0  0  0  0  0  0  0  0  0
   23.2892   17.8507   20.7856 O   0  5  0  0  0  0  0  0  0  0  0  0
   23.1372   16.9833   22.7379 O   0  0  0  0  0  0  0  0  0  0  0  0
   22.1683   19.1070   22.4338 C   0  0  0  0  0  0  0  0  0  0  0  0
   22.4255   19.9509   21.7824 H   0  0  0  0  0  0  0  0  0  0  0  0
   22.5382   19.3515   23.4363 H   0  0  0  0  0  0  0  0  0  0  0  0
   20.6680   18.8870   22.4717 C   0  0  0  0  0  0  0  0  0  0  0  0
   20.3215   18.1719   23.2172 H   0  0  0  0  0  0  0  0  0  0  0  0
   19.7980   19.5027   21.6653 C   0  0  0  0  0  0  0  0  0  0  0  0
   20.1454   20.2152   20.9180 H   0  0  0  0  0  0  0  0  0  0  0  0
   18.3027   19.2791   21.7019 C   0  0  0  0  0  0  0  0  0  0  0  0
   17.9291   19.1038   20.6839 H   0  0  0  0  0  0  0  0  0  0  0  0
   18.0627   18.3793   22.2850 H   0  0  0  0  0  0  0  0  0  0  0  0
   17.5760   20.4924   22.3141 C   0  0  0  0  0  0  0  0  0  0  0  0
   17.7677   21.4006   21.7277 H   0  0  0  0  0  0  0  0  0  0  0  0
   16.4914   20.3246   22.3373 H   0  0  0  0  0  0  0  0  0  0  0  0
   17.9151   20.6716   23.3429 H   0  0  0  0  0  0  0  0  0  0  0  0
  1  2  1  0  0  0  0
  1  3  2  0  0  0  0
  1  4  1  0  0  0  0
  4  5  1  0  0  0  0
  4  6  1  0  0  0  0
  4  7  1  0  0  0  0
  7  8  1  0  0  0  0
  7  9  2  0  0  0  0
  9 10  1  0  0  0  0
  9 11  1  0  0  0  0
 11 12  1  0  0  0  0
 11 13  1  0  0  0  0
 11 14  1  0  0  0  0
 14 15  1  0  0  0  0
 14 16  1  0  0  0  0
 14 17  1  0  0  0  0
M  END
> <VConfSearch Rank>
337

> <Conf_Id>
35

> <Delta U+W>
-0.102

> <U+W>
-49.529

> <U>
13.666

> <W>
-63.195

> <W(PB)>
-65.299

> <W(SA)>
2.103

> <Valence>
15.226

> <Coulomb>
-1.822

> <VdW>
0.261

> <VdW6>
-4.165

> <VdW12>
4.426

> <Bond>
0.044

> <Angle>
2.229

> <Pdih>
12.953

> <Idih>
0.000

> <Tether>
0.000

$$$$
VeraChem MOL file


 17 16  0  0  0  0  0  0  0  0999 V2000     
   21.6609   16.6855   23.1050 C   0  0  0  0  0  0  0  0  0  0  0  0
   21.7239   16.6714   24.3186 O   0  5  0  0  0  0  0  0  0  0  0  0
   21.3621   15.7157   22.4363 O   0  0  0  0  0  0  0  0  0  0  0  0
   21.9835   17.9879   22.3843 C   0  0  0  0  0  0  0  0  0  0  0  0
   22.3007   17.7452   21.3630 H   0  0  0  0  0  0  0  0  0  0  0  0
   22.8440   18.4443   22.8871 H   0  0  0  0  0  0  0  0  0  0  0  0
   20.8128   18.9527   22.3771 C   0  0  0  0  0  0  0  0  0  0  0  0
   20.5502   19.3557   23.3537 H   0  0  0  0  0  0  0  0  0  0  0  0
   20.1341   19.2957   21.2751 C   0  0  0  0  0  0  0  0  0  0  0  0
   20.4233   18.8683   20.3155 H   0  0  0  0  0  0  0  0  0  0  0  0
   18.9539   20.2493   21.1960 C   0  0  0  0  0  0  0  0  0  0  0  0
   19.1964   21.0596   20.4953 H   0  0  0  0  0  0  0  0  0  0  0  0
   18.0986   19.7218   20.7526 H   0  0  0  0  0  0  0  0  0  0  0  0
   18.5207   20.8639   22.5453 C   0  0  0  0  0  0  0  0  0  0  0  0
   19.3367   21.4460   22.9933 H   0  0  0  0  0  0  0  0  0  0  0  0
   17.6654   21.5375   22.4045 H   0  0  0  0  0  0  0  0  0  0  0  0
   18.2197   20.0825   23.2555 H   0  0  0  0  0  0  0  0  0  0  0  0
  1  2  1  0  0  0  0
  1  3  2  0  0  0  0
  1  4  1  0  0  0  0
  4  5  1  0  0  0  0
  4  6  1  0  0  0  0
  4  7  1  0  0  0  0
  7  8  1  0  0  0  0
  7  9  2  0  0  0  0
  9 10  1  0  0  0  0
  9 11  1  0  0  0  0
 11 12  1  0  0  0  0
 11 13  1  0  0  0  0
 11 14  1  0  0  0  0
 14 15  1  0  0  0  0
 14 16  1  0  0  0  0
 14 17  1  0  0  0  0
M  END
> <VConfSearch Rank>
338

> <Conf_Id>
19

> <Delta U+W>
-0.496

> <U+W>
-49.923

> <U>
13.863

> <W>
-63.786

> <W(PB)>
-65.856

> <W(SA)>
2.070

> <Valence>
14.117

> <Coulomb>
-1.228

> <VdW>
0.974

> <VdW6>
-4.885

> <VdW12>
5.859

> <Bond>
0.094

> <Angle>
2.818

> <Pdih>
11.205

> <Idih>
0.000

> <Tether>
0.000

$$$$
VeraChem MOL file


 17 16  0  0  0  0  0  0  0  0999 V2000     
   19.3032   20.6242   24.5478 C   0  0  0  0  0  0  0  0  0  0  0  0
   20.3576   20.8469   25.1094 O   0  5  0  0  0  0  0  0  0  0  0  0
   18.4539   21.4713   24.3523 O   0  0  0  0  0  0  0  0  0  0  0  0
   19.0241   19.2047   24.0715 C   0  0  0  0  0  0  0  0  0  0  0  0
   17.9785   18.9730   24.3050 H   0  0  0  0  0  0  0  0  0  0  0  0
   19.6442   18.5173   24.6593 H   0  0  0  0  0  0  0  0  0  0  0  0
   19.2771   19.0301   22.5861 C   0  0  0  0  0  0  0  0  0  0  0  0
   18.5913   19.5669   21.9313 H   0  0  0  0  0  0  0  0  0  0  0  0
   20.2634   18.2874   22.0743 C   0  0  0  0  0  0  0  0  0  0  0  0
   20.9520   17.7550   22.7297 H   0  0  0  0  0  0  0  0  0  0  0  0
   20.5158   18.1170   20.5929 C   0  0  0  0  0  0  0  0  0  0  0  0
   20.6473   17.0518   20.3591 H   0  0  0  0  0  0  0  0  0  0  0  0
   19.6488   18.4625   20.0131 H   0  0  0  0  0  0  0  0  0  0  0  0
   21.7685   18.8985   20.1515 C   0  0  0  0  0  0  0  0  0  0  0  0
   22.6592   18.5463   20.6883 H   0  0  0  0  0  0  0  0  0  0  0  0
   21.9467   18.7717   19.0758 H   0  0  0  0  0  0  0  0  0  0  0  0
   21.6497   19.9713   20.3533 H   0  0  0  0  0  0  0  0  0  0  0  0
  1  2  1  0  0  0  0
  1  3  2  0  0  0  0
  1  4  1  0  0  0  0
  4  5  1  0  0  0  0
  4  6  1  0  0  0  0
  4  7  1  0  0  0  0
  7  8  1  0  0  0  0
  7  9  2  0  0  0  0
  9 10  1  0  0  0  0
  9 11  1  0  0  0  0
 11 12  1  0  0  0  0
 11 13  1  0  0  0  0
 11 14  1  0  0  0  0
 14 15  1  0  0  0  0
 14 16  1  0  0  0  0
 14 17  1  0  0  0  0
M  END
> <VConfSearch Rank>
339

> <Conf_Id>
7

> <Delta U+W>
-0.041

> <U+W>
-49.468

> <U>
14.121

> <W>
-63.589

> <W(PB)>
-65.660

> <W(SA)>
2.071

> <Valence>
15.230

> <Coulomb>
-1.333

> <VdW>
0.224

> <VdW6>
-4.212

> <VdW12>
4.436

> <Bond>
0.044

> <Angle>
2.230

> <Pdih>
12.956

> <Idih>
0.000

> <Tether>
0.000

$$$$
VeraChem MOL file


 17 16  0  0  0  0  0  0  0  0999 V2000     
   19.6857   18.3159   19.7139 C   0  0  0  0  0  0  0  0  0  0  0  0
   20.6227   18.8086   19.1169 O   0  5  0  0  0  0  0  0  0  0  0  0
   18.5273   18.4466   19.3704 O   0  0  0  0  0  0  0  0  0  0  0  0
   19.9815   17.4644   20.9448 C   0  0  0  0  0  0  0  0  0  0  0  0
   20.9497   16.9741   20.7899 H   0  0  0  0  0  0  0  0  0  0  0  0
   19.2386   16.6591   20.9823 H   0  0  0  0  0  0  0  0  0  0  0  0
   19.9937   18.2097   22.2719 C   0  0  0  0  0  0  0  0  0  0  0  0
   20.2066   17.5832   23.1372 H   0  0  0  0  0  0  0  0  0  0  0  0
   19.7736   19.5188   22.4410 C   0  0  0  0  0  0  0  0  0  0  0  0
   19.5595   20.1677   21.5925 H   0  0  0  0  0  0  0  0  0  0  0  0
   19.7957   20.2119   23.7852 C   0  0  0  0  0  0  0  0  0  0  0  0
   18.9052   20.8465   23.8895 H   0  0  0  0  0  0  0  0  0  0  0  0
   19.7547   19.4751   24.5992 H   0  0  0  0  0  0  0  0  0  0  0  0
   21.0628   21.0751   23.9422 C   0  0  0  0  0  0  0  0  0  0  0  0
   21.0729   21.5767   24.9187 H   0  0  0  0  0  0  0  0  0  0  0  0
   21.9672   20.4571   23.8670 H   0  0  0  0  0  0  0  0  0  0  0  0
   21.1101   21.8465   23.1623 H   0  0  0  0  0  0  0  0  0  0  0  0
  1  2  1  0  0  0  0
  1  3  2  0  0  0  0
  1  4  1  0  0  0  0
  4  5  1  0  0  0  0
  4  6  1  0  0  0  0
  4  7  1  0  0  0  0
  7  8  1  0  0  0  0
  7  9  2  0  0  0  0
  9 10  1  0  0  0  0
  9 11  1  0  0  0  0
 11 12  1  0  0  0  0
 11 13  1  0  0  0  0
 11 14  1  0  0  0  0
 14 15  1  0  0  0  0
 14 16  1  0  0  0  0
 14 17  1  0  0  0  0
M  END
> <VConfSearch Rank>
340

> <Conf_Id>
39

> <Delta U+W>
-0.422

> <U+W>
-49.849

> <U>
14.465

> <W>
-64.314

> <W(PB)>
-66.406

> <W(SA)>
2.093

> <Valence>
14.072

> <Coulomb>
-0.199

> <VdW>
0.592

> <VdW6>
-5.019

> <VdW12>
5.611

> <Bond>
0.085

> <Angle>
2.748

> <Pdih>
11.238

> <Idih>
0.001

> <Tether>
0.000

$$$$
VeraChem MOL file


 17 16  0  0  0  0  0  0  0  0999 V2000     
   18.2694   21.2522   23.7539 C   0  0  0  0  0  0  0  0  0  0  0  0
   17.9019   22.2578   23.1790 O   0  5  0  0  0  0  0  0  0  0  0  0
   18.6084   21.2310   24.9207 O   0  0  0  0  0  0  0  0  0  0  0  0
   18.3008   19.9474   22.9689 C   0  0  0  0  0  0  0  0  0  0  0  0
   17.4021   19.9116   22.3424 H   0  0  0  0  0  0  0  0  0  0  0  0
   18.2286   19.1167   23.6812 H   0  0  0  0  0  0  0  0  0  0  0  0
   19.5421   19.8180   22.1067 C   0  0  0  0  0  0  0  0  0  0  0  0
   19.6026   20.5146   21.2711 H   0  0  0  0  0  0  0  0  0  0  0  0
   20.5170   18.9295   22.3222 C   0  0  0  0  0  0  0  0  0  0  0  0
   20.4573   18.2352   23.1597 H   0  0  0  0  0  0  0  0  0  0  0  0
   21.7557   18.8045   21.4636 C   0  0  0  0  0  0  0  0  0  0  0  0
   21.8655   19.6856   20.8165 H   0  0  0  0  0  0  0  0  0  0  0  0
   22.6481   18.7700   22.1032 H   0  0  0  0  0  0  0  0  0  0  0  0
   21.6994   17.5351   20.5915 C   0  0  0  0  0  0  0  0  0  0  0  0
   20.8278   17.5590   19.9241 H   0  0  0  0  0  0  0  0  0  0  0  0
   22.6011   17.4495   19.9713 H   0  0  0  0  0  0  0  0  0  0  0  0
   21.6281   16.6343   21.2151 H   0  0  0  0  0  0  0  0  0  0  0  0
  1  2  1  0  0  0  0
  1  3  2  0  0  0  0
  1  4  1  0  0  0  0
  4  5  1  0  0  0  0
  4  6  1  0  0  0  0
  4  7  1  0  0  0  0
  7  8  1  0  0  0  0
  7  9  2  0  0  0  0
  9 10  1  0  0  0  0
  9 11  1  0  0  0  0
 11 12  1  0  0  0  0
 11 13  1  0  0  0  0
 11 14  1  0  0  0  0
 14 15  1  0  0  0  0
 14 16  1  0  0  0  0
 14 17  1  0  0  0  0
M  END
> <VConfSearch Rank>
341

> <Conf_Id>
38

> <Delta U+W>
0.000

> <U+W>
-49.427

> <U>
13.666

> <W>
-63.093

> <W(PB)>
-65.225

> <W(SA)>
2.132

> <Valence>
15.226

> <Coulomb>
-1.822

> <VdW>
0.261

> <VdW6>
-4.165

> <VdW12>
4.426

> <Bond>
0.044

> <Angle>
2.229

> <Pdih>
12.953

> <Idih>
0.000

> <Tether>
0.000

$$$$
VeraChem MOL file


 17 16  0  0  0  0  0  0  0  0999 V2000     
   18.9173   21.0137   19.7381 C   0  0  0  0  0  0  0  0  0  0  0  0
   19.8205   21.3151   18.9830 O   0  5  0  0  0  0  0  0  0  0  0  0
   17.9968   21.7571   20.0153 O   0  0  0  0  0  0  0  0  0  0  0  0
   18.9352   19.6273   20.3683 C   0  0  0  0  0  0  0  0  0  0  0  0
   19.5332   18.9672   19.7284 H   0  0  0  0  0  0  0  0  0  0  0  0
   17.9094   19.2411   20.3573 H   0  0  0  0  0  0  0  0  0  0  0  0
   19.4714   19.6410   21.7871 C   0  0  0  0  0  0  0  0  0  0  0  0
   18.8403   20.1459   22.5179 H   0  0  0  0  0  0  0  0  0  0  0  0
   20.6305   19.0882   22.1573 C   0  0  0  0  0  0  0  0  0  0  0  0
   21.2626   18.5863   21.4255 H   0  0  0  0  0  0  0  0  0  0  0  0
   21.1655   19.1063   23.5719 C   0  0  0  0  0  0  0  0  0  0  0  0
   22.2158   19.4277   23.5669 H   0  0  0  0  0  0  0  0  0  0  0  0
   20.6153   19.8362   24.1816 H   0  0  0  0  0  0  0  0  0  0  0  0
   21.0575   17.7136   24.2227 C   0  0  0  0  0  0  0  0  0  0  0  0
   21.6310   16.9699   23.6539 H   0  0  0  0  0  0  0  0  0  0  0  0
   21.4478   17.7328   25.2485 H   0  0  0  0  0  0  0  0  0  0  0  0
   20.0116   17.3817   24.2622 H   0  0  0  0  0  0  0  0  0  0  0  0
  1  2  1  0  0  0  0
  1  3  2  0  0  0  0
  1  4  1  0  0  0  0
  4  5  1  0  0  0  0
  4  6  1  0  0  0  0
  4  7  1  0  0  0  0
  7  8  1  0  0  0  0
  7  9  2  0  0  0  0
  9 10  1  0  0  0  0
  9 11  1  0  0  0  0
 11 12  1  0  0  0  0
 11 13  1  0  0  0  0
 11 14  1  0  0  0  0
 14 15  1  0  0  0  0
 14 16  1  0  0  0  0
 14 17  1  0  0  0  0
M  END
> <VConfSearch Rank>
342

> <Conf_Id>
35

> <Delta U+W>
-0.102

> <U+W>
-49.529

> <U>
13.666

> <W>
-63.195

> <W(PB)>
-65.299

> <W(SA)>
2.103

> <Valence>
15.226

> <Coulomb>
-1.822

> <VdW>
0.261

> <VdW6>
-4.165

> <VdW12>
4.426

> <Bond>
0.044

> <Angle>
2.229

> <Pdih>
12.953

> <Idih>
0.000

> <Tether>
0.000

$$$$
VeraChem MOL file


 17 16  0  0  0  0  0  0  0  0999 V2000     
   17.2788   18.9046   22.2411 C   0  0  0  0  0  0  0  0  0  0  0  0
   16.9407   17.7401   22.1601 O   0  5  0  0  0  0  0  0  0  0  0  0
   16.7926   19.6923   23.0284 O   0  0  0  0  0  0  0  0  0  0  0  0
   18.3646   19.4043   21.2971 C   0  0  0  0  0  0  0  0  0  0  0  0
   18.2504   20.4894   21.1869 H   0  0  0  0  0  0  0  0  0  0  0  0
   18.1811   18.9611   20.3115 H   0  0  0  0  0  0  0  0  0  0  0  0
   19.7592   19.0486   21.7764 C   0  0  0  0  0  0  0  0  0  0  0  0
   19.9888   17.9846   21.7565 H   0  0  0  0  0  0  0  0  0  0  0  0
   20.6554   19.9482   22.2009 C   0  0  0  0  0  0  0  0  0  0  0  0
   20.3881   21.0044   22.2107 H   0  0  0  0  0  0  0  0  0  0  0  0
   22.0632   19.6628   22.6962 C   0  0  0  0  0  0  0  0  0  0  0  0
   22.7787   20.2248   22.0809 H   0  0  0  0  0  0  0  0  0  0  0  0
   22.1709   20.0628   23.7135 H   0  0  0  0  0  0  0  0  0  0  0  0
   22.4640   18.1710   22.6978 C   0  0  0  0  0  0  0  0  0  0  0  0
   22.4203   17.7502   21.6846 H   0  0  0  0  0  0  0  0  0  0  0  0
   23.4900   18.0486   23.0685 H   0  0  0  0  0  0  0  0  0  0  0  0
   21.8000   17.5854   23.3471 H   0  0  0  0  0  0  0  0  0  0  0  0
  1  2  1  0  0  0  0
  1  3  2  0  0  0  0
  1  4  1  0  0  0  0
  4  5  1  0  0  0  0
  4  6  1  0  0  0  0
  4  7  1  0  0  0  0
  7  8  1  0  0  0  0
  7  9  2  0  0  0  0
  9 10  1  0  0  0  0
  9 11  1  0  0  0  0
 11 12  1  0  0  0  0
 11 13  1  0  0  0  0
 11 14  1  0  0  0  0
 14 15  1  0  0  0  0
 14 16  1  0  0  0  0
 14 17  1  0  0  0  0
M  END
> <VConfSearch Rank>
343

> <Conf_Id>
19

> <Delta U+W>
-0.496

> <U+W>
-49.923

> <U>
13.863

> <W>
-63.786

> <W(PB)>
-65.856

> <W(SA)>
2.070

> <Valence>
14.117

> <Coulomb>
-1.228

> <VdW>
0.974

> <VdW6>
-4.885

> <VdW12>
5.859

> <Bond>
0.094

> <Angle>
2.818

> <Pdih>
11.205

> <Idih>
0.000

> <Tether>
0.000

$$$$
VeraChem MOL file


 17 16  0  0  0  0  0  0  0  0999 V2000     
   18.4836   17.2928   20.5754 C   0  0  0  0  0  0  0  0  0  0  0  0
   17.3651   17.7078   20.8069 O   0  5  0  0  0  0  0  0  0  0  0  0
   18.8898   17.0438   19.4574 O   0  0  0  0  0  0  0  0  0  0  0  0
   19.4256   17.0611   21.7495 C   0  0  0  0  0  0  0  0  0  0  0  0
   19.9533   16.1166   21.5738 H   0  0  0  0  0  0  0  0  0  0  0  0
   18.8202   16.9270   22.6540 H   0  0  0  0  0  0  0  0  0  0  0  0
   20.4231   18.1902   21.9255 C   0  0  0  0  0  0  0  0  0  0  0  0
   21.1624   18.2856   21.1308 H   0  0  0  0  0  0  0  0  0  0  0  0
   20.4261   19.0354   22.9608 C   0  0  0  0  0  0  0  0  0  0  0  0
   19.6834   18.9427   23.7525 H   0  0  0  0  0  0  0  0  0  0  0  0
   21.4199   20.1624   23.1329 C   0  0  0  0  0  0  0  0  0  0  0  0
   21.8294   20.1436   24.1519 H   0  0  0  0  0  0  0  0  0  0  0  0
   22.2700   20.0331   22.4489 H   0  0  0  0  0  0  0  0  0  0  0  0
   20.7576   21.5289   22.8703 C   0  0  0  0  0  0  0  0  0  0  0  0
   19.9270   21.7020   23.5671 H   0  0  0  0  0  0  0  0  0  0  0  0
   21.4832   22.3431   22.9960 H   0  0  0  0  0  0  0  0  0  0  0  0
   20.3619   21.5800   21.8473 H   0  0  0  0  0  0  0  0  0  0  0  0
  1  2  1  0  0  0  0
  1  3  2  0  0  0  0
  1  4  1  0  0  0  0
  4  5  1  0  0  0  0
  4  6  1  0  0  0  0
  4  7  1  0  0  0  0
  7  8  1  0  0  0  0
  7  9  2  0  0  0  0
  9 10  1  0  0  0  0
  9 11  1  0  0  0  0
 11 12  1  0  0  0  0
 11 13  1  0  0  0  0
 11 14  1  0  0  0  0
 14 15  1  0  0  0  0
 14 16  1  0  0  0  0
 14 17  1  0  0  0  0
M  END
> <VConfSearch Rank>
344

> <Conf_Id>
7

> <Delta U+W>
-0.041

> <U+W>
-49.468

> <U>
14.121

> <W>
-63.589

> <W(PB)>
-65.660

> <W(SA)>
2.071

> <Valence>
15.230

> <Coulomb>
-1.333

> <VdW>
0.224

> <VdW6>
-4.212

> <VdW12>
4.436

> <Bond>
0.044

> <Angle>
2.230

> <Pdih>
12.956

> <Idih>
0.000

> <Tether>
0.000

$$$$
VeraChem MOL file


 17 16  0  0  0  0  0  0  0  0999 V2000     
   22.8161   19.8201   22.5999 C   0  0  0  0  0  0  0  0  0  0  0  0
   23.0399   19.2455   23.6471 O   0  5  0  0  0  0  0  0  0  0  0  0
   23.0721   20.9929   22.4097 O   0  0  0  0  0  0  0  0  0  0  0  0
   22.2067   19.0196   21.4530 C   0  0  0  0  0  0  0  0  0  0  0  0
   22.5686   17.9879   21.5334 H   0  0  0  0  0  0  0  0  0  0  0  0
   22.6174   19.4108   20.5150 H   0  0  0  0  0  0  0  0  0  0  0  0
   20.6861   19.0227   21.3848 C   0  0  0  0  0  0  0  0  0  0  0  0
   20.2720   18.4455   20.5589 H   0  0  0  0  0  0  0  0  0  0  0  0
   19.8620   19.6535   22.2298 C   0  0  0  0  0  0  0  0  0  0  0  0
   20.2499   20.2365   23.0642 H   0  0  0  0  0  0  0  0  0  0  0  0
   18.3539   19.6259   22.1166 C   0  0  0  0  0  0  0  0  0  0  0  0
   17.9572   20.6465   22.2038 H   0  0  0  0  0  0  0  0  0  0  0  0
   18.0485   19.2525   21.1295 H   0  0  0  0  0  0  0  0  0  0  0  0
   17.7326   18.7379   23.2123 C   0  0  0  0  0  0  0  0  0  0  0  0
   16.6383   18.7228   23.1262 H   0  0  0  0  0  0  0  0  0  0  0  0
   18.0955   17.7050   23.1291 H   0  0  0  0  0  0  0  0  0  0  0  0
   17.9907   19.1114   24.2119 H   0  0  0  0  0  0  0  0  0  0  0  0
  1  2  1  0  0  0  0
  1  3  2  0  0  0  0
  1  4  1  0  0  0  0
  4  5  1  0  0  0  0
  4  6  1  0  0  0  0
  4  7  1  0  0  0  0
  7  8  1  0  0  0  0
  7  9  2  0  0  0  0
  9 10  1  0  0  0  0
  9 11  1  0  0  0  0
 11 12  1  0  0  0  0
 11 13  1  0  0  0  0
 11 14  1  0  0  0  0
 14 15  1  0  0  0  0
 14 16  1  0  0  0  0
 14 17  1  0  0  0  0
M  END
> <VConfSearch Rank>
345

> <Conf_Id>
39

> <Delta U+W>
-0.422

> <U+W>
-49.849

> <U>
14.465

> <W>
-64.314

> <W(PB)>
-66.406

> <W(SA)>
2.093

> <Valence>
14.072

> <Coulomb>
-0.199

> <VdW>
0.592

> <VdW6>
-5.019

> <VdW12>
5.611

> <Bond>
0.085

> <Angle>
2.748

> <Pdih>
11.238

> <Idih>
0.001

> <Tether>
0.000

$$$$
VeraChem MOL file


 17 16  0  0  0  0  0  0  0  0999 V2000     
   18.5223   17.9988   24.5289 C   0  0  0  0  0  0  0  0  0  0  0  0
   17.7935   18.7447   25.1531 O   0  5  0  0  0  0  0  0  0  0  0  0
   19.2104   17.1421   25.0479 O   0  0  0  0  0  0  0  0  0  0  0  0
   18.5702   18.1439   23.0136 C   0  0  0  0  0  0  0  0  0  0  0  0
   17.5467   18.3163   22.6611 H   0  0  0  0  0  0  0  0  0  0  0  0
   18.8995   17.1884   22.5877 H   0  0  0  0  0  0  0  0  0  0  0  0
   19.4728   19.2781   22.5669 C   0  0  0  0  0  0  0  0  0  0  0  0
   19.1211   20.2785   22.8172 H   0  0  0  0  0  0  0  0  0  0  0  0
   20.6261   19.1074   21.9133 C   0  0  0  0  0  0  0  0  0  0  0  0
   20.9786   18.1066   21.6659 H   0  0  0  0  0  0  0  0  0  0  0  0
   21.5267   20.2394   21.4720 C   0  0  0  0  0  0  0  0  0  0  0  0
   21.2425   21.1746   21.9738 H   0  0  0  0  0  0  0  0  0  0  0  0
   22.5628   20.0254   21.7674 H   0  0  0  0  0  0  0  0  0  0  0  0
   21.4584   20.4385   19.9453 C   0  0  0  0  0  0  0  0  0  0  0  0
   20.4349   20.6793   19.6290 H   0  0  0  0  0  0  0  0  0  0  0  0
   22.1144   21.2607   19.6310 H   0  0  0  0  0  0  0  0  0  0  0  0
   21.7747   19.5294   19.4172 H   0  0  0  0  0  0  0  0  0  0  0  0
  1  2  1  0  0  0  0
  1  3  2  0  0  0  0
  1  4  1  0  0  0  0
  4  5  1  0  0  0  0
  4  6  1  0  0  0  0
  4  7  1  0  0  0  0
  7  8  1  0  0  0  0
  7  9  2  0  0  0  0
  9 10  1  0  0  0  0
  9 11  1  0  0  0  0
 11 12  1  0  0  0  0
 11 13  1  0  0  0  0
 11 14  1  0  0  0  0
 14 15  1  0  0  0  0
 14 16  1  0  0  0  0
 14 17  1  0  0  0  0
M  END
> <VConfSearch Rank>
346

> <Conf_Id>
38

> <Delta U+W>
0.000

> <U+W>
-49.427

> <U>
13.666

> <W>
-63.093

> <W(PB)>
-65.225

> <W(SA)>
2.132

> <Valence>
15.226

> <Coulomb>
-1.822

> <VdW>
0.261

> <VdW6>
-4.165

> <VdW12>
4.426

> <Bond>
0.044

> <Angle>
2.229

> <Pdih>
12.953

> <Idih>
0.000

> <Tether>
0.000

$$$$
VeraChem MOL file


 17 16  0  0  0  0  0  0  0  0999 V2000     
   18.6004   21.9608   21.3590 C   0  0  0  0  0  0  0  0  0  0  0  0
   18.1879   22.4823   22.3762 O   0  5  0  0  0  0  0  0  0  0  0  0
   17.9958   21.9731   20.3047 O   0  0  0  0  0  0  0  0  0  0  0  0
   19.9506   21.2578   21.4041 C   0  0  0  0  0  0  0  0  0  0  0  0
   20.5310   21.6822   22.2322 H   0  0  0  0  0  0  0  0  0  0  0  0
   20.4862   21.5014   20.4793 H   0  0  0  0  0  0  0  0  0  0  0  0
   19.8178   19.7537   21.5482 C   0  0  0  0  0  0  0  0  0  0  0  0
   19.3932   19.2396   20.6864 H   0  0  0  0  0  0  0  0  0  0  0  0
   20.1804   19.0685   22.6369 C   0  0  0  0  0  0  0  0  0  0  0  0
   20.6019   19.5835   23.4995 H   0  0  0  0  0  0  0  0  0  0  0  0
   20.0435   17.5692   22.7803 C   0  0  0  0  0  0  0  0  0  0  0  0
   19.5687   17.3305   23.7416 H   0  0  0  0  0  0  0  0  0  0  0  0
   19.3878   17.1663   21.9962 H   0  0  0  0  0  0  0  0  0  0  0  0
   21.4184   16.8774   22.7006 C   0  0  0  0  0  0  0  0  0  0  0  0
   22.0831   17.2340   23.4984 H   0  0  0  0  0  0  0  0  0  0  0  0
   21.3128   15.7898   22.8060 H   0  0  0  0  0  0  0  0  0  0  0  0
   21.9019   17.0809   21.7361 H   0  0  0  0  0  0  0  0  0  0  0  0
  1  2  1  0  0  0  0
  1  3  2  0  0  0  0
  1  4  1  0  0  0  0
  4  5  1  0  0  0  0
  4  6  1  0  0  0  0
  4  7  1  0  0  0  0
  7  8  1  0  0  0  0
  7  9  2  0  0  0  0
  9 10  1  0  0  0  0
  9 11  1  0  0  0  0
 11 12  1  0  0  0  0
 11 13  1  0  0  0  0
 11 14  1  0  0  0  0
 14 15  1  0  0  0  0
 14 16  1  0  0  0  0
 14 17  1  0  0  0  0
M  END
> <VConfSearch Rank>
347

> <Conf_Id>
35

> <Delta U+W>
-0.102

> <U+W>
-49.529

> <U>
13.666

> <W>
-63.195

> <W(PB)>
-65.299

> <W(SA)>
2.103

> <Valence>
15.226

> <Coulomb>
-1.822

> <VdW>
0.261

> <VdW6>
-4.165

> <VdW12>
4.426

> <Bond>
0.044

> <Angle>
2.229

> <Pdih>
12.953

> <Idih>
0.000

> <Tether>
0.000

$$$$
VeraChem MOL file


 17 16  0  0  0  0  0  0  0  0999 V2000     
   21.9839   20.3081   20.1681 C   0  0  0  0  0  0  0  0  0  0  0  0
   22.8442   19.5141   19.8421 O   0  5  0  0  0  0  0  0  0  0  0  0
   21.3508   20.9764   19.3747 O   0  0  0  0  0  0  0  0  0  0  0  0
   21.6912   20.4803   21.6528 C   0  0  0  0  0  0  0  0  0  0  0  0
   21.2512   21.4736   21.8026 H   0  0  0  0  0  0  0  0  0  0  0  0
   22.6488   20.4704   22.1861 H   0  0  0  0  0  0  0  0  0  0  0  0
   20.7821   19.3936   22.1951 C   0  0  0  0  0  0  0  0  0  0  0  0
   21.2266   18.4002   22.2204 H   0  0  0  0  0  0  0  0  0  0  0  0
   19.5276   19.6078   22.6112 C   0  0  0  0  0  0  0  0  0  0  0  0
   19.1152   20.6152   22.5668 H   0  0  0  0  0  0  0  0  0  0  0  0
   18.5638   18.5694   23.1601 C   0  0  0  0  0  0  0  0  0  0  0  0
   18.2435   18.8759   24.1651 H   0  0  0  0  0  0  0  0  0  0  0  0
   17.6524   18.5698   22.5470 H   0  0  0  0  0  0  0  0  0  0  0  0
   19.1235   17.1312   23.2274 C   0  0  0  0  0  0  0  0  0  0  0  0
   20.0067   17.0822   23.8777 H   0  0  0  0  0  0  0  0  0  0  0  0
   18.3697   16.4434   23.6319 H   0  0  0  0  0  0  0  0  0  0  0  0
   19.4056   16.7713   22.2292 H   0  0  0  0  0  0  0  0  0  0  0  0
  1  2  1  0  0  0  0
  1  3  2  0  0  0  0
  1  4  1  0  0  0  0
  4  5  1  0  0  0  0
  4  6  1  0  0  0  0
  4  7  1  0  0  0  0
  7  8  1  0  0  0  0
  7  9  2  0  0  0  0
  9 10  1  0  0  0  0
  9 11  1  0  0  0  0
 11 12  1  0  0  0  0
 11 13  1  0  0  0  0
 11 14  1  0  0  0  0
 14 15  1  0  0  0  0
 14 16  1  0  0  0  0
 14 17  1  0  0  0  0
M  END
> <VConfSearch Rank>
348

> <Conf_Id>
19

> <Delta U+W>
-0.496

> <U+W>
-49.923

> <U>
13.863

> <W>
-63.786

> <W(PB)>
-65.856

> <W(SA)>
2.070

> <Valence>
14.117

> <Coulomb>
-1.228

> <VdW>
0.974

> <VdW6>
-4.885

> <VdW12>
5.859

> <Bond>
0.094

> <Angle>
2.818

> <Pdih>
11.205

> <Idih>
0.000

> <Tether>
0.000

$$$$
VeraChem MOL file


 17 16  0  0  0  0  0  0  0  0999 V2000     
   19.5017   20.4238   24.7301 C   0  0  0  0  0  0  0  0  0  0  0  0
   19.7098   21.5893   24.4562 O   0  5  0  0  0  0  0  0  0  0  0  0
   18.5067   20.0373   25.3111 O   0  0  0  0  0  0  0  0  0  0  0  0
   20.5485   19.3907   24.3341 C   0  0  0  0  0  0  0  0  0  0  0  0
   20.6592   18.6895   25.1693 H   0  0  0  0  0  0  0  0  0  0  0  0
   21.5103   19.9042   24.2165 H   0  0  0  0  0  0  0  0  0  0  0  0
   20.1748   18.6402   23.0700 C   0  0  0  0  0  0  0  0  0  0  0  0
   19.3111   17.9818   23.1582 H   0  0  0  0  0  0  0  0  0  0  0  0
   20.8254   18.7548   21.9082 C   0  0  0  0  0  0  0  0  0  0  0  0
   21.6858   19.4173   21.8192 H   0  0  0  0  0  0  0  0  0  0  0  0
   20.4494   18.0078   20.6481 C   0  0  0  0  0  0  0  0  0  0  0  0
   21.3446   17.5475   20.2085 H   0  0  0  0  0  0  0  0  0  0  0  0
   19.7548   17.1886   20.8797 H   0  0  0  0  0  0  0  0  0  0  0  0
   19.7987   18.9520   19.6185 C   0  0  0  0  0  0  0  0  0  0  0  0
   20.4868   19.7606   19.3389 H   0  0  0  0  0  0  0  0  0  0  0  0
   19.5274   18.4048   18.7063 H   0  0  0  0  0  0  0  0  0  0  0  0
   18.8865   19.4058   20.0279 H   0  0  0  0  0  0  0  0  0  0  0  0
  1  2  1  0  0  0  0
  1  3  2  0  0  0  0
  1  4  1  0  0  0  0
  4  5  1  0  0  0  0
  4  6  1  0  0  0  0
  4  7  1  0  0  0  0
  7  8  1  0  0  0  0
  7  9  2  0  0  0  0
  9 10  1  0  0  0  0
  9 11  1  0  0  0  0
 11 12  1  0  0  0  0
 11 13  1  0  0  0  0
 11 14  1  0  0  0  0
 14 15  1  0  0  0  0
 14 16  1  0  0  0  0
 14 17  1  0  0  0  0
M  END
> <VConfSearch Rank>
349

> <Conf_Id>
7

> <Delta U+W>
-0.041

> <U+W>
-49.468

> <U>
14.121

> <W>
-63.589

> <W(PB)>
-65.660

> <W(SA)>
2.071

> <Valence>
15.230

> <Coulomb>
-1.333

> <VdW>
0.224

> <VdW6>
-4.212

> <VdW12>
4.436

> <Bond>
0.044

> <Angle>
2.230

> <Pdih>
12.956

> <Idih>
0.000

> <Tether>
0.000

$$$$
VeraChem MOL file


 17 16  0  0  0  0  0  0  0  0999 V2000     
   19.7810   20.6809   19.9163 C   0  0  0  0  0  0  0  0  0  0  0  0
   18.5778   20.5912   19.7704 O   0  5  0  0  0  0  0  0  0  0  0  0
   20.5863   20.3588   19.0649 O   0  0  0  0  0  0  0  0  0  0  0  0
   20.3084   21.2548   21.2278 C   0  0  0  0  0  0  0  0  0  0  0  0
   19.5796   21.9888   21.5909 H   0  0  0  0  0  0  0  0  0  0  0  0
   21.2202   21.8207   21.0040 H   0  0  0  0  0  0  0  0  0  0  0  0
   20.5954   20.2366   22.3222 C   0  0  0  0  0  0  0  0  0  0  0  0
   20.9710   20.6673   23.2495 H   0  0  0  0  0  0  0  0  0  0  0  0
   20.4245   18.9125   22.2293 C   0  0  0  0  0  0  0  0  0  0  0  0
   20.0496   18.4563   21.3138 H   0  0  0  0  0  0  0  0  0  0  0  0
   20.7271   17.9416   23.3489 C   0  0  0  0  0  0  0  0  0  0  0  0
   21.3219   17.1033   22.9617 H   0  0  0  0  0  0  0  0  0  0  0  0
   21.3344   18.4264   24.1256 H   0  0  0  0  0  0  0  0  0  0  0  0
   19.4287   17.4019   23.9798 C   0  0  0  0  0  0  0  0  0  0  0  0
   19.6542   16.6970   24.7905 H   0  0  0  0  0  0  0  0  0  0  0  0
   18.8286   18.2211   24.3973 H   0  0  0  0  0  0  0  0  0  0  0  0
   18.8187   16.8779   23.2323 H   0  0  0  0  0  0  0  0  0  0  0  0
  1  2  1  0  0  0  0
  1  3  2  0  0  0  0
  1  4  1  0  0  0  0
  4  5  1  0  0  0  0
  4  6  1  0  0  0  0
  4  7  1  0  0  0  0
  7  8  1  0  0  0  0
  7  9  2  0  0  0  0
  9 10  1  0  0  0  0
  9 11  1  0  0  0  0
 11 12  1  0  0  0  0
 11 13  1  0  0  0  0
 11 14  1  0  0  0  0
 14 15  1  0  0  0  0
 14 16  1  0  0  0  0
 14 17  1  0  0  0  0
M  END
> <VConfSearch Rank>
350

> <Conf_Id>
39

> <Delta U+W>
-0.422

> <U+W>
-49.849

> <U>
14.465

> <W>
-64.314

> <W(PB)>
-66.406

> <W(SA)>
2.093

> <Valence>
14.072

> <Coulomb>
-0.199

> <VdW>
0.592

> <VdW6>
-5.019

> <VdW12>
5.611

> <Bond>
0.085

> <Angle>
2.748

> <Pdih>
11.238

> <Idih>
0.001

> <Tether>
0.000

$$$$
VeraChem MOL file


 17 16  0  0  0  0  0  0  0  0999 V2000     
   21.5598   22.0456   21.6268 C   0  0  0  0  0  0  0  0  0  0  0  0
   22.6283   22.2025   22.1842 O   0  5  0  0  0  0  0  0  0  0  0  0
   20.7220   22.9196   21.5216 O   0  0  0  0  0  0  0  0  0  0  0  0
   21.2585   20.6801   21.0234 C   0  0  0  0  0  0  0  0  0  0  0  0
   22.1746   20.3163   20.5438 H   0  0  0  0  0  0  0  0  0  0  0  0
   20.5123   20.8123   20.2307 H   0  0  0  0  0  0  0  0  0  0  0  0
   20.7804   19.6801   22.0589 C   0  0  0  0  0  0  0  0  0  0  0  0
   21.5276   19.3756   22.7911 H   0  0  0  0  0  0  0  0  0  0  0  0
   19.5401   19.1845   22.1079 C   0  0  0  0  0  0  0  0  0  0  0  0
   18.7926   19.4917   21.3772 H   0  0  0  0  0  0  0  0  0  0  0  0
   19.0641   18.1903   23.1434 C   0  0  0  0  0  0  0  0  0  0  0  0
   19.7777   18.1320   23.9768 H   0  0  0  0  0  0  0  0  0  0  0  0
   18.1091   18.5271   23.5691 H   0  0  0  0  0  0  0  0  0  0  0  0
   18.8859   16.7897   22.5257 C   0  0  0  0  0  0  0  0  0  0  0  0
   19.8353   16.4207   22.1157 H   0  0  0  0  0  0  0  0  0  0  0  0
   18.5397   16.0729   23.2817 H   0  0  0  0  0  0  0  0  0  0  0  0
   18.1477   16.8110   21.7132 H   0  0  0  0  0  0  0  0  0  0  0  0
  1  2  1  0  0  0  0
  1  3  2  0  0  0  0
  1  4  1  0  0  0  0
  4  5  1  0  0  0  0
  4  6  1  0  0  0  0
  4  7  1  0  0  0  0
  7  8  1  0  0  0  0
  7  9  2  0  0  0  0
  9 10  1  0  0  0  0
  9 11  1  0  0  0  0
 11 12  1  0  0  0  0
 11 13  1  0  0  0  0
 11 14  1  0  0  0  0
 14 15  1  0  0  0  0
 14 16  1  0  0  0  0
 14 17  1  0  0  0  0
M  END
> <VConfSearch Rank>
351

> <Conf_Id>
38

> <Delta U+W>
0.000

> <U+W>
-49.427

> <U>
13.666

> <W>
-63.093

> <W(PB)>
-65.225

> <W(SA)>
2.132

> <Valence>
15.226

> <Coulomb>
-1.822

> <VdW>
0.261

> <VdW6>
-4.165

> <VdW12>
4.426

> <Bond>
0.044

> <Angle>
2.229

> <Pdih>
12.953

> <Idih>
0.000

> <Tether>
0.000

$$$$
VeraChem MOL file


 17 16  0  0  0  0  0  0  0  0999 V2000     
   19.7276   16.5163   20.5825 C   0  0  0  0  0  0  0  0  0  0  0  0
   19.4231   16.7381   19.4271 O   0  5  0  0  0  0  0  0  0  0  0  0
   19.2775   15.5920   21.2306 O   0  0  0  0  0  0  0  0  0  0  0  0
   20.7320   17.4428   21.2552 C   0  0  0  0  0  0  0  0  0  0  0  0
   21.3365   17.9188   20.4738 H   0  0  0  0  0  0  0  0  0  0  0  0
   21.4108   16.8235   21.8529 H   0  0  0  0  0  0  0  0  0  0  0  0
   20.0645   18.4824   22.1352 C   0  0  0  0  0  0  0  0  0  0  0  0
   19.5769   18.0921   23.0280 H   0  0  0  0  0  0  0  0  0  0  0  0
   20.0492   19.7923   21.8707 C   0  0  0  0  0  0  0  0  0  0  0  0
   20.5343   20.1816   20.9762 H   0  0  0  0  0  0  0  0  0  0  0  0
   19.3797   20.8271   22.7473 C   0  0  0  0  0  0  0  0  0  0  0  0
   18.7555   21.4876   22.1304 H   0  0  0  0  0  0  0  0  0  0  0  0
   18.7082   20.3426   23.4695 H   0  0  0  0  0  0  0  0  0  0  0  0
   20.4237   21.6686   23.5068 C   0  0  0  0  0  0  0  0  0  0  0  0
   21.0860   22.1956   22.8074 H   0  0  0  0  0  0  0  0  0  0  0  0
   19.9320   22.4181   24.1406 H   0  0  0  0  0  0  0  0  0  0  0  0
   21.0440   21.0317   24.1511 H   0  0  0  0  0  0  0  0  0  0  0  0
  1  2  1  0  0  0  0
  1  3  2  0  0  0  0
  1  4  1  0  0  0  0
  4  5  1  0  0  0  0
  4  6  1  0  0  0  0
  4  7  1  0  0  0  0
  7  8  1  0  0  0  0
  7  9  2  0  0  0  0
  9 10  1  0  0  0  0
  9 11  1  0  0  0  0
 11 12  1  0  0  0  0
 11 13  1  0  0  0  0
 11 14  1  0  0  0  0
 14 15  1  0  0  0  0
 14 16  1  0  0  0  0
 14 17  1  0  0  0  0
M  END
> <VConfSearch Rank>
352

> <Conf_Id>
35

> <Delta U+W>
-0.102

> <U+W>
-49.529

> <U>
13.666

> <W>
-63.195

> <W(PB)>
-65.299

> <W(SA)>
2.103

> <Valence>
15.226

> <Coulomb>
-1.822

> <VdW>
0.261

> <VdW6>
-4.165

> <VdW12>
4.426

> <Bond>
0.044

> <Angle>
2.229

> <Pdih>
12.953

> <Idih>
0.000

> <Tether>
0.000

$$$$
VeraChem MOL file


 17 16  0  0  0  0  0  0  0  0999 V2000     
   22.6187   18.4011   23.7777 C   0  0  0  0  0  0  0  0  0  0  0  0
   23.6198   18.6115   23.1215 O   0  5  0  0  0  0  0  0  0  0  0  0
   22.4963   18.7304   24.9410 O   0  0  0  0  0  0  0  0  0  0  0  0
   21.4593   17.6766   23.1063 C   0  0  0  0  0  0  0  0  0  0  0  0
   20.8571   17.1962   23.8868 H   0  0  0  0  0  0  0  0  0  0  0  0
   21.8789   16.8756   22.4868 H   0  0  0  0  0  0  0  0  0  0  0  0
   20.6109   18.6026   22.2554 C   0  0  0  0  0  0  0  0  0  0  0  0
   21.1101   18.9894   21.3686 H   0  0  0  0  0  0  0  0  0  0  0  0
   19.3489   18.9399   22.5489 C   0  0  0  0  0  0  0  0  0  0  0  0
   18.8837   18.5364   23.4477 H   0  0  0  0  0  0  0  0  0  0  0  0
   18.4457   19.8614   21.7465 C   0  0  0  0  0  0  0  0  0  0  0  0
   17.5337   19.3151   21.4702 H   0  0  0  0  0  0  0  0  0  0  0  0
   18.1122   20.6847   22.3926 H   0  0  0  0  0  0  0  0  0  0  0  0
   19.0848   20.4516   20.4701 C   0  0  0  0  0  0  0  0  0  0  0  0
   19.3822   19.6561   19.7743 H   0  0  0  0  0  0  0  0  0  0  0  0
   18.3722   21.1044   19.9494 H   0  0  0  0  0  0  0  0  0  0  0  0
   19.9722   21.0501   20.7145 H   0  0  0  0  0  0  0  0  0  0  0  0
  1  2  1  0  0  0  0
  1  3  2  0  0  0  0
  1  4  1  0  0  0  0
  4  5  1  0  0  0  0
  4  6  1  0  0  0  0
  4  7  1  0  0  0  0
  7  8  1  0  0  0  0
  7  9  2  0  0  0  0
  9 10  1  0  0  0  0
  9 11  1  0  0  0  0
 11 12  1  0  0  0  0
 11 13  1  0  0  0  0
 11 14  1  0  0  0  0
 14 15  1  0  0  0  0
 14 16  1  0  0  0  0
 14 17  1  0  0  0  0
M  END
> <VConfSearch Rank>
353

> <Conf_Id>
19

> <Delta U+W>
-0.496

> <U+W>
-49.923

> <U>
13.863

> <W>
-63.786

> <W(PB)>
-65.856

> <W(SA)>
2.070

> <Valence>
14.117

> <Coulomb>
-1.228

> <VdW>
0.974

> <VdW6>
-4.885

> <VdW12>
5.859

> <Bond>
0.094

> <Angle>
2.818

> <Pdih>
11.205

> <Idih>
0.000

> <Tether>
0.000

$$$$
VeraChem MOL file


 17 16  0  0  0  0  0  0  0  0999 V2000     
   18.7019   21.3213   23.3980 C   0  0  0  0  0  0  0  0  0  0  0  0
   17.5445   21.0326   23.1660 O   0  5  0  0  0  0  0  0  0  0  0  0
   19.0936   21.7095   24.4810 O   0  0  0  0  0  0  0  0  0  0  0  0
   19.7167   21.2012   22.2686 C   0  0  0  0  0  0  0  0  0  0  0  0
   20.3727   22.0782   22.3135 H   0  0  0  0  0  0  0  0  0  0  0  0
   19.1770   21.2526   21.3153 H   0  0  0  0  0  0  0  0  0  0  0  0
   20.5394   19.9301   22.3597 C   0  0  0  0  0  0  0  0  0  0  0  0
   21.2218   19.8776   23.2075 H   0  0  0  0  0  0  0  0  0  0  0  0
   20.4588   18.9191   21.4892 C   0  0  0  0  0  0  0  0  0  0  0  0
   19.7725   18.9699   20.6446 H   0  0  0  0  0  0  0  0  0  0  0  0
   21.2779   17.6512   21.5836 C   0  0  0  0  0  0  0  0  0  0  0  0
   21.7281   17.4269   20.6071 H   0  0  0  0  0  0  0  0  0  0  0  0
   22.1082   17.7817   22.2912 H   0  0  0  0  0  0  0  0  0  0  0  0
   20.4070   16.4620   22.0333 C   0  0  0  0  0  0  0  0  0  0  0  0
   19.5899   16.2838   21.3219 H   0  0  0  0  0  0  0  0  0  0  0  0
   21.0064   15.5448   22.1005 H   0  0  0  0  0  0  0  0  0  0  0  0
   19.9653   16.6537   23.0201 H   0  0  0  0  0  0  0  0  0  0  0  0
  1  2  1  0  0  0  0
  1  3  2  0  0  0  0
  1  4  1  0  0  0  0
  4  5  1  0  0  0  0
  4  6  1  0  0  0  0
  4  7  1  0  0  0  0
  7  8  1  0  0  0  0
  7  9  2  0  0  0  0
  9 10  1  0  0  0  0
  9 11  1  0  0  0  0
 11 12  1  0  0  0  0
 11 13  1  0  0  0  0
 11 14  1  0  0  0  0
 14 15  1  0  0  0  0
 14 16  1  0  0  0  0
 14 17  1  0  0  0  0
M  END
> <VConfSearch Rank>
354

> <Conf_Id>
7

> <Delta U+W>
-0.041

> <U+W>
-49.468

> <U>
14.121

> <W>
-63.589

> <W(PB)>
-65.660

> <W(SA)>
2.071

> <Valence>
15.230

> <Coulomb>
-1.333

> <VdW>
0.224

> <VdW6>
-4.212

> <VdW12>
4.436

> <Bond>
0.044

> <Angle>
2.230

> <Pdih>
12.956

> <Idih>
0.000

> <Tether>
0.000

$$$$
VeraChem MOL file


 17 16  0  0  0  0  0  0  0  0999 V2000     
   22.7210   19.1813   23.2172 C   0  0  0  0  0  0  0  0  0  0  0  0
   22.8441   20.3068   23.6589 O   0  5  0  0  0  0  0  0  0  0  0  0
   23.4874   18.6883   22.4130 O   0  0  0  0  0  0  0  0  0  0  0  0
   21.5579   18.3317   23.7200 C   0  0  0  0  0  0  0  0  0  0  0  0
   21.3548   18.6200   24.7579 H   0  0  0  0  0  0  0  0  0  0  0  0
   21.8951   17.2893   23.7572 H   0  0  0  0  0  0  0  0  0  0  0  0
   20.2759   18.4244   22.9047 C   0  0  0  0  0  0  0  0  0  0  0  0
   19.4587   17.8101   23.2807 H   0  0  0  0  0  0  0  0  0  0  0  0
   20.0913   19.1739   21.8115 C   0  0  0  0  0  0  0  0  0  0  0  0
   20.8915   19.7978   21.4152 H   0  0  0  0  0  0  0  0  0  0  0  0
   18.7944   19.2294   21.0350 C   0  0  0  0  0  0  0  0  0  0  0  0
   18.9993   19.1091   19.9626 H   0  0  0  0  0  0  0  0  0  0  0  0
   18.1360   18.3990   21.3251 H   0  0  0  0  0  0  0  0  0  0  0  0
   18.0641   20.5657   21.2717 C   0  0  0  0  0  0  0  0  0  0  0  0
   17.1247   20.6010   20.7049 H   0  0  0  0  0  0  0  0  0  0  0  0
   17.8256   20.6964   22.3355 H   0  0  0  0  0  0  0  0  0  0  0  0
   18.6858   21.4131   20.9542 H   0  0  0  0  0  0  0  0  0  0  0  0
  1  2  1  0  0  0  0
  1  3  2  0  0  0  0
  1  4  1  0  0  0  0
  4  5  1  0  0  0  0
  4  6  1  0  0  0  0
  4  7  1  0  0  0  0
  7  8  1  0  0  0  0
  7  9  2  0  0  0  0
  9 10  1  0  0  0  0
  9 11  1  0  0  0  0
 11 12  1  0  0  0  0
 11 13  1  0  0  0  0
 11 14  1  0  0  0  0
 14 15  1  0  0  0  0
 14 16  1  0  0  0  0
 14 17  1  0  0  0  0
M  END
> <VConfSearch Rank>
355

> <Conf_Id>
39

> <Delta U+W>
-0.422

> <U+W>
-49.849

> <U>
14.465

> <W>
-64.314

> <W(PB)>
-66.406

> <W(SA)>
2.093

> <Valence>
14.072

> <Coulomb>
-0.199

> <VdW>
0.592

> <VdW6>
-5.019

> <VdW12>
5.611

> <Bond>
0.085

> <Angle>
2.748

> <Pdih>
11.238

> <Idih>
0.001

> <Tether>
0.000

$$$$
VeraChem MOL file


 17 16  0  0  0  0  0  0  0  0999 V2000     
   16.9531   19.3888   21.8975 C   0  0  0  0  0  0  0  0  0  0  0  0
   16.3554   18.3578   22.1359 O   0  5  0  0  0  0  0  0  0  0  0  0
   16.6411   20.1562   21.0084 O   0  0  0  0  0  0  0  0  0  0  0  0
   18.1551   19.7387   22.7649 C   0  0  0  0  0  0  0  0  0  0  0  0
   17.9034   19.4897   23.8023 H   0  0  0  0  0  0  0  0  0  0  0  0
   18.3041   20.8244   22.7228 H   0  0  0  0  0  0  0  0  0  0  0  0
   19.4111   19.0008   22.3422 C   0  0  0  0  0  0  0  0  0  0  0  0
   19.3959   17.9240   22.5082 H   0  0  0  0  0  0  0  0  0  0  0  0
   20.4811   19.5891   21.7990 C   0  0  0  0  0  0  0  0  0  0  0  0
   20.4944   20.6655   21.6305 H   0  0  0  0  0  0  0  0  0  0  0  0
   21.7311   18.8511   21.3746 C   0  0  0  0  0  0  0  0  0  0  0  0
   21.5438   17.7692   21.3347 H   0  0  0  0  0  0  0  0  0  0  0  0
   22.0169   19.1591   20.3597 H   0  0  0  0  0  0  0  0  0  0  0  0
   22.8959   19.1318   22.3438 C   0  0  0  0  0  0  0  0  0  0  0  0
   22.6426   18.8079   23.3619 H   0  0  0  0  0  0  0  0  0  0  0  0
   23.8002   18.5941   22.0304 H   0  0  0  0  0  0  0  0  0  0  0  0
   23.1304   20.2039   22.3744 H   0  0  0  0  0  0  0  0  0  0  0  0
  1  2  1  0  0  0  0
  1  3  2  0  0  0  0
  1  4  1  0  0  0  0
  4  5  1  0  0  0  0
  4  6  1  0  0  0  0
  4  7  1  0  0  0  0
  7  8  1  0  0  0  0
  7  9  2  0  0  0  0
  9 10  1  0  0  0  0
  9 11  1  0  0  0  0
 11 12  1  0  0  0  0
 11 13  1  0  0  0  0
 11 14  1  0  0  0  0
 14 15  1  0  0  0  0
 14 16  1  0  0  0  0
 14 17  1  0  0  0  0
M  END
> <VConfSearch Rank>
356

> <Conf_Id>
38

> <Delta U+W>
0.000

> <U+W>
-49.427

> <U>
13.666

> <W>
-63.093

> <W(PB)>
-65.225

> <W(SA)>
2.132

> <Valence>
15.226

> <Coulomb>
-1.822

> <VdW>
0.261

> <VdW6>
-4.165

> <VdW12>
4.426

> <Bond>
0.044

> <Angle>
2.229

> <Pdih>
12.953

> <Idih>
0.000

> <Tether>
0.000

$$$$
VeraChem MOL file


 17 16  0  0  0  0  0  0  0  0999 V2000     
   22.0808   21.5452   21.1828 C   0  0  0  0  0  0  0  0  0  0  0  0
   21.5905   22.6285   21.4335 O   0  5  0  0  0  0  0  0  0  0  0  0
   22.7386   21.3196   20.1861 O   0  0  0  0  0  0  0  0  0  0  0  0
   21.8649   20.4083   22.1730 C   0  0  0  0  0  0  0  0  0  0  0  0
   21.6516   20.8452   23.1559 H   0  0  0  0  0  0  0  0  0  0  0  0
   22.8094   19.8596   22.2642 H   0  0  0  0  0  0  0  0  0  0  0  0
   20.7553   19.4672   21.7440 C   0  0  0  0  0  0  0  0  0  0  0  0
   20.9667   18.8736   20.8551 H   0  0  0  0  0  0  0  0  0  0  0  0
   19.5860   19.3455   22.3797 C   0  0  0  0  0  0  0  0  0  0  0  0
   19.3740   19.9418   23.2666 H   0  0  0  0  0  0  0  0  0  0  0  0
   18.4792   18.4095   21.9482 C   0  0  0  0  0  0  0  0  0  0  0  0
   17.5235   18.9505   21.9268 H   0  0  0  0  0  0  0  0  0  0  0  0
   18.6590   18.0466   20.9269 H   0  0  0  0  0  0  0  0  0  0  0  0
   18.3670   17.2063   22.9046 C   0  0  0  0  0  0  0  0  0  0  0  0
   18.1490   17.5384   23.9281 H   0  0  0  0  0  0  0  0  0  0  0  0
   17.5619   16.5311   22.5869 H   0  0  0  0  0  0  0  0  0  0  0  0
   19.3041   16.6342   22.9230 H   0  0  0  0  0  0  0  0  0  0  0  0
  1  2  1  0  0  0  0
  1  3  2  0  0  0  0
  1  4  1  0  0  0  0
  4  5  1  0  0  0  0
  4  6  1  0  0  0  0
  4  7  1  0  0  0  0
  7  8  1  0  0  0  0
  7  9  2  0  0  0  0
  9 10  1  0  0  0  0
  9 11  1  0  0  0  0
 11 12  1  0  0  0  0
 11 13  1  0  0  0  0
 11 14  1  0  0  0  0
 14 15  1  0  0  0  0
 14 16  1  0  0  0  0
 14 17  1  0  0  0  0
M  END
> <VConfSearch Rank>
357

> <Conf_Id>
35

> <Delta U+W>
-0.102

> <U+W>
-49.529

> <U>
13.666

> <W>
-63.195

> <W(PB)>
-65.299

> <W(SA)>
2.103

> <Valence>
15.226

> <Coulomb>
-1.822

> <VdW>
0.261

> <VdW6>
-4.165

> <VdW12>
4.426

> <Bond>
0.044

> <Angle>
2.229

> <Pdih>
12.953

> <Idih>
0.000

> <Tether>
0.000

$$$$
VeraChem MOL file


 17 16  0  0  0  0  0  0  0  0999 V2000     
   21.1350   16.7256   23.7004 C   0  0  0  0  0  0  0  0  0  0  0  0
   20.1758   16.1013   24.1092 O   0  5  0  0  0  0  0  0  0  0  0  0
   22.0963   16.2076   23.1671 O   0  0  0  0  0  0  0  0  0  0  0  0
   21.1345   18.2386   23.8755 C   0  0  0  0  0  0  0  0  0  0  0  0
   22.1751   18.5847   23.8709 H   0  0  0  0  0  0  0  0  0  0  0  0
   20.7275   18.4605   24.8688 H   0  0  0  0  0  0  0  0  0  0  0  0
   20.3198   18.9461   22.8092 C   0  0  0  0  0  0  0  0  0  0  0  0
   19.2476   18.7654   22.8622 H   0  0  0  0  0  0  0  0  0  0  0  0
   20.8493   19.7312   21.8627 C   0  0  0  0  0  0  0  0  0  0  0  0
   21.9276   19.8852   21.8385 H   0  0  0  0  0  0  0  0  0  0  0  0
   20.0959   20.4648   20.7659 C   0  0  0  0  0  0  0  0  0  0  0  0
   20.3117   21.5391   20.8421 H   0  0  0  0  0  0  0  0  0  0  0  0
   20.4930   20.1525   19.7906 H   0  0  0  0  0  0  0  0  0  0  0  0
   18.5653   20.2573   20.7751 C   0  0  0  0  0  0  0  0  0  0  0  0
   18.1255   20.6099   21.7173 H   0  0  0  0  0  0  0  0  0  0  0  0
   18.0961   20.8165   19.9553 H   0  0  0  0  0  0  0  0  0  0  0  0
   18.3108   19.1969   20.6474 H   0  0  0  0  0  0  0  0  0  0  0  0
  1  2  1  0  0  0  0
  1  3  2  0  0  0  0
  1  4  1  0  0  0  0
  4  5  1  0  0  0  0
  4  6  1  0  0  0  0
  4  7  1  0  0  0  0
  7  8  1  0  0  0  0
  7  9  2  0  0  0  0
  9 10  1  0  0  0  0
  9 11  1  0  0  0  0
 11 12  1  0  0  0  0
 11 13  1  0  0  0  0
 11 14  1  0  0  0  0
 14 15  1  0  0  0  0
 14 16  1  0  0  0  0
 14 17  1  0  0  0  0
M  END
> <VConfSearch Rank>
358

> <Conf_Id>
19

> <Delta U+W>
-0.496

> <U+W>
-49.923

> <U>
13.863

> <W>
-63.786

> <W(PB)>
-65.856

> <W(SA)>
2.070

> <Valence>
14.117

> <Coulomb>
-1.228

> <VdW>
0.974

> <VdW6>
-4.885

> <VdW12>
5.859

> <Bond>
0.094

> <Angle>
2.818

> <Pdih>
11.205

> <Idih>
0.000

> <Tether>
0.000

$$$$
VeraChem MOL file


 17 16  0  0  0  0  0  0  0  0999 V2000     
   18.9675   21.1675   23.8792 C   0  0  0  0  0  0  0  0  0  0  0  0
   18.3006   20.5260   24.6670 O   0  5  0  0  0  0  0  0  0  0  0  0
   19.7010   22.0796   24.2063 O   0  0  0  0  0  0  0  0  0  0  0  0
   18.8723   20.8182   22.3998 C   0  0  0  0  0  0  0  0  0  0  0  0
   18.8366   21.7575   21.8359 H   0  0  0  0  0  0  0  0  0  0  0  0
   17.9184   20.3049   22.2290 H   0  0  0  0  0  0  0  0  0  0  0  0
   20.0381   19.9707   21.9269 C   0  0  0  0  0  0  0  0  0  0  0  0
   21.0054   20.4722   21.9211 H   0  0  0  0  0  0  0  0  0  0  0  0
   19.9324   18.6947   21.5437 C   0  0  0  0  0  0  0  0  0  0  0  0
   18.9657   18.1922   21.5546 H   0  0  0  0  0  0  0  0  0  0  0  0
   21.0966   17.8505   21.0753 C   0  0  0  0  0  0  0  0  0  0  0  0
   20.8308   17.3378   20.1410 H   0  0  0  0  0  0  0  0  0  0  0  0
   21.9654   18.4845   20.8510 H   0  0  0  0  0  0  0  0  0  0  0  0
   21.4879   16.8078   22.1405 C   0  0  0  0  0  0  0  0  0  0  0  0
   20.6480   16.1344   22.3564 H   0  0  0  0  0  0  0  0  0  0  0  0
   22.3333   16.1983   21.7956 H   0  0  0  0  0  0  0  0  0  0  0  0
   21.7816   17.2992   23.0774 H   0  0  0  0  0  0  0  0  0  0  0  0
  1  2  1  0  0  0  0
  1  3  2  0  0  0  0
  1  4  1  0  0  0  0
  4  5  1  0  0  0  0
  4  6  1  0  0  0  0
  4  7  1  0  0  0  0
  7  8  1  0  0  0  0
  7  9  2  0  0  0  0
  9 10  1  0  0  0  0
  9 11  1  0  0  0  0
 11 12  1  0  0  0  0
 11 13  1  0  0  0  0
 11 14  1  0  0  0  0
 14 15  1  0  0  0  0
 14 16  1  0  0  0  0
 14 17  1  0  0  0  0
M  END
> <VConfSearch Rank>
359

> <Conf_Id>
7

> <Delta U+W>
-0.041

> <U+W>
-49.468

> <U>
14.121

> <W>
-63.589

> <W(PB)>
-65.660

> <W(SA)>
2.071

> <Valence>
15.230

> <Coulomb>
-1.333

> <VdW>
0.224

> <VdW6>
-4.212

> <VdW12>
4.436

> <Bond>
0.044

> <Angle>
2.230

> <Pdih>
12.956

> <Idih>
0.000

> <Tether>
0.000

$$$$
VeraChem MOL file


 17 16  0  0  0  0  0  0  0  0999 V2000     
   18.1821   20.1648   24.0090 C   0  0  0  0  0  0  0  0  0  0  0  0
   17.1889   20.0632   23.3160 O   0  5  0  0  0  0  0  0  0  0  0  0
   18.5059   21.1923   24.5715 O   0  0  0  0  0  0  0  0  0  0  0  0
   19.0543   18.9287   24.2061 C   0  0  0  0  0  0  0  0  0  0  0  0
   18.4017   18.0483   24.1766 H   0  0  0  0  0  0  0  0  0  0  0  0
   19.4645   18.9658   25.2220 H   0  0  0  0  0  0  0  0  0  0  0  0
   20.1874   18.7574   23.2042 C   0  0  0  0  0  0  0  0  0  0  0  0
   20.7974   17.8691   23.3631 H   0  0  0  0  0  0  0  0  0  0  0  0
   20.4711   19.5820   22.1890 C   0  0  0  0  0  0  0  0  0  0  0  0
   19.8764   20.4765   22.0074 H   0  0  0  0  0  0  0  0  0  0  0  0
   21.6125   19.3665   21.2201 C   0  0  0  0  0  0  0  0  0  0  0  0
   22.1837   20.2979   21.1076 H   0  0  0  0  0  0  0  0  0  0  0  0
   22.3113   18.6134   21.6095 H   0  0  0  0  0  0  0  0  0  0  0  0
   21.0911   18.9140   19.8423 C   0  0  0  0  0  0  0  0  0  0  0  0
   21.9232   18.7605   19.1430 H   0  0  0  0  0  0  0  0  0  0  0  0
   20.5375   17.9695   19.9260 H   0  0  0  0  0  0  0  0  0  0  0  0
   20.4184   19.6673   19.4116 H   0  0  0  0  0  0  0  0  0  0  0  0
  1  2  1  0  0  0  0
  1  3  2  0  0  0  0
  1  4  1  0  0  0  0
  4  5  1  0  0  0  0
  4  6  1  0  0  0  0
  4  7  1  0  0  0  0
  7  8  1  0  0  0  0
  7  9  2  0  0  0  0
  9 10  1  0  0  0  0
  9 11  1  0  0  0  0
 11 12  1  0  0  0  0
 11 13  1  0  0  0  0
 11 14  1  0  0  0  0
 14 15  1  0  0  0  0
 14 16  1  0  0  0  0
 14 17  1  0  0  0  0
M  END
> <VConfSearch Rank>
360

> <Conf_Id>
39

> <Delta U+W>
-0.422

> <U+W>
-49.849

> <U>
14.465

> <W>
-64.314

> <W(PB)>
-66.406

> <W(SA)>
2.093

> <Valence>
14.072

> <Coulomb>
-0.199

> <VdW>
0.592

> <VdW6>
-5.019

> <VdW12>
5.611

> <Bond>
0.085

> <Angle>
2.748

> <Pdih>
11.238

> <Idih>
0.001

> <Tether>
0.000

$$$$
VeraChem MOL file


 17 16  0  0  0  0  0  0  0  0999 V2000     
   19.0933   16.5640   20.8237 C   0  0  0  0  0  0  0  0  0  0  0  0
   19.9208   15.6846   20.6864 O   0  5  0  0  0  0  0  0  0  0  0  0
   18.2326   16.8110   20.0021 O   0  0  0  0  0  0  0  0  0  0  0  0
   19.1356   17.3970   22.0981 C   0  0  0  0  0  0  0  0  0  0  0  0
   19.3457   16.7198   22.9340 H   0  0  0  0  0  0  0  0  0  0  0  0
   18.1363   17.8156   22.2677 H   0  0  0  0  0  0  0  0  0  0  0  0
   20.1820   18.4936   22.0406 C   0  0  0  0  0  0  0  0  0  0  0  0
   21.2159   18.1500   22.0338 H   0  0  0  0  0  0  0  0  0  0  0  0
   19.8999   19.7993   21.9976 C   0  0  0  0  0  0  0  0  0  0  0  0
   18.8658   20.1421   22.0014 H   0  0  0  0  0  0  0  0  0  0  0  0
   20.9445   20.8913   21.9365 C   0  0  0  0  0  0  0  0  0  0  0  0
   21.9260   20.4704   21.6781 H   0  0  0  0  0  0  0  0  0  0  0  0
   20.6886   21.6051   21.1418 H   0  0  0  0  0  0  0  0  0  0  0  0
   21.0470   21.6356   23.2821 C   0  0  0  0  0  0  0  0  0  0  0  0
   21.3275   20.9457   24.0889 H   0  0  0  0  0  0  0  0  0  0  0  0
   21.8060   22.4271   23.2314 H   0  0  0  0  0  0  0  0  0  0  0  0
   20.0880   22.0998   23.5470 H   0  0  0  0  0  0  0  0  0  0  0  0
  1  2  1  0  0  0  0
  1  3  2  0  0  0  0
  1  4  1  0  0  0  0
  4  5  1  0  0  0  0
  4  6  1  0  0  0  0
  4  7  1  0  0  0  0
  7  8  1  0  0  0  0
  7  9  2  0  0  0  0
  9 10  1  0  0  0  0
  9 11  1  0  0  0  0
 11 12  1  0  0  0  0
 11 13  1  0  0  0  0
 11 14  1  0  0  0  0
 14 15  1  0  0  0  0
 14 16  1  0  0  0  0
 14 17  1  0  0  0  0
M  END
> <VConfSearch Rank>
361

> <Conf_Id>
38

> <Delta U+W>
0.000

> <U+W>
-49.427

> <U>
13.666

> <W>
-63.093

> <W(PB)>
-65.225

> <W(SA)>
2.132

> <Valence>
15.226

> <Coulomb>
-1.822

> <VdW>
0.261

> <VdW6>
-4.165

> <VdW12>
4.426

> <Bond>
0.044

> <Angle>
2.229

> <Pdih>
12.953

> <Idih>
0.000

> <Tether>
0.000

$$$$
VeraChem MOL file


 17 16  0  0  0  0  0  0  0  0999 V2000     
   18.0055   21.4873   21.2324 C   0  0  0  0  0  0  0  0  0  0  0  0
   18.3013   21.8969   20.1272 O   0  5  0  0  0  0  0  0  0  0  0  0
   17.5652   22.1960   22.1161 O   0  0  0  0  0  0  0  0  0  0  0  0
   18.1906   20.0045   21.5265 C   0  0  0  0  0  0  0  0  0  0  0  0
   18.1720   19.4609   20.5742 H   0  0  0  0  0  0  0  0  0  0  0  0
   17.3231   19.6669   22.1053 H   0  0  0  0  0  0  0  0  0  0  0  0
   19.4695   19.7190   22.2905 C   0  0  0  0  0  0  0  0  0  0  0  0
   19.4938   20.0940   23.3132 H   0  0  0  0  0  0  0  0  0  0  0  0
   20.5164   19.0611   21.7834 C   0  0  0  0  0  0  0  0  0  0  0  0
   20.4927   18.6891   20.7596 H   0  0  0  0  0  0  0  0  0  0  0  0
   21.7924   18.7808   22.5454 C   0  0  0  0  0  0  0  0  0  0  0  0
   22.6597   19.0571   21.9305 H   0  0  0  0  0  0  0  0  0  0  0  0
   21.8408   19.3970   23.4538 H   0  0  0  0  0  0  0  0  0  0  0  0
   21.8906   17.2924   22.9328 C   0  0  0  0  0  0  0  0  0  0  0  0
   21.8831   16.6539   22.0397 H   0  0  0  0  0  0  0  0  0  0  0  0
   22.8187   17.0951   23.4848 H   0  0  0  0  0  0  0  0  0  0  0  0
   21.0461   16.9990   23.5702 H   0  0  0  0  0  0  0  0  0  0  0  0
  1  2  1  0  0  0  0
  1  3  2  0  0  0  0
  1  4  1  0  0  0  0
  4  5  1  0  0  0  0
  4  6  1  0  0  0  0
  4  7  1  0  0  0  0
  7  8  1  0  0  0  0
  7  9  2  0  0  0  0
  9 10  1  0  0  0  0
  9 11  1  0  0  0  0
 11 12  1  0  0  0  0
 11 13  1  0  0  0  0
 11 14  1  0  0  0  0
 14 15  1  0  0  0  0
 14 16  1  0  0  0  0
 14 17  1  0  0  0  0
M  END
> <VConfSearch Rank>
362

> <Conf_Id>
35

> <Delta U+W>
-0.102

> <U+W>
-49.529

> <U>
13.666

> <W>
-63.195

> <W(PB)>
-65.299

> <W(SA)>
2.103

> <Valence>
15.226

> <Coulomb>
-1.822

> <VdW>
0.261

> <VdW6>
-4.165

> <VdW12>
4.426

> <Bond>
0.044

> <Angle>
2.229

> <Pdih>
12.953

> <Idih>
0.000

> <Tether>
0.000

$$$$
VeraChem MOL file


 17 16  0  0  0  0  0  0  0  0999 V2000     
   21.6350   21.1705   23.7592 C   0  0  0  0  0  0  0  0  0  0  0  0
   21.4585   20.9867   24.9475 O   0  5  0  0  0  0  0  0  0  0  0  0
   22.7183   21.4287   23.2728 O   0  0  0  0  0  0  0  0  0  0  0  0
   20.4299   21.0813   22.8321 C   0  0  0  0  0  0  0  0  0  0  0  0
   20.6457   21.6688   21.9317 H   0  0  0  0  0  0  0  0  0  0  0  0
   19.5843   21.5645   23.3350 H   0  0  0  0  0  0  0  0  0  0  0  0
   20.0754   19.6496   22.4771 C   0  0  0  0  0  0  0  0  0  0  0  0
   19.6990   19.0554   23.3080 H   0  0  0  0  0  0  0  0  0  0  0  0
   20.2094   19.1288   21.2509 C   0  0  0  0  0  0  0  0  0  0  0  0
   20.5938   19.7531   20.4450 H   0  0  0  0  0  0  0  0  0  0  0  0
   19.8785   17.7077   20.8273 C   0  0  0  0  0  0  0  0  0  0  0  0
   19.1444   17.7405   20.0109 H   0  0  0  0  0  0  0  0  0  0  0  0
   20.7775   17.2456   20.3974 H   0  0  0  0  0  0  0  0  0  0  0  0
   19.3373   16.8006   21.9544 C   0  0  0  0  0  0  0  0  0  0  0  0
   18.4060   17.2047   22.3724 H   0  0  0  0  0  0  0  0  0  0  0  0
   19.1243   15.7947   21.5700 H   0  0  0  0  0  0  0  0  0  0  0  0
   20.0696   16.7020   22.7665 H   0  0  0  0  0  0  0  0  0  0  0  0
  1  2  1  0  0  0  0
  1  3  2  0  0  0  0
  1  4  1  0  0  0  0
  4  5  1  0  0  0  0
  4  6  1  0  0  0  0
  4  7  1  0  0  0  0
  7  8  1  0  0  0  0
  7  9  2  0  0  0  0
  9 10  1  0  0  0  0
  9 11  1  0  0  0  0
 11 12  1  0  0  0  0
 11 13  1  0  0  0  0
 11 14  1  0  0  0  0
 14 15  1  0  0  0  0
 14 16  1  0  0  0  0
 14 17  1  0  0  0  0
M  END
> <VConfSearch Rank>
363

> <Conf_Id>
19

> <Delta U+W>
-0.496

> <U+W>
-49.923

> <U>
13.863

> <W>
-63.786

> <W(PB)>
-65.856

> <W(SA)>
2.070

> <Valence>
14.117

> <Coulomb>
-1.228

> <VdW>
0.974

> <VdW6>
-4.885

> <VdW12>
5.859

> <Bond>
0.094

> <Angle>
2.818

> <Pdih>
11.205

> <Idih>
0.000

> <Tether>
0.000

$$$$
VeraChem MOL file


 17 16  0  0  0  0  0  0  0  0999 V2000     
   18.2821   16.8126   22.3875 C   0  0  0  0  0  0  0  0  0  0  0  0
   18.9277   15.9861   23.0013 O   0  5  0  0  0  0  0  0  0  0  0  0
   17.1267   17.0887   22.6441 O   0  0  0  0  0  0  0  0  0  0  0  0
   18.9519   17.5355   21.2262 C   0  0  0  0  0  0  0  0  0  0  0  0
   18.2258   17.5979   20.4074 H   0  0  0  0  0  0  0  0  0  0  0  0
   19.7842   16.9162   20.8706 H   0  0  0  0  0  0  0  0  0  0  0  0
   19.4306   18.9241   21.6049 C   0  0  0  0  0  0  0  0  0  0  0  0
   18.6425   19.6446   21.8216 H   0  0  0  0  0  0  0  0  0  0  0  0
   20.7165   19.2790   21.6868 C   0  0  0  0  0  0  0  0  0  0  0  0
   21.5042   18.5567   21.4751 H   0  0  0  0  0  0  0  0  0  0  0  0
   21.1918   20.6634   22.0675 C   0  0  0  0  0  0  0  0  0  0  0  0
   21.9524   21.0043   21.3521 H   0  0  0  0  0  0  0  0  0  0  0  0
   20.3630   21.3827   22.0134 H   0  0  0  0  0  0  0  0  0  0  0  0
   21.7834   20.6736   23.4904 C   0  0  0  0  0  0  0  0  0  0  0  0
   22.6401   19.9908   23.5633 H   0  0  0  0  0  0  0  0  0  0  0  0
   22.1263   21.6805   23.7616 H   0  0  0  0  0  0  0  0  0  0  0  0
   21.0322   20.3593   24.2270 H   0  0  0  0  0  0  0  0  0  0  0  0
  1  2  1  0  0  0  0
  1  3  2  0  0  0  0
  1  4  1  0  0  0  0
  4  5  1  0  0  0  0
  4  6  1  0  0  0  0
  4  7  1  0  0  0  0
  7  8  1  0  0  0  0
  7  9  2  0  0  0  0
  9 10  1  0  0  0  0
  9 11  1  0  0  0  0
 11 12  1  0  0  0  0
 11 13  1  0  0  0  0
 11 14  1  0  0  0  0
 14 15  1  0  0  0  0
 14 16  1  0  0  0  0
 14 17  1  0  0  0  0
M  END
> <VConfSearch Rank>
364

> <Conf_Id>
7

> <Delta U+W>
-0.041

> <U+W>
-49.468

> <U>
14.121

> <W>
-63.589

> <W(PB)>
-65.660

> <W(SA)>
2.071

> <Valence>
15.230

> <Coulomb>
-1.333

> <VdW>
0.224

> <VdW6>
-4.212

> <VdW12>
4.436

> <Bond>
0.044

> <Angle>
2.230

> <Pdih>
12.956

> <Idih>
0.000

> <Tether>
0.000

$$$$
VeraChem MOL file


 17 16  0  0  0  0  0  0  0  0999 V2000     
   22.8359   18.7303   22.1660 C   0  0  0  0  0  0  0  0  0  0  0  0
   22.9741   18.0615   23.1713 O   0  5  0  0  0  0  0  0  0  0  0  0
   23.4939   19.7232   21.9246 O   0  0  0  0  0  0  0  0  0  0  0  0
   21.8000   18.2839   21.1388 C   0  0  0  0  0  0  0  0  0  0  0  0
   21.7425   17.1897   21.1728 H   0  0  0  0  0  0  0  0  0  0  0  0
   22.1847   18.5347   20.1433 H   0  0  0  0  0  0  0  0  0  0  0  0
   20.4073   18.8735   21.3110 C   0  0  0  0  0  0  0  0  0  0  0  0
   19.6838   18.5419   20.5674 H   0  0  0  0  0  0  0  0  0  0  0  0
   20.0279   19.7284   22.2682 C   0  0  0  0  0  0  0  0  0  0  0  0
   20.7313   20.0750   23.0243 H   0  0  0  0  0  0  0  0  0  0  0  0
   18.6279   20.2872   22.3944 C   0  0  0  0  0  0  0  0  0  0  0  0
   18.6747   21.3760   22.5315 H   0  0  0  0  0  0  0  0  0  0  0  0
   18.0578   20.1099   21.4721 H   0  0  0  0  0  0  0  0  0  0  0  0
   17.8832   19.6511   23.5843 C   0  0  0  0  0  0  0  0  0  0  0  0
   16.8687   20.0612   23.6720 H   0  0  0  0  0  0  0  0  0  0  0  0
   17.8016   18.5636   23.4567 H   0  0  0  0  0  0  0  0  0  0  0  0
   18.4122   19.8459   24.5265 H   0  0  0  0  0  0  0  0  0  0  0  0
  1  2  1  0  0  0  0
  1  3  2  0  0  0  0
  1  4  1  0  0  0  0
  4  5  1  0  0  0  0
  4  6  1  0  0  0  0
  4  7  1  0  0  0  0
  7  8  1  0  0  0  0
  7  9  2  0  0  0  0
  9 10  1  0  0  0  0
  9 11  1  0  0  0  0
 11 12  1  0  0  0  0
 11 13  1  0  0  0  0
 11 14  1  0  0  0  0
 14 15  1  0  0  0  0
 14 16  1  0  0  0  0
 14 17  1  0  0  0  0
M  END
> <VConfSearch Rank>
365

> <Conf_Id>
39

> <Delta U+W>
-0.422

> <U+W>
-49.849

> <U>
14.465

> <W>
-64.314

> <W(PB)>
-66.406

> <W(SA)>
2.093

> <Valence>
14.072

> <Coulomb>
-0.199

> <VdW>
0.592

> <VdW6>
-5.019

> <VdW12>
5.611

> <Bond>
0.085

> <Angle>
2.748

> <Pdih>
11.238

> <Idih>
0.001

> <Tether>
0.000

$$$$
VeraChem MOL file


 17 16  0  0  0  0  0  0  0  0999 V2000     
   20.8787   17.2265   24.3931 C   0  0  0  0  0  0  0  0  0  0  0  0
   22.0321   16.8442   24.4141 O   0  5  0  0  0  0  0  0  0  0  0  0
   19.9273   16.5042   24.6167 O   0  0  0  0  0  0  0  0  0  0  0  0
   20.6137   18.6920   24.0743 C   0  0  0  0  0  0  0  0  0  0  0  0
   21.3699   19.2902   24.5957 H   0  0  0  0  0  0  0  0  0  0  0  0
   19.6401   18.9649   24.4989 H   0  0  0  0  0  0  0  0  0  0  0  0
   20.6576   18.9797   22.5857 C   0  0  0  0  0  0  0  0  0  0  0  0
   21.6393   18.8851   22.1225 H   0  0  0  0  0  0  0  0  0  0  0  0
   19.5927   19.3250   21.8557 C   0  0  0  0  0  0  0  0  0  0  0  0
   18.6108   19.4165   22.3189 H   0  0  0  0  0  0  0  0  0  0  0  0
   19.6377   19.6078   20.3707 C   0  0  0  0  0  0  0  0  0  0  0  0
   20.5825   19.2493   19.9395 H   0  0  0  0  0  0  0  0  0  0  0  0
   18.8319   19.0593   19.8643 H   0  0  0  0  0  0  0  0  0  0  0  0
   19.4883   21.1157   20.0893 C   0  0  0  0  0  0  0  0  0  0  0  0
   20.2989   21.6832   20.5652 H   0  0  0  0  0  0  0  0  0  0  0  0
   19.5211   21.3147   19.0102 H   0  0  0  0  0  0  0  0  0  0  0  0
   18.5330   21.4937   20.4765 H   0  0  0  0  0  0  0  0  0  0  0  0
  1  2  1  0  0  0  0
  1  3  2  0  0  0  0
  1  4  1  0  0  0  0
  4  5  1  0  0  0  0
  4  6  1  0  0  0  0
  4  7  1  0  0  0  0
  7  8  1  0  0  0  0
  7  9  2  0  0  0  0
  9 10  1  0  0  0  0
  9 11  1  0  0  0  0
 11 12  1  0  0  0  0
 11 13  1  0  0  0  0
 11 14  1  0  0  0  0
 14 15  1  0  0  0  0
 14 16  1  0  0  0  0
 14 17  1  0  0  0  0
M  END
> <VConfSearch Rank>
366

> <Conf_Id>
38

> <Delta U+W>
0.000

> <U+W>
-49.427

> <U>
13.666

> <W>
-63.093

> <W(PB)>
-65.225

> <W(SA)>
2.132

> <Valence>
15.226

> <Coulomb>
-1.822

> <VdW>
0.261

> <VdW6>
-4.165

> <VdW12>
4.426

> <Bond>
0.044

> <Angle>
2.229

> <Pdih>
12.953

> <Idih>
0.000

> <Tether>
0.000

$$$$
VeraChem MOL file


 17 16  0  0  0  0  0  0  0  0999 V2000     
   22.8359   18.0421   23.0810 C   0  0  0  0  0  0  0  0  0  0  0  0
   23.6743   18.2090   22.2173 O   0  5  0  0  0  0  0  0  0  0  0  0
   22.7707   17.0433   23.7703 O   0  0  0  0  0  0  0  0  0  0  0  0
   21.8134   19.1458   23.3179 C   0  0  0  0  0  0  0  0  0  0  0  0
   22.2393   20.0907   22.9595 H   0  0  0  0  0  0  0  0  0  0  0  0
   21.6745   19.2469   24.4005 H   0  0  0  0  0  0  0  0  0  0  0  0
   20.4837   18.8595   22.6467 C   0  0  0  0  0  0  0  0  0  0  0  0
   19.9229   18.0234   23.0633 H   0  0  0  0  0  0  0  0  0  0  0  0
   19.9981   19.5558   21.6143 C   0  0  0  0  0  0  0  0  0  0  0  0
   20.5609   20.3898   21.1962 H   0  0  0  0  0  0  0  0  0  0  0  0
   18.6738   19.2664   20.9438 C   0  0  0  0  0  0  0  0  0  0  0  0
   18.8089   19.2358   19.8541 H   0  0  0  0  0  0  0  0  0  0  0  0
   18.2994   18.2777   21.2429 H   0  0  0  0  0  0  0  0  0  0  0  0
   17.6259   20.3383   21.3016 C   0  0  0  0  0  0  0  0  0  0  0  0
   17.9578   21.3338   20.9788 H   0  0  0  0  0  0  0  0  0  0  0  0
   16.6673   20.1234   20.8116 H   0  0  0  0  0  0  0  0  0  0  0  0
   17.4549   20.3696   22.3858 H   0  0  0  0  0  0  0  0  0  0  0  0
  1  2  1  0  0  0  0
  1  3  2  0  0  0  0
  1  4  1  0  0  0  0
  4  5  1  0  0  0  0
  4  6  1  0  0  0  0
  4  7  1  0  0  0  0
  7  8  1  0  0  0  0
  7  9  2  0  0  0  0
  9 10  1  0  0  0  0
  9 11  1  0  0  0  0
 11 12  1  0  0  0  0
 11 13  1  0  0  0  0
 11 14  1  0  0  0  0
 14 15  1  0  0  0  0
 14 16  1  0  0  0  0
 14 17  1  0  0  0  0
M  END
> <VConfSearch Rank>
367

> <Conf_Id>
35

> <Delta U+W>
-0.102

> <U+W>
-49.529

> <U>
13.666

> <W>
-63.195

> <W(PB)>
-65.299

> <W(SA)>
2.103

> <Valence>
15.226

> <Coulomb>
-1.822

> <VdW>
0.261

> <VdW6>
-4.165

> <VdW12>
4.426

> <Bond>
0.044

> <Angle>
2.229

> <Pdih>
12.953

> <Idih>
0.000

> <Tether>
0.000

$$$$
VeraChem MOL file


 17 16  0  0  0  0  0  0  0  0999 V2000     
   19.1480   16.9858   20.4469 C   0  0  0  0  0  0  0  0  0  0  0  0
   19.9017   16.0324   20.4389 O   0  5  0  0  0  0  0  0  0  0  0  0
   17.9418   16.8880   20.5578 O   0  0  0  0  0  0  0  0  0  0  0  0
   19.7493   18.3775   20.3001 C   0  0  0  0  0  0  0  0  0  0  0  0
   18.9758   19.0449   19.9015 H   0  0  0  0  0  0  0  0  0  0  0  0
   20.5433   18.3213   19.5465 H   0  0  0  0  0  0  0  0  0  0  0  0
   20.3081   18.9091   21.6064 C   0  0  0  0  0  0  0  0  0  0  0  0
   21.1852   18.3796   21.9743 H   0  0  0  0  0  0  0  0  0  0  0  0
   19.7829   19.9412   22.2786 C   0  0  0  0  0  0  0  0  0  0  0  0
   18.9017   20.4440   21.8814 H   0  0  0  0  0  0  0  0  0  0  0  0
   20.2870   20.5214   23.5892 C   0  0  0  0  0  0  0  0  0  0  0  0
   20.5104   21.5872   23.4450 H   0  0  0  0  0  0  0  0  0  0  0  0
   19.4760   20.4875   24.3293 H   0  0  0  0  0  0  0  0  0  0  0  0
   21.5326   19.8213   24.1761 C   0  0  0  0  0  0  0  0  0  0  0  0
   22.3823   19.8832   23.4837 H   0  0  0  0  0  0  0  0  0  0  0  0
   21.8324   20.2963   25.1193 H   0  0  0  0  0  0  0  0  0  0  0  0
   21.3283   18.7625   24.3831 H   0  0  0  0  0  0  0  0  0  0  0  0
  1  2  1  0  0  0  0
  1  3  2  0  0  0  0
  1  4  1  0  0  0  0
  4  5  1  0  0  0  0
  4  6  1  0  0  0  0
  4  7  1  0  0  0  0
  7  8  1  0  0  0  0
  7  9  2  0  0  0  0
  9 10  1  0  0  0  0
  9 11  1  0  0  0  0
 11 12  1  0  0  0  0
 11 13  1  0  0  0  0
 11 14  1  0  0  0  0
 14 15  1  0  0  0  0
 14 16  1  0  0  0  0
 14 17  1  0  0  0  0
M  END
> <VConfSearch Rank>
368

> <Conf_Id>
19

> <Delta U+W>
-0.496

> <U+W>
-49.923

> <U>
13.863

> <W>
-63.786

> <W(PB)>
-65.856

> <W(SA)>
2.070

> <Valence>
14.117

> <Coulomb>
-1.228

> <VdW>
0.974

> <VdW6>
-4.885

> <VdW12>
5.859

> <Bond>
0.094

> <Angle>
2.818

> <Pdih>
11.205

> <Idih>
0.000

> <Tether>
0.000

$$$$
VeraChem MOL file


 17 16  0  0  0  0  0  0  0  0999 V2000     
   22.1336   17.2515   23.4070 C   0  0  0  0  0  0  0  0  0  0  0  0
   23.1446   17.5303   22.7930 O   0  5  0  0  0  0  0  0  0  0  0  0
   22.0939   17.1275   24.6153 O   0  0  0  0  0  0  0  0  0  0  0  0
   20.8474   17.0346   22.6206 C   0  0  0  0  0  0  0  0  0  0  0  0
   20.3357   16.1652   23.0492 H   0  0  0  0  0  0  0  0  0  0  0  0
   21.1154   16.7733   21.5897 H   0  0  0  0  0  0  0  0  0  0  0  0
   19.9346   18.2455   22.6548 C   0  0  0  0  0  0  0  0  0  0  0  0
   19.5019   18.4743   23.6282 H   0  0  0  0  0  0  0  0  0  0  0  0
   19.6598   19.0093   21.5930 C   0  0  0  0  0  0  0  0  0  0  0  0
   20.0969   18.7831   20.6210 H   0  0  0  0  0  0  0  0  0  0  0  0
   18.7516   20.2181   21.6299 C   0  0  0  0  0  0  0  0  0  0  0  0
   18.0339   20.1683   20.7999 H   0  0  0  0  0  0  0  0  0  0  0  0
   18.1617   20.2275   22.5568 H   0  0  0  0  0  0  0  0  0  0  0  0
   19.5639   21.5238   21.5293 C   0  0  0  0  0  0  0  0  0  0  0  0
   20.1345   21.5589   20.5920 H   0  0  0  0  0  0  0  0  0  0  0  0
   18.9000   22.3977   21.5570 H   0  0  0  0  0  0  0  0  0  0  0  0
   20.2723   21.6073   22.3641 H   0  0  0  0  0  0  0  0  0  0  0  0
  1  2  1  0  0  0  0
  1  3  2  0  0  0  0
  1  4  1  0  0  0  0
  4  5  1  0  0  0  0
  4  6  1  0  0  0  0
  4  7  1  0  0  0  0
  7  8  1  0  0  0  0
  7  9  2  0  0  0  0
  9 10  1  0  0  0  0
  9 11  1  0  0  0  0
 11 12  1  0  0  0  0
 11 13  1  0  0  0  0
 11 14  1  0  0  0  0
 14 15  1  0  0  0  0
 14 16  1  0  0  0  0
 14 17  1  0  0  0  0
M  END
> <VConfSearch Rank>
369

> <Conf_Id>
7

> <Delta U+W>
-0.041

> <U+W>
-49.468

> <U>
14.121

> <W>
-63.589

> <W(PB)>
-65.660

> <W(SA)>
2.071

> <Valence>
15.230

> <Coulomb>
-1.333

> <VdW>
0.224

> <VdW6>
-4.212

> <VdW12>
4.436

> <Bond>
0.044

> <Angle>
2.230

> <Pdih>
12.956

> <Idih>
0.000

> <Tether>
0.000

$$$$
VeraChem MOL file


 17 16  0  0  0  0  0  0  0  0999 V2000     
   18.5150   20.0794   20.1761 C   0  0  0  0  0  0  0  0  0  0  0  0
   17.5475   20.4979   20.7808 O   0  5  0  0  0  0  0  0  0  0  0  0
   18.4473   19.2409   19.2990 O   0  0  0  0  0  0  0  0  0  0  0  0
   19.8850   20.6580   20.5170 C   0  0  0  0  0  0  0  0  0  0  0  0
   19.7430   21.7015   20.8215 H   0  0  0  0  0  0  0  0  0  0  0  0
   20.4747   20.6910   19.5935 H   0  0  0  0  0  0  0  0  0  0  0  0
   20.6632   19.9140   21.5930 C   0  0  0  0  0  0  0  0  0  0  0  0
   21.6380   20.3434   21.8207 H   0  0  0  0  0  0  0  0  0  0  0  0
   20.2516   18.8224   22.2487 C   0  0  0  0  0  0  0  0  0  0  0  0
   19.2810   18.3735   22.0408 H   0  0  0  0  0  0  0  0  0  0  0  0
   21.0662   18.1185   23.3112 C   0  0  0  0  0  0  0  0  0  0  0  0
   21.0788   17.0381   23.1132 H   0  0  0  0  0  0  0  0  0  0  0  0
   22.1113   18.4563   23.2820 H   0  0  0  0  0  0  0  0  0  0  0  0
   20.4859   18.3766   24.7153 C   0  0  0  0  0  0  0  0  0  0  0  0
   21.0799   17.8625   25.4820 H   0  0  0  0  0  0  0  0  0  0  0  0
   20.4870   19.4501   24.9461 H   0  0  0  0  0  0  0  0  0  0  0  0
   19.4522   18.0132   24.7845 H   0  0  0  0  0  0  0  0  0  0  0  0
  1  2  1  0  0  0  0
  1  3  2  0  0  0  0
  1  4  1  0  0  0  0
  4  5  1  0  0  0  0
  4  6  1  0  0  0  0
  4  7  1  0  0  0  0
  7  8  1  0  0  0  0
  7  9  2  0  0  0  0
  9 10  1  0  0  0  0
  9 11  1  0  0  0  0
 11 12  1  0  0  0  0
 11 13  1  0  0  0  0
 11 14  1  0  0  0  0
 14 15  1  0  0  0  0
 14 16  1  0  0  0  0
 14 17  1  0  0  0  0
M  END
> <VConfSearch Rank>
370

> <Conf_Id>
39

> <Delta U+W>
-0.422

> <U+W>
-49.849

> <U>
14.465

> <W>
-64.314

> <W(PB)>
-66.406

> <W(SA)>
2.093

> <Valence>
14.072

> <Coulomb>
-0.199

> <VdW>
0.592

> <VdW6>
-5.019

> <VdW12>
5.611

> <Bond>
0.085

> <Angle>
2.748

> <Pdih>
11.238

> <Idih>
0.001

> <Tether>
0.000

$$$$
VeraChem MOL file


 17 16  0  0  0  0  0  0  0  0999 V2000     
   20.8416   19.8348   19.0779 C   0  0  0  0  0  0  0  0  0  0  0  0
   21.9970   19.6417   18.7541 O   0  5  0  0  0  0  0  0  0  0  0  0
   20.1782   20.7700   18.6752 O   0  0  0  0  0  0  0  0  0  0  0  0
   20.1899   18.8467   20.0363 C   0  0  0  0  0  0  0  0  0  0  0  0
   20.5060   17.8386   19.7443 H   0  0  0  0  0  0  0  0  0  0  0  0
   19.1037   18.8961   19.8939 H   0  0  0  0  0  0  0  0  0  0  0  0
   20.5610   19.1102   21.4833 C   0  0  0  0  0  0  0  0  0  0  0  0
   21.6039   18.9229   21.7374 H   0  0  0  0  0  0  0  0  0  0  0  0
   19.7030   19.5436   22.4118 C   0  0  0  0  0  0  0  0  0  0  0  0
   18.6610   19.7335   22.1563 H   0  0  0  0  0  0  0  0  0  0  0  0
   20.0757   19.8094   23.8533 C   0  0  0  0  0  0  0  0  0  0  0  0
   21.1679   19.8458   23.9674 H   0  0  0  0  0  0  0  0  0  0  0  0
   19.6938   20.7926   24.1596 H   0  0  0  0  0  0  0  0  0  0  0  0
   19.5017   18.7227   24.7831 C   0  0  0  0  0  0  0  0  0  0  0  0
   19.8902   17.7323   24.5117 H   0  0  0  0  0  0  0  0  0  0  0  0
   19.7748   18.9213   25.8277 H   0  0  0  0  0  0  0  0  0  0  0  0
   18.4062   18.6901   24.7179 H   0  0  0  0  0  0  0  0  0  0  0  0
  1  2  1  0  0  0  0
  1  3  2  0  0  0  0
  1  4  1  0  0  0  0
  4  5  1  0  0  0  0
  4  6  1  0  0  0  0
  4  7  1  0  0  0  0
  7  8  1  0  0  0  0
  7  9  2  0  0  0  0
  9 10  1  0  0  0  0
  9 11  1  0  0  0  0
 11 12  1  0  0  0  0
 11 13  1  0  0  0  0
 11 14  1  0  0  0  0
 14 15  1  0  0  0  0
 14 16  1  0  0  0  0
 14 17  1  0  0  0  0
M  END
> <VConfSearch Rank>
371

> <Conf_Id>
38

> <Delta U+W>
0.000

> <U+W>
-49.427

> <U>
13.666

> <W>
-63.093

> <W(PB)>
-65.225

> <W(SA)>
2.132

> <Valence>
15.226

> <Coulomb>
-1.822

> <VdW>
0.261

> <VdW6>
-4.165

> <VdW12>
4.426

> <Bond>
0.044

> <Angle>
2.229

> <Pdih>
12.953

> <Idih>
0.000

> <Tether>
0.000

$$$$
VeraChem MOL file


 17 16  0  0  0  0  0  0  0  0999 V2000     
   23.0485   19.9484   22.9864 C   0  0  0  0  0  0  0  0  0  0  0  0
   23.6935   18.9199   23.0402 O   0  5  0  0  0  0  0  0  0  0  0  0
   23.1841   20.8684   23.7688 O   0  0  0  0  0  0  0  0  0  0  0  0
   22.0172   20.0969   21.8755 C   0  0  0  0  0  0  0  0  0  0  0  0
   22.3016   19.4307   21.0521 H   0  0  0  0  0  0  0  0  0  0  0  0
   22.0807   21.1227   21.4945 H   0  0  0  0  0  0  0  0  0  0  0  0
   20.6065   19.8038   22.3495 C   0  0  0  0  0  0  0  0  0  0  0  0
   20.1937   20.5245   23.0548 H   0  0  0  0  0  0  0  0  0  0  0  0
   19.8868   18.7479   21.9581 C   0  0  0  0  0  0  0  0  0  0  0  0
   20.3013   18.0259   21.2552 H   0  0  0  0  0  0  0  0  0  0  0  0
   18.4817   18.4551   22.4349 C   0  0  0  0  0  0  0  0  0  0  0  0
   18.4083   17.4053   22.7498 H   0  0  0  0  0  0  0  0  0  0  0  0
   18.2394   19.0660   23.3154 H   0  0  0  0  0  0  0  0  0  0  0  0
   17.4507   18.7313   21.3232 C   0  0  0  0  0  0  0  0  0  0  0  0
   17.6464   18.1048   20.4430 H   0  0  0  0  0  0  0  0  0  0  0  0
   16.4332   18.5164   21.6748 H   0  0  0  0  0  0  0  0  0  0  0  0
   17.4878   19.7829   21.0095 H   0  0  0  0  0  0  0  0  0  0  0  0
  1  2  1  0  0  0  0
  1  3  2  0  0  0  0
  1  4  1  0  0  0  0
  4  5  1  0  0  0  0
  4  6  1  0  0  0  0
  4  7  1  0  0  0  0
  7  8  1  0  0  0  0
  7  9  2  0  0  0  0
  9 10  1  0  0  0  0
  9 11  1  0  0  0  0
 11 12  1  0  0  0  0
 11 13  1  0  0  0  0
 11 14  1  0  0  0  0
 14 15  1  0  0  0  0
 14 16  1  0  0  0  0
 14 17  1  0  0  0  0
M  END
> <VConfSearch Rank>
372

> <Conf_Id>
35

> <Delta U+W>
-0.102

> <U+W>
-49.529

> <U>
13.666

> <W>
-63.195

> <W(PB)>
-65.299

> <W(SA)>
2.103

> <Valence>
15.226

> <Coulomb>
-1.822

> <VdW>
0.261

> <VdW6>
-4.165

> <VdW12>
4.426

> <Bond>
0.044

> <Angle>
2.229

> <Pdih>
12.953

> <Idih>
0.000

> <Tether>
0.000

$$$$
VeraChem MOL file


 17 16  0  0  0  0  0  0  0  0999 V2000     
   21.7737   21.6090   22.1834 C   0  0  0  0  0  0  0  0  0  0  0  0
   22.8131   21.4572   22.7945 O   0  5  0  0  0  0  0  0  0  0  0  0
   21.7032   22.1651   21.1051 O   0  0  0  0  0  0  0  0  0  0  0  0
   20.4893   21.0813   22.8091 C   0  0  0  0  0  0  0  0  0  0  0  0
   19.6472   21.6466   22.3919 H   0  0  0  0  0  0  0  0  0  0  0  0
   20.5238   21.3032   23.8820 H   0  0  0  0  0  0  0  0  0  0  0  0
   20.3071   19.5911   22.5913 C   0  0  0  0  0  0  0  0  0  0  0  0
   21.0257   18.9641   23.1163 H   0  0  0  0  0  0  0  0  0  0  0  0
   19.3524   19.0604   21.8170 C   0  0  0  0  0  0  0  0  0  0  0  0
   18.6536   19.7200   21.3036 H   0  0  0  0  0  0  0  0  0  0  0  0
   19.1155   17.5831   21.5523 C   0  0  0  0  0  0  0  0  0  0  0  0
   18.0892   17.3276   21.8490 H   0  0  0  0  0  0  0  0  0  0  0  0
   19.1632   17.4030   20.4698 H   0  0  0  0  0  0  0  0  0  0  0  0
   20.0978   16.6273   22.2646 C   0  0  0  0  0  0  0  0  0  0  0  0
   20.0380   16.7416   23.3549 H   0  0  0  0  0  0  0  0  0  0  0  0
   19.8619   15.5828   22.0228 H   0  0  0  0  0  0  0  0  0  0  0  0
   21.1321   16.8197   21.9505 H   0  0  0  0  0  0  0  0  0  0  0  0
  1  2  1  0  0  0  0
  1  3  2  0  0  0  0
  1  4  1  0  0  0  0
  4  5  1  0  0  0  0
  4  6  1  0  0  0  0
  4  7  1  0  0  0  0
  7  8  1  0  0  0  0
  7  9  2  0  0  0  0
  9 10  1  0  0  0  0
  9 11  1  0  0  0  0
 11 12  1  0  0  0  0
 11 13  1  0  0  0  0
 11 14  1  0  0  0  0
 14 15  1  0  0  0  0
 14 16  1  0  0  0  0
 14 17  1  0  0  0  0
M  END
> <VConfSearch Rank>
373

> <Conf_Id>
19

> <Delta U+W>
-0.496

> <U+W>
-49.923

> <U>
13.863

> <W>
-63.786

> <W(PB)>
-65.856

> <W(SA)>
2.070

> <Valence>
14.117

> <Coulomb>
-1.228

> <VdW>
0.974

> <VdW6>
-4.885

> <VdW12>
5.859

> <Bond>
0.094

> <Angle>
2.818

> <Pdih>
11.205

> <Idih>
0.000

> <Tether>
0.000

$$$$
VeraChem MOL file


 17 16  0  0  0  0  0  0  0  0999 V2000     
   21.5913   20.8291   20.3542 C   0  0  0  0  0  0  0  0  0  0  0  0
   21.4090   20.2813   19.2849 O   0  5  0  0  0  0  0  0  0  0  0  0
   21.4558   22.0242   20.5287 O   0  0  0  0  0  0  0  0  0  0  0  0
   22.0235   19.9752   21.5390 C   0  0  0  0  0  0  0  0  0  0  0  0
   22.8015   20.5248   22.0814 H   0  0  0  0  0  0  0  0  0  0  0  0
   22.4878   19.0604   21.1515 H   0  0  0  0  0  0  0  0  0  0  0  0
   20.8716   19.6479   22.4701 C   0  0  0  0  0  0  0  0  0  0  0  0
   20.4580   20.4965   23.0142 H   0  0  0  0  0  0  0  0  0  0  0  0
   20.3641   18.4226   22.6353 C   0  0  0  0  0  0  0  0  0  0  0  0
   20.7747   17.5754   22.0870 H   0  0  0  0  0  0  0  0  0  0  0  0
   19.2136   18.0990   23.5620 C   0  0  0  0  0  0  0  0  0  0  0  0
   19.4688   17.2274   24.1799 H   0  0  0  0  0  0  0  0  0  0  0  0
   19.0304   18.9331   24.2533 H   0  0  0  0  0  0  0  0  0  0  0  0
   17.9273   17.8053   22.7656 C   0  0  0  0  0  0  0  0  0  0  0  0
   18.0700   16.9493   22.0929 H   0  0  0  0  0  0  0  0  0  0  0  0
   17.0956   17.5715   23.4428 H   0  0  0  0  0  0  0  0  0  0  0  0
   17.6386   18.6731   22.1579 H   0  0  0  0  0  0  0  0  0  0  0  0
  1  2  1  0  0  0  0
  1  3  2  0  0  0  0
  1  4  1  0  0  0  0
  4  5  1  0  0  0  0
  4  6  1  0  0  0  0
  4  7  1  0  0  0  0
  7  8  1  0  0  0  0
  7  9  2  0  0  0  0
  9 10  1  0  0  0  0
  9 11  1  0  0  0  0
 11 12  1  0  0  0  0
 11 13  1  0  0  0  0
 11 14  1  0  0  0  0
 14 15  1  0  0  0  0
 14 16  1  0  0  0  0
 14 17  1  0  0  0  0
M  END
> <VConfSearch Rank>
374

> <Conf_Id>
7

> <Delta U+W>
-0.041

> <U+W>
-49.468

> <U>
14.121

> <W>
-63.589

> <W(PB)>
-65.660

> <W(SA)>
2.071

> <Valence>
15.230

> <Coulomb>
-1.333

> <VdW>
0.224

> <VdW6>
-4.212

> <VdW12>
4.436

> <Bond>
0.044

> <Angle>
2.230

> <Pdih>
12.956

> <Idih>
0.000

> <Tether>
0.000

$$$$
VeraChem MOL file


 17 16  0  0  0  0  0  0  0  0999 V2000     
   20.0402   21.5088   20.6478 C   0  0  0  0  0  0  0  0  0  0  0  0
   18.8451   21.5996   20.4464 O   0  5  0  0  0  0  0  0  0  0  0  0
   20.8692   21.4658   19.7602 O   0  0  0  0  0  0  0  0  0  0  0  0
   20.5281   21.4750   22.0930 C   0  0  0  0  0  0  0  0  0  0  0  0
   19.8380   22.0775   22.6951 H   0  0  0  0  0  0  0  0  0  0  0  0
   21.4938   21.9923   22.1334 H   0  0  0  0  0  0  0  0  0  0  0  0
   20.6654   20.0894   22.7079 C   0  0  0  0  0  0  0  0  0  0  0  0
   21.0150   20.0882   23.7396 H   0  0  0  0  0  0  0  0  0  0  0  0
   20.3970   18.9283   22.0989 C   0  0  0  0  0  0  0  0  0  0  0  0
   20.0452   18.9016   21.0682 H   0  0  0  0  0  0  0  0  0  0  0  0
   20.5519   17.5748   22.7560 C   0  0  0  0  0  0  0  0  0  0  0  0
   21.1019   16.8990   22.0872 H   0  0  0  0  0  0  0  0  0  0  0  0
   21.1457   17.6592   23.6766 H   0  0  0  0  0  0  0  0  0  0  0  0
   19.1782   16.9611   23.0899 C   0  0  0  0  0  0  0  0  0  0  0  0
   19.2965   15.9787   23.5652 H   0  0  0  0  0  0  0  0  0  0  0  0
   18.6194   17.6081   23.7790 H   0  0  0  0  0  0  0  0  0  0  0  0
   18.5767   16.8298   22.1809 H   0  0  0  0  0  0  0  0  0  0  0  0
  1  2  1  0  0  0  0
  1  3  2  0  0  0  0
  1  4  1  0  0  0  0
  4  5  1  0  0  0  0
  4  6  1  0  0  0  0
  4  7  1  0  0  0  0
  7  8  1  0  0  0  0
  7  9  2  0  0  0  0
  9 10  1  0  0  0  0
  9 11  1  0  0  0  0
 11 12  1  0  0  0  0
 11 13  1  0  0  0  0
 11 14  1  0  0  0  0
 14 15  1  0  0  0  0
 14 16  1  0  0  0  0
 14 17  1  0  0  0  0
M  END
> <VConfSearch Rank>
375

> <Conf_Id>
39

> <Delta U+W>
-0.422

> <U+W>
-49.849

> <U>
14.465

> <W>
-64.314

> <W(PB)>
-66.406

> <W(SA)>
2.093

> <Valence>
14.072

> <Coulomb>
-0.199

> <VdW>
0.592

> <VdW6>
-5.019

> <VdW12>
5.611

> <Bond>
0.085

> <Angle>
2.748

> <Pdih>
11.238

> <Idih>
0.001

> <Tether>
0.000

$$$$
VeraChem MOL file


 17 16  0  0  0  0  0  0  0  0999 V2000     
   18.9745   21.9338   23.3910 C   0  0  0  0  0  0  0  0  0  0  0  0
   18.0639   21.8072   24.1858 O   0  5  0  0  0  0  0  0  0  0  0  0
   19.0298   22.8274   22.5692 O   0  0  0  0  0  0  0  0  0  0  0  0
   20.1098   20.9195   23.4324 C   0  0  0  0  0  0  0  0  0  0  0  0
   20.3381   20.7150   24.4848 H   0  0  0  0  0  0  0  0  0  0  0  0
   21.0016   21.3846   22.9952 H   0  0  0  0  0  0  0  0  0  0  0  0
   19.7623   19.6292   22.7147 C   0  0  0  0  0  0  0  0  0  0  0  0
   18.9868   19.0279   23.1882 H   0  0  0  0  0  0  0  0  0  0  0  0
   20.3391   19.2221   21.5798 C   0  0  0  0  0  0  0  0  0  0  0  0
   21.1125   19.8252   21.1053 H   0  0  0  0  0  0  0  0  0  0  0  0
   19.9887   17.9370   20.8636 C   0  0  0  0  0  0  0  0  0  0  0  0
   19.0456   17.5265   21.2499 H   0  0  0  0  0  0  0  0  0  0  0  0
   19.8304   18.1392   19.7956 H   0  0  0  0  0  0  0  0  0  0  0  0
   21.1065   16.8888   21.0279 C   0  0  0  0  0  0  0  0  0  0  0  0
   21.2653   16.6512   22.0880 H   0  0  0  0  0  0  0  0  0  0  0  0
   20.8468   15.9589   20.5055 H   0  0  0  0  0  0  0  0  0  0  0  0
   22.0540   17.2585   20.6145 H   0  0  0  0  0  0  0  0  0  0  0  0
  1  2  1  0  0  0  0
  1  3  2  0  0  0  0
  1  4  1  0  0  0  0
  4  5  1  0  0  0  0
  4  6  1  0  0  0  0
  4  7  1  0  0  0  0
  7  8  1  0  0  0  0
  7  9  2  0  0  0  0
  9 10  1  0  0  0  0
  9 11  1  0  0  0  0
 11 12  1  0  0  0  0
 11 13  1  0  0  0  0
 11 14  1  0  0  0  0
 14 15  1  0  0  0  0
 14 16  1  0  0  0  0
 14 17  1  0  0  0  0
M  END
> <VConfSearch Rank>
376

> <Conf_Id>
38

> <Delta U+W>
0.000

> <U+W>
-49.427

> <U>
13.666

> <W>
-63.093

> <W(PB)>
-65.225

> <W(SA)>
2.132

> <Valence>
15.226

> <Coulomb>
-1.822

> <VdW>
0.261

> <VdW6>
-4.165

> <VdW12>
4.426

> <Bond>
0.044

> <Angle>
2.229

> <Pdih>
12.953

> <Idih>
0.000

> <Tether>
0.000

$$$$
VeraChem MOL file


 17 16  0  0  0  0  0  0  0  0999 V2000     
   22.5671   20.5626   23.5828 C   0  0  0  0  0  0  0  0  0  0  0  0
   23.5890   20.2095   23.0279 O   0  5  0  0  0  0  0  0  0  0  0  0
   22.4697   20.7026   24.7861 O   0  0  0  0  0  0  0  0  0  0  0  0
   21.3422   20.8513   22.7250 C   0  0  0  0  0  0  0  0  0  0  0  0
   21.6828   21.0951   21.7115 H   0  0  0  0  0  0  0  0  0  0  0  0
   20.8572   21.7492   23.1250 H   0  0  0  0  0  0  0  0  0  0  0  0
   20.3612   19.6945   22.7052 C   0  0  0  0  0  0  0  0  0  0  0  0
   19.8572   19.4960   23.6506 H   0  0  0  0  0  0  0  0  0  0  0  0
   20.1055   18.9449   21.6287 C   0  0  0  0  0  0  0  0  0  0  0  0
   20.6122   19.1419   20.6846 H   0  0  0  0  0  0  0  0  0  0  0  0
   19.1299   17.7893   21.6120 C   0  0  0  0  0  0  0  0  0  0  0  0
   19.6009   16.9133   21.1458 H   0  0  0  0  0  0  0  0  0  0  0  0
   18.8636   17.4961   22.6368 H   0  0  0  0  0  0  0  0  0  0  0  0
   17.8492   18.1569   20.8376 C   0  0  0  0  0  0  0  0  0  0  0  0
   18.0820   18.4178   19.7968 H   0  0  0  0  0  0  0  0  0  0  0  0
   17.1455   17.3144   20.8282 H   0  0  0  0  0  0  0  0  0  0  0  0
   17.3462   19.0158   21.3012 H   0  0  0  0  0  0  0  0  0  0  0  0
  1  2  1  0  0  0  0
  1  3  2  0  0  0  0
  1  4  1  0  0  0  0
  4  5  1  0  0  0  0
  4  6  1  0  0  0  0
  4  7  1  0  0  0  0
  7  8  1  0  0  0  0
  7  9  2  0  0  0  0
  9 10  1  0  0  0  0
  9 11  1  0  0  0  0
 11 12  1  0  0  0  0
 11 13  1  0  0  0  0
 11 14  1  0  0  0  0
 14 15  1  0  0  0  0
 14 16  1  0  0  0  0
 14 17  1  0  0  0  0
M  END
> <VConfSearch Rank>
377

> <Conf_Id>
35

> <Delta U+W>
-0.102

> <U+W>
-49.529

> <U>
13.666

> <W>
-63.195

> <W(PB)>
-65.299

> <W(SA)>
2.103

> <Valence>
15.226

> <Coulomb>
-1.822

> <VdW>
0.261

> <VdW6>
-4.165

> <VdW12>
4.426

> <Bond>
0.044

> <Angle>
2.229

> <Pdih>
12.953

> <Idih>
0.000

> <Tether>
0.000

$$$$
VeraChem MOL file


 17 16  0  0  0  0  0  0  0  0999 V2000     
   21.1307   16.3922   21.4585 C   0  0  0  0  0  0  0  0  0  0  0  0
   20.9844   16.2215   20.2642 O   0  5  0  0  0  0  0  0  0  0  0  0
   22.1374   16.0802   22.0635 O   0  0  0  0  0  0  0  0  0  0  0  0
   19.9852   17.0230   22.2394 C   0  0  0  0  0  0  0  0  0  0  0  0
   20.0785   16.7206   23.2893 H   0  0  0  0  0  0  0  0  0  0  0  0
   19.0486   16.5944   21.8645 H   0  0  0  0  0  0  0  0  0  0  0  0
   19.9557   18.5340   22.1075 C   0  0  0  0  0  0  0  0  0  0  0  0
   19.7079   18.8984   21.1121 H   0  0  0  0  0  0  0  0  0  0  0  0
   20.2146   19.3770   23.1150 C   0  0  0  0  0  0  0  0  0  0  0  0
   20.4633   18.9752   24.0967 H   0  0  0  0  0  0  0  0  0  0  0  0
   20.2066   20.8951   23.0529 C   0  0  0  0  0  0  0  0  0  0  0  0
   19.4928   21.2788   23.7944 H   0  0  0  0  0  0  0  0  0  0  0  0
   21.1898   21.2698   23.3684 H   0  0  0  0  0  0  0  0  0  0  0  0
   19.8627   21.4894   21.6692 C   0  0  0  0  0  0  0  0  0  0  0  0
   18.8608   21.1788   21.3450 H   0  0  0  0  0  0  0  0  0  0  0  0
   19.8788   22.5863   21.7066 H   0  0  0  0  0  0  0  0  0  0  0  0
   20.5891   21.1683   20.9111 H   0  0  0  0  0  0  0  0  0  0  0  0
  1  2  1  0  0  0  0
  1  3  2  0  0  0  0
  1  4  1  0  0  0  0
  4  5  1  0  0  0  0
  4  6  1  0  0  0  0
  4  7  1  0  0  0  0
  7  8  1  0  0  0  0
  7  9  2  0  0  0  0
  9 10  1  0  0  0  0
  9 11  1  0  0  0  0
 11 12  1  0  0  0  0
 11 13  1  0  0  0  0
 11 14  1  0  0  0  0
 14 15  1  0  0  0  0
 14 16  1  0  0  0  0
 14 17  1  0  0  0  0
M  END
> <VConfSearch Rank>
378

> <Conf_Id>
19

> <Delta U+W>
-0.496

> <U+W>
-49.923

> <U>
13.863

> <W>
-63.786

> <W(PB)>
-65.856

> <W(SA)>
2.070

> <Valence>
14.117

> <Coulomb>
-1.228

> <VdW>
0.974

> <VdW6>
-4.885

> <VdW12>
5.859

> <Bond>
0.094

> <Angle>
2.818

> <Pdih>
11.205

> <Idih>
0.000

> <Tether>
0.000

$$$$
VeraChem MOL file


 17 16  0  0  0  0  0  0  0  0999 V2000     
   18.2235   20.9443   21.0521 C   0  0  0  0  0  0  0  0  0  0  0  0
   18.0872   21.7578   21.9445 O   0  5  0  0  0  0  0  0  0  0  0  0
   18.3934   21.2466   19.8874 O   0  0  0  0  0  0  0  0  0  0  0  0
   18.1682   19.4646   21.4089 C   0  0  0  0  0  0  0  0  0  0  0  0
   17.5799   18.9559   20.6365 H   0  0  0  0  0  0  0  0  0  0  0  0
   17.6187   19.3593   22.3521 H   0  0  0  0  0  0  0  0  0  0  0  0
   19.5465   18.8395   21.5100 C   0  0  0  0  0  0  0  0  0  0  0  0
   20.0944   18.7674   20.5710 H   0  0  0  0  0  0  0  0  0  0  0  0
   20.0915   18.4027   22.6495 C   0  0  0  0  0  0  0  0  0  0  0  0
   19.5452   18.4798   23.5890 H   0  0  0  0  0  0  0  0  0  0  0  0
   21.4673   17.7824   22.7485 C   0  0  0  0  0  0  0  0  0  0  0  0
   21.4139   16.8524   23.3307 H   0  0  0  0  0  0  0  0  0  0  0  0
   21.8385   17.5093   21.7512 H   0  0  0  0  0  0  0  0  0  0  0  0
   22.4638   18.7500   23.4161 C   0  0  0  0  0  0  0  0  0  0  0  0
   22.1369   19.0100   24.4314 H   0  0  0  0  0  0  0  0  0  0  0  0
   23.4605   18.2951   23.4850 H   0  0  0  0  0  0  0  0  0  0  0  0
   22.5523   19.6788   22.8371 H   0  0  0  0  0  0  0  0  0  0  0  0
  1  2  1  0  0  0  0
  1  3  2  0  0  0  0
  1  4  1  0  0  0  0
  4  5  1  0  0  0  0
  4  6  1  0  0  0  0
  4  7  1  0  0  0  0
  7  8  1  0  0  0  0
  7  9  2  0  0  0  0
  9 10  1  0  0  0  0
  9 11  1  0  0  0  0
 11 12  1  0  0  0  0
 11 13  1  0  0  0  0
 11 14  1  0  0  0  0
 14 15  1  0  0  0  0
 14 16  1  0  0  0  0
 14 17  1  0  0  0  0
M  END
> <VConfSearch Rank>
379

> <Conf_Id>
7

> <Delta U+W>
-0.041

> <U+W>
-49.468

> <U>
14.121

> <W>
-63.589

> <W(PB)>
-65.660

> <W(SA)>
2.071

> <Valence>
15.230

> <Coulomb>
-1.333

> <VdW>
0.224

> <VdW6>
-4.212

> <VdW12>
4.436

> <Bond>
0.044

> <Angle>
2.230

> <Pdih>
12.956

> <Idih>
0.000

> <Tether>
0.000

$$$$
VeraChem MOL file


 17 16  0  0  0  0  0  0  0  0999 V2000     
   19.4251   16.6128   22.0328 C   0  0  0  0  0  0  0  0  0  0  0  0
   19.4914   16.2543   23.1921 O   0  5  0  0  0  0  0  0  0  0  0  0
   20.0142   16.0604   21.1246 O   0  0  0  0  0  0  0  0  0  0  0  0
   18.5323   17.8030   21.6951 C   0  0  0  0  0  0  0  0  0  0  0  0
   17.6900   17.8013   22.3967 H   0  0  0  0  0  0  0  0  0  0  0  0
   18.0991   17.6271   20.7036 H   0  0  0  0  0  0  0  0  0  0  0  0
   19.2141   19.1637   21.7200 C   0  0  0  0  0  0  0  0  0  0  0  0
   18.5591   19.9991   21.4760 H   0  0  0  0  0  0  0  0  0  0  0  0
   20.5003   19.3939   22.0092 C   0  0  0  0  0  0  0  0  0  0  0  0
   21.1764   18.5766   22.2574 H   0  0  0  0  0  0  0  0  0  0  0  0
   21.1304   20.7690   22.0185 C   0  0  0  0  0  0  0  0  0  0  0  0
   22.0728   20.7484   21.4545 H   0  0  0  0  0  0  0  0  0  0  0  0
   20.4777   21.4952   21.5149 H   0  0  0  0  0  0  0  0  0  0  0  0
   21.4042   21.2427   23.4592 C   0  0  0  0  0  0  0  0  0  0  0  0
   21.8626   22.2402   23.4599 H   0  0  0  0  0  0  0  0  0  0  0  0
   20.4714   21.2958   24.0359 H   0  0  0  0  0  0  0  0  0  0  0  0
   22.0862   20.5538   23.9749 H   0  0  0  0  0  0  0  0  0  0  0  0
  1  2  1  0  0  0  0
  1  3  2  0  0  0  0
  1  4  1  0  0  0  0
  4  5  1  0  0  0  0
  4  6  1  0  0  0  0
  4  7  1  0  0  0  0
  7  8  1  0  0  0  0
  7  9  2  0  0  0  0
  9 10  1  0  0  0  0
  9 11  1  0  0  0  0
 11 12  1  0  0  0  0
 11 13  1  0  0  0  0
 11 14  1  0  0  0  0
 14 15  1  0  0  0  0
 14 16  1  0  0  0  0
 14 17  1  0  0  0  0
M  END
> <VConfSearch Rank>
380

> <Conf_Id>
39

> <Delta U+W>
-0.422

> <U+W>
-49.849

> <U>
14.465

> <W>
-64.314

> <W(PB)>
-66.406

> <W(SA)>
2.093

> <Valence>
14.072

> <Coulomb>
-0.199

> <VdW>
0.592

> <VdW6>
-5.019

> <VdW12>
5.611

> <Bond>
0.085

> <Angle>
2.748

> <Pdih>
11.238

> <Idih>
0.001

> <Tether>
0.000

$$$$
VeraChem MOL file


 17 16  0  0  0  0  0  0  0  0999 V2000     
   19.6025   18.2038   19.1701 C   0  0  0  0  0  0  0  0  0  0  0  0
   20.5887   17.9427   18.5097 O   0  5  0  0  0  0  0  0  0  0  0  0
   18.6130   18.7434   18.7157 O   0  0  0  0  0  0  0  0  0  0  0  0
   19.6069   17.8286   20.6462 C   0  0  0  0  0  0  0  0  0  0  0  0
   20.0709   16.8399   20.7391 H   0  0  0  0  0  0  0  0  0  0  0  0
   18.5664   17.7270   20.9775 H   0  0  0  0  0  0  0  0  0  0  0  0
   20.3533   18.8364   21.4995 C   0  0  0  0  0  0  0  0  0  0  0  0
   21.4298   18.8770   21.3365 H   0  0  0  0  0  0  0  0  0  0  0  0
   19.7714   19.6381   22.3966 C   0  0  0  0  0  0  0  0  0  0  0  0
   18.6945   19.5991   22.5570 H   0  0  0  0  0  0  0  0  0  0  0  0
   20.5168   20.6451   23.2439 C   0  0  0  0  0  0  0  0  0  0  0  0
   21.5296   20.8050   22.8490 H   0  0  0  0  0  0  0  0  0  0  0  0
   20.0051   21.6161   23.2016 H   0  0  0  0  0  0  0  0  0  0  0  0
   20.6087   20.1761   24.7090 C   0  0  0  0  0  0  0  0  0  0  0  0
   21.1400   19.2178   24.7791 H   0  0  0  0  0  0  0  0  0  0  0  0
   21.1499   20.9111   25.3190 H   0  0  0  0  0  0  0  0  0  0  0  0
   19.6082   20.0450   25.1418 H   0  0  0  0  0  0  0  0  0  0  0  0
  1  2  1  0  0  0  0
  1  3  2  0  0  0  0
  1  4  1  0  0  0  0
  4  5  1  0  0  0  0
  4  6  1  0  0  0  0
  4  7  1  0  0  0  0
  7  8  1  0  0  0  0
  7  9  2  0  0  0  0
  9 10  1  0  0  0  0
  9 11  1  0  0  0  0
 11 12  1  0  0  0  0
 11 13  1  0  0  0  0
 11 14  1  0  0  0  0
 14 15  1  0  0  0  0
 14 16  1  0  0  0  0
 14 17  1  0  0  0  0
M  END
> <VConfSearch Rank>
381

> <Conf_Id>
38

> <Delta U+W>
0.000

> <U+W>
-49.427

> <U>
13.666

> <W>
-63.093

> <W(PB)>
-65.225

> <W(SA)>
2.132

> <Valence>
15.226

> <Coulomb>
-1.822

> <VdW>
0.261

> <VdW6>
-4.165

> <VdW12>
4.426

> <Bond>
0.044

> <Angle>
2.229

> <Pdih>
12.953

> <Idih>
0.000

> <Tether>
0.000

$$$$
VeraChem MOL file


 17 16  0  0  0  0  0  0  0  0999 V2000     
   19.0889   21.7689   23.7683 C   0  0  0  0  0  0  0  0  0  0  0  0
   17.8741   21.7993   23.7508 O   0  5  0  0  0  0  0  0  0  0  0  0
   19.7866   22.7630   23.7245 O   0  0  0  0  0  0  0  0  0  0  0  0
   19.7762   20.4126   23.8553 C   0  0  0  0  0  0  0  0  0  0  0  0
   19.0733   19.6999   24.3032 H   0  0  0  0  0  0  0  0  0  0  0  0
   20.6204   20.5087   24.5478 H   0  0  0  0  0  0  0  0  0  0  0  0
   20.2632   19.9206   22.5056 C   0  0  0  0  0  0  0  0  0  0  0  0
   21.0820   20.4925   22.0699 H   0  0  0  0  0  0  0  0  0  0  0  0
   19.7516   18.8677   21.8607 C   0  0  0  0  0  0  0  0  0  0  0  0
   18.9309   18.2982   22.2955 H   0  0  0  0  0  0  0  0  0  0  0  0
   20.2359   18.3809   20.5132 C   0  0  0  0  0  0  0  0  0  0  0  0
   19.3777   18.2203   19.8467 H   0  0  0  0  0  0  0  0  0  0  0  0
   20.8688   19.1410   20.0346 H   0  0  0  0  0  0  0  0  0  0  0  0
   21.0316   17.0684   20.6516 C   0  0  0  0  0  0  0  0  0  0  0  0
   20.4101   16.2782   21.0930 H   0  0  0  0  0  0  0  0  0  0  0  0
   21.3797   16.7198   19.6706 H   0  0  0  0  0  0  0  0  0  0  0  0
   21.9105   17.2112   21.2941 H   0  0  0  0  0  0  0  0  0  0  0  0
  1  2  1  0  0  0  0
  1  3  2  0  0  0  0
  1  4  1  0  0  0  0
  4  5  1  0  0  0  0
  4  6  1  0  0  0  0
  4  7  1  0  0  0  0
  7  8  1  0  0  0  0
  7  9  2  0  0  0  0
  9 10  1  0  0  0  0
  9 11  1  0  0  0  0
 11 12  1  0  0  0  0
 11 13  1  0  0  0  0
 11 14  1  0  0  0  0
 14 15  1  0  0  0  0
 14 16  1  0  0  0  0
 14 17  1  0  0  0  0
M  END
> <VConfSearch Rank>
382

> <Conf_Id>
35

> <Delta U+W>
-0.102

> <U+W>
-49.529

> <U>
13.666

> <W>
-63.195

> <W(PB)>
-65.299

> <W(SA)>
2.103

> <Valence>
15.226

> <Coulomb>
-1.822

> <VdW>
0.261

> <VdW6>
-4.165

> <VdW12>
4.426

> <Bond>
0.044

> <Angle>
2.229

> <Pdih>
12.953

> <Idih>
0.000

> <Tether>
0.000

$$$$
VeraChem MOL file


 17 16  0  0  0  0  0  0  0  0999 V2000     
   22.8208   18.9447   23.5935 C   0  0  0  0  0  0  0  0  0  0  0  0
   22.7897   19.6201   24.6034 O   0  5  0  0  0  0  0  0  0  0  0  0
   23.2803   17.8205   23.5508 O   0  0  0  0  0  0  0  0  0  0  0  0
   22.2616   19.5454   22.3105 C   0  0  0  0  0  0  0  0  0  0  0  0
   22.7329   19.0378   21.4603 H   0  0  0  0  0  0  0  0  0  0  0  0
   22.5728   20.5956   22.2692 H   0  0  0  0  0  0  0  0  0  0  0  0
   20.7496   19.4471   22.2344 C   0  0  0  0  0  0  0  0  0  0  0  0
   20.2175   20.0608   22.9592 H   0  0  0  0  0  0  0  0  0  0  0  0
   20.0943   18.6724   21.3609 C   0  0  0  0  0  0  0  0  0  0  0  0
   20.6612   18.0684   20.6531 H   0  0  0  0  0  0  0  0  0  0  0  0
   18.5877   18.5234   21.2322 C   0  0  0  0  0  0  0  0  0  0  0  0
   18.2894   18.7869   20.2084 H   0  0  0  0  0  0  0  0  0  0  0  0
   18.3228   17.4644   21.3534 H   0  0  0  0  0  0  0  0  0  0  0  0
   17.7616   19.3655   22.2294 C   0  0  0  0  0  0  0  0  0  0  0  0
   17.9610   20.4373   22.0998 H   0  0  0  0  0  0  0  0  0  0  0  0
   16.6874   19.2023   22.0735 H   0  0  0  0  0  0  0  0  0  0  0  0
   17.9963   19.0905   23.2661 H   0  0  0  0  0  0  0  0  0  0  0  0
  1  2  1  0  0  0  0
  1  3  2  0  0  0  0
  1  4  1  0  0  0  0
  4  5  1  0  0  0  0
  4  6  1  0  0  0  0
  4  7  1  0  0  0  0
  7  8  1  0  0  0  0
  7  9  2  0  0  0  0
  9 10  1  0  0  0  0
  9 11  1  0  0  0  0
 11 12  1  0  0  0  0
 11 13  1  0  0  0  0
 11 14  1  0  0  0  0
 14 15  1  0  0  0  0
 14 16  1  0  0  0  0
 14 17  1  0  0  0  0
M  END
> <VConfSearch Rank>
383

> <Conf_Id>
19

> <Delta U+W>
-0.496

> <U+W>
-49.923

> <U>
13.863

> <W>
-63.786

> <W(PB)>
-65.856

> <W(SA)>
2.070

> <Valence>
14.117

> <Coulomb>
-1.228

> <VdW>
0.974

> <VdW6>
-4.885

> <VdW12>
5.859

> <Bond>
0.094

> <Angle>
2.818

> <Pdih>
11.205

> <Idih>
0.000

> <Tether>
0.000

$$$$
VeraChem MOL file


 17 16  0  0  0  0  0  0  0  0999 V2000     
   22.3797   20.8930   21.6297 C   0  0  0  0  0  0  0  0  0  0  0  0
   22.7239   20.5363   20.5202 O   0  5  0  0  0  0  0  0  0  0  0  0
   22.2198   22.0566   21.9420 O   0  0  0  0  0  0  0  0  0  0  0  0
   22.1459   19.8263   22.6914 C   0  0  0  0  0  0  0  0  0  0  0  0
   22.5786   20.1888   23.6310 H   0  0  0  0  0  0  0  0  0  0  0  0
   22.7068   18.9284   22.4051 H   0  0  0  0  0  0  0  0  0  0  0  0
   20.6748   19.5102   22.8832 C   0  0  0  0  0  0  0  0  0  0  0  0
   20.0791   20.3136   23.3155 H   0  0  0  0  0  0  0  0  0  0  0  0
   20.1071   18.3465   22.5521 C   0  0  0  0  0  0  0  0  0  0  0  0
   20.7023   17.5453   22.1150 H   0  0  0  0  0  0  0  0  0  0  0  0
   18.6394   18.0344   22.7414 C   0  0  0  0  0  0  0  0  0  0  0  0
   18.5279   17.0562   23.2285 H   0  0  0  0  0  0  0  0  0  0  0  0
   18.1721   18.7733   23.4069 H   0  0  0  0  0  0  0  0  0  0  0  0
   17.8973   18.0236   21.3908 C   0  0  0  0  0  0  0  0  0  0  0  0
   18.3195   17.2656   20.7180 H   0  0  0  0  0  0  0  0  0  0  0  0
   16.8328   17.7971   21.5340 H   0  0  0  0  0  0  0  0  0  0  0  0
   17.9744   19.0008   20.8960 H   0  0  0  0  0  0  0  0  0  0  0  0
  1  2  1  0  0  0  0
  1  3  2  0  0  0  0
  1  4  1  0  0  0  0
  4  5  1  0  0  0  0
  4  6  1  0  0  0  0
  4  7  1  0  0  0  0
  7  8  1  0  0  0  0
  7  9  2  0  0  0  0
  9 10  1  0  0  0  0
  9 11  1  0  0  0  0
 11 12  1  0  0  0  0
 11 13  1  0  0  0  0
 11 14  1  0  0  0  0
 14 15  1  0  0  0  0
 14 16  1  0  0  0  0
 14 17  1  0  0  0  0
M  END
> <VConfSearch Rank>
384

> <Conf_Id>
7

> <Delta U+W>
-0.041

> <U+W>
-49.468

> <U>
14.121

> <W>
-63.589

> <W(PB)>
-65.660

> <W(SA)>
2.071

> <Valence>
15.230

> <Coulomb>
-1.333

> <VdW>
0.224

> <VdW6>
-4.212

> <VdW12>
4.436

> <Bond>
0.044

> <Angle>
2.230

> <Pdih>
12.956

> <Idih>
0.000

> <Tether>
0.000

$$$$
VeraChem MOL file


 17 16  0  0  0  0  0  0  0  0999 V2000     
   20.8633   18.4339   24.7931 C   0  0  0  0  0  0  0  0  0  0  0  0
   20.8893   17.2289   24.6372 O   0  5  0  0  0  0  0  0  0  0  0  0
   20.2187   18.9844   25.6640 O   0  0  0  0  0  0  0  0  0  0  0  0
   21.7070   19.3005   23.8631 C   0  0  0  0  0  0  0  0  0  0  0  0
   22.5988   18.7265   23.5857 H   0  0  0  0  0  0  0  0  0  0  0  0
   22.0688   20.1591   24.4407 H   0  0  0  0  0  0  0  0  0  0  0  0
   21.0045   19.7913   22.6052 C   0  0  0  0  0  0  0  0  0  0  0  0
   21.6246   20.4080   21.9557 H   0  0  0  0  0  0  0  0  0  0  0  0
   19.7392   19.5284   22.2573 C   0  0  0  0  0  0  0  0  0  0  0  0
   19.0982   18.9138   22.8883 H   0  0  0  0  0  0  0  0  0  0  0  0
   19.0869   20.0432   20.9935 C   0  0  0  0  0  0  0  0  0  0  0  0
   18.1059   20.4756   21.2326 H   0  0  0  0  0  0  0  0  0  0  0  0
   19.6874   20.8498   20.5510 H   0  0  0  0  0  0  0  0  0  0  0  0
   18.9118   18.9126   19.9608 C   0  0  0  0  0  0  0  0  0  0  0  0
   18.4368   19.2914   19.0465 H   0  0  0  0  0  0  0  0  0  0  0  0
   19.8836   18.4814   19.6866 H   0  0  0  0  0  0  0  0  0  0  0  0
   18.2824   18.1083   20.3638 H   0  0  0  0  0  0  0  0  0  0  0  0
  1  2  1  0  0  0  0
  1  3  2  0  0  0  0
  1  4  1  0  0  0  0
  4  5  1  0  0  0  0
  4  6  1  0  0  0  0
  4  7  1  0  0  0  0
  7  8  1  0  0  0  0
  7  9  2  0  0  0  0
  9 10  1  0  0  0  0
  9 11  1  0  0  0  0
 11 12  1  0  0  0  0
 11 13  1  0  0  0  0
 11 14  1  0  0  0  0
 14 15  1  0  0  0  0
 14 16  1  0  0  0  0
 14 17  1  0  0  0  0
M  END
> <VConfSearch Rank>
385

> <Conf_Id>
39

> <Delta U+W>
-0.422

> <U+W>
-49.849

> <U>
14.465

> <W>
-64.314

> <W(PB)>
-66.406

> <W(SA)>
2.093

> <Valence>
14.072

> <Coulomb>
-0.199

> <VdW>
0.592

> <VdW6>
-5.019

> <VdW12>
5.611

> <Bond>
0.085

> <Angle>
2.748

> <Pdih>
11.238

> <Idih>
0.001

> <Tether>
0.000

$$$$
VeraChem MOL file


 17 16  0  0  0  0  0  0  0  0999 V2000     
   19.7071   21.6774   24.1246 C   0  0  0  0  0  0  0  0  0  0  0  0
   18.5609   22.0168   24.3433 O   0  5  0  0  0  0  0  0  0  0  0  0
   20.6274   22.4610   23.9980 O   0  0  0  0  0  0  0  0  0  0  0  0
   20.0053   20.1884   24.0086 C   0  0  0  0  0  0  0  0  0  0  0  0
   19.4287   19.6700   24.7833 H   0  0  0  0  0  0  0  0  0  0  0  0
   21.0659   20.0318   24.2394 H   0  0  0  0  0  0  0  0  0  0  0  0
   19.6585   19.6314   22.6410 C   0  0  0  0  0  0  0  0  0  0  0  0
   18.5950   19.6054   22.4054 H   0  0  0  0  0  0  0  0  0  0  0  0
   20.5609   19.1954   21.7567 C   0  0  0  0  0  0  0  0  0  0  0  0
   21.6243   19.2244   21.9917 H   0  0  0  0  0  0  0  0  0  0  0  0
   20.2135   18.6438   20.3920 C   0  0  0  0  0  0  0  0  0  0  0  0
   19.1730   18.8843   20.1337 H   0  0  0  0  0  0  0  0  0  0  0  0
   20.8453   19.1179   19.6288 H   0  0  0  0  0  0  0  0  0  0  0  0
   20.4105   17.1161   20.3455 C   0  0  0  0  0  0  0  0  0  0  0  0
   19.7687   16.6175   21.0838 H   0  0  0  0  0  0  0  0  0  0  0  0
   20.1576   16.7217   19.3528 H   0  0  0  0  0  0  0  0  0  0  0  0
   21.4530   16.8488   20.5627 H   0  0  0  0  0  0  0  0  0  0  0  0
  1  2  1  0  0  0  0
  1  3  2  0  0  0  0
  1  4  1  0  0  0  0
  4  5  1  0  0  0  0
  4  6  1  0  0  0  0
  4  7  1  0  0  0  0
  7  8  1  0  0  0  0
  7  9  2  0  0  0  0
  9 10  1  0  0  0  0
  9 11  1  0  0  0  0
 11 12  1  0  0  0  0
 11 13  1  0  0  0  0
 11 14  1  0  0  0  0
 14 15  1  0  0  0  0
 14 16  1  0  0  0  0
 14 17  1  0  0  0  0
M  END
> <VConfSearch Rank>
386

> <Conf_Id>
38

> <Delta U+W>
0.000

> <U+W>
-49.427

> <U>
13.666

> <W>
-63.093

> <W(PB)>
-65.225

> <W(SA)>
2.132

> <Valence>
15.226

> <Coulomb>
-1.822

> <VdW>
0.261

> <VdW6>
-4.165

> <VdW12>
4.426

> <Bond>
0.044

> <Angle>
2.229

> <Pdih>
12.953

> <Idih>
0.000

> <Tether>
0.000

$$$$
VeraChem MOL file


 17 16  0  0  0  0  0  0  0  0999 V2000     
   23.0142   20.3823   21.6579 C   0  0  0  0  0  0  0  0  0  0  0  0
   23.5589   20.5126   22.7363 O   0  5  0  0  0  0  0  0  0  0  0  0
   23.1657   21.1535   20.7309 O   0  0  0  0  0  0  0  0  0  0  0  0
   22.0954   19.1850   21.4528 C   0  0  0  0  0  0  0  0  0  0  0  0
   22.3867   18.4032   22.1645 H   0  0  0  0  0  0  0  0  0  0  0  0
   22.2807   18.7889   20.4477 H   0  0  0  0  0  0  0  0  0  0  0  0
   20.6300   19.5439   21.6091 C   0  0  0  0  0  0  0  0  0  0  0  0
   20.2258   20.1961   20.8355 H   0  0  0  0  0  0  0  0  0  0  0  0
   19.8543   19.1156   22.6097 C   0  0  0  0  0  0  0  0  0  0  0  0
   20.2599   18.4660   23.3847 H   0  0  0  0  0  0  0  0  0  0  0  0
   18.3943   19.4777   22.7661 C   0  0  0  0  0  0  0  0  0  0  0  0
   18.2025   19.8076   23.7961 H   0  0  0  0  0  0  0  0  0  0  0  0
   18.1352   20.3212   22.1114 H   0  0  0  0  0  0  0  0  0  0  0  0
   17.4872   18.2769   22.4340 C   0  0  0  0  0  0  0  0  0  0  0  0
   17.6987   17.4301   23.1001 H   0  0  0  0  0  0  0  0  0  0  0  0
   16.4291   18.5455   22.5499 H   0  0  0  0  0  0  0  0  0  0  0  0
   17.6430   17.9451   21.3990 H   0  0  0  0  0  0  0  0  0  0  0  0
  1  2  1  0  0  0  0
  1  3  2  0  0  0  0
  1  4  1  0  0  0  0
  4  5  1  0  0  0  0
  4  6  1  0  0  0  0
  4  7  1  0  0  0  0
  7  8  1  0  0  0  0
  7  9  2  0  0  0  0
  9 10  1  0  0  0  0
  9 11  1  0  0  0  0
 11 12  1  0  0  0  0
 11 13  1  0  0  0  0
 11 14  1  0  0  0  0
 14 15  1  0  0  0  0
 14 16  1  0  0  0  0
 14 17  1  0  0  0  0
M  END
> <VConfSearch Rank>
387

> <Conf_Id>
35

> <Delta U+W>
-0.102

> <U+W>
-49.529

> <U>
13.666

> <W>
-63.195

> <W(PB)>
-65.299

> <W(SA)>
2.103

> <Valence>
15.226

> <Coulomb>
-1.822

> <VdW>
0.261

> <VdW6>
-4.165

> <VdW12>
4.426

> <Bond>
0.044

> <Angle>
2.229

> <Pdih>
12.953

> <Idih>
0.000

> <Tether>
0.000

$$$$
VeraChem MOL file


 17 16  0  0  0  0  0  0  0  0999 V2000     
   18.1876   18.3542   20.2011 C   0  0  0  0  0  0  0  0  0  0  0  0
   18.6936   17.6718   19.3320 O   0  5  0  0  0  0  0  0  0  0  0  0
   17.1235   18.0926   20.7266 O   0  0  0  0  0  0  0  0  0  0  0  0
   18.9242   19.6102   20.6478 C   0  0  0  0  0  0  0  0  0  0  0  0
   18.1906   20.3045   21.0747 H   0  0  0  0  0  0  0  0  0  0  0  0
   19.3381   20.0912   19.7540 H   0  0  0  0  0  0  0  0  0  0  0  0
   20.0333   19.3112   21.6388 C   0  0  0  0  0  0  0  0  0  0  0  0
   20.8734   18.7552   21.2263 H   0  0  0  0  0  0  0  0  0  0  0  0
   20.0064   19.6832   22.9247 C   0  0  0  0  0  0  0  0  0  0  0  0
   19.1463   20.2348   23.3029 H   0  0  0  0  0  0  0  0  0  0  0  0
   21.0764   19.4151   23.9696 C   0  0  0  0  0  0  0  0  0  0  0  0
   21.4140   20.3728   24.3883 H   0  0  0  0  0  0  0  0  0  0  0  0
   20.6257   18.8686   24.8090 H   0  0  0  0  0  0  0  0  0  0  0  0
   22.3039   18.6286   23.4590 C   0  0  0  0  0  0  0  0  0  0  0  0
   22.8131   19.1729   22.6529 H   0  0  0  0  0  0  0  0  0  0  0  0
   23.0274   18.4753   24.2702 H   0  0  0  0  0  0  0  0  0  0  0  0
   22.0093   17.6410   23.0804 H   0  0  0  0  0  0  0  0  0  0  0  0
  1  2  1  0  0  0  0
  1  3  2  0  0  0  0
  1  4  1  0  0  0  0
  4  5  1  0  0  0  0
  4  6  1  0  0  0  0
  4  7  1  0  0  0  0
  7  8  1  0  0  0  0
  7  9  2  0  0  0  0
  9 10  1  0  0  0  0
  9 11  1  0  0  0  0
 11 12  1  0  0  0  0
 11 13  1  0  0  0  0
 11 14  1  0  0  0  0
 14 15  1  0  0  0  0
 14 16  1  0  0  0  0
 14 17  1  0  0  0  0
M  END
> <VConfSearch Rank>
388

> <Conf_Id>
19

> <Delta U+W>
-0.496

> <U+W>
-49.923

> <U>
13.863

> <W>
-63.786

> <W(PB)>
-65.856

> <W(SA)>
2.070

> <Valence>
14.117

> <Coulomb>
-1.228

> <VdW>
0.974

> <VdW6>
-4.885

> <VdW12>
5.859

> <Bond>
0.094

> <Angle>
2.818

> <Pdih>
11.205

> <Idih>
0.000

> <Tether>
0.000

$$$$
VeraChem MOL file


 17 16  0  0  0  0  0  0  0  0999 V2000     
   17.8664   17.2460   22.4622 C   0  0  0  0  0  0  0  0  0  0  0  0
   17.2107   17.7758   23.3376 O   0  5  0  0  0  0  0  0  0  0  0  0
   17.3899   16.8289   21.4249 O   0  0  0  0  0  0  0  0  0  0  0  0
   19.3653   17.0854   22.6793 C   0  0  0  0  0  0  0  0  0  0  0  0
   19.6492   16.0867   22.3277 H   0  0  0  0  0  0  0  0  0  0  0  0
   19.5609   17.1134   23.7580 H   0  0  0  0  0  0  0  0  0  0  0  0
   20.1741   18.1429   21.9525 C   0  0  0  0  0  0  0  0  0  0  0  0
   20.1522   18.0793   20.8650 H   0  0  0  0  0  0  0  0  0  0  0  0
   20.8713   19.1063   22.5624 C   0  0  0  0  0  0  0  0  0  0  0  0
   20.8887   19.1726   23.6497 H   0  0  0  0  0  0  0  0  0  0  0  0
   21.6748   20.1617   21.8357 C   0  0  0  0  0  0  0  0  0  0  0  0
   22.6770   20.2356   22.2791 H   0  0  0  0  0  0  0  0  0  0  0  0
   21.8156   19.8804   20.7829 H   0  0  0  0  0  0  0  0  0  0  0  0
   20.9783   21.5345   21.9078 C   0  0  0  0  0  0  0  0  0  0  0  0
   20.8593   21.8590   22.9499 H   0  0  0  0  0  0  0  0  0  0  0  0
   21.5653   22.2964   21.3786 H   0  0  0  0  0  0  0  0  0  0  0  0
   19.9824   21.4909   21.4475 H   0  0  0  0  0  0  0  0  0  0  0  0
  1  2  1  0  0  0  0
  1  3  2  0  0  0  0
  1  4  1  0  0  0  0
  4  5  1  0  0  0  0
  4  6  1  0  0  0  0
  4  7  1  0  0  0  0
  7  8  1  0  0  0  0
  7  9  2  0  0  0  0
  9 10  1  0  0  0  0
  9 11  1  0  0  0  0
 11 12  1  0  0  0  0
 11 13  1  0  0  0  0
 11 14  1  0  0  0  0
 14 15  1  0  0  0  0
 14 16  1  0  0  0  0
 14 17  1  0  0  0  0
M  END
> <VConfSearch Rank>
389

> <Conf_Id>
7

> <Delta U+W>
-0.041

> <U+W>
-49.468

> <U>
14.121

> <W>
-63.589

> <W(PB)>
-65.660

> <W(SA)>
2.071

> <Valence>
15.230

> <Coulomb>
-1.333

> <VdW>
0.224

> <VdW6>
-4.212

> <VdW12>
4.436

> <Bond>
0.044

> <Angle>
2.230

> <Pdih>
12.956

> <Idih>
0.000

> <Tether>
0.000

$$$$
VeraChem MOL file


 17 16  0  0  0  0  0  0  0  0999 V2000     
   22.6975   20.2541   22.5325 C   0  0  0  0  0  0  0  0  0  0  0  0
   23.2792   19.2690   22.9428 O   0  5  0  0  0  0  0  0  0  0  0  0
   22.7208   21.3307   23.0960 O   0  0  0  0  0  0  0  0  0  0  0  0
   21.9192   20.1406   21.2253 C   0  0  0  0  0  0  0  0  0  0  0  0
   22.4335   19.4100   20.5900 H   0  0  0  0  0  0  0  0  0  0  0  0
   21.9973   21.1015   20.7036 H   0  0  0  0  0  0  0  0  0  0  0  0
   20.4538   19.7532   21.3645 C   0  0  0  0  0  0  0  0  0  0  0  0
   19.9171   19.6780   20.4196 H   0  0  0  0  0  0  0  0  0  0  0  0
   19.8105   19.5083   22.5122 C   0  0  0  0  0  0  0  0  0  0  0  0
   20.3239   19.5756   23.4706 H   0  0  0  0  0  0  0  0  0  0  0  0
   18.3491   19.1273   22.5961 C   0  0  0  0  0  0  0  0  0  0  0  0
   17.8492   19.7419   23.3570 H   0  0  0  0  0  0  0  0  0  0  0  0
   17.8423   19.3320   21.6430 H   0  0  0  0  0  0  0  0  0  0  0  0
   18.1851   17.6366   22.9509 C   0  0  0  0  0  0  0  0  0  0  0  0
   17.1229   17.3661   23.0119 H   0  0  0  0  0  0  0  0  0  0  0  0
   18.6557   17.0007   22.1895 H   0  0  0  0  0  0  0  0  0  0  0  0
   18.6503   17.4113   23.9196 H   0  0  0  0  0  0  0  0  0  0  0  0
  1  2  1  0  0  0  0
  1  3  2  0  0  0  0
  1  4  1  0  0  0  0
  4  5  1  0  0  0  0
  4  6  1  0  0  0  0
  4  7  1  0  0  0  0
  7  8  1  0  0  0  0
  7  9  2  0  0  0  0
  9 10  1  0  0  0  0
  9 11  1  0  0  0  0
 11 12  1  0  0  0  0
 11 13  1  0  0  0  0
 11 14  1  0  0  0  0
 14 15  1  0  0  0  0
 14 16  1  0  0  0  0
 14 17  1  0  0  0  0
M  END
> <VConfSearch Rank>
390

> <Conf_Id>
39

> <Delta U+W>
-0.422

> <U+W>
-49.849

> <U>
14.465

> <W>
-64.314

> <W(PB)>
-66.406

> <W(SA)>
2.093

> <Valence>
14.072

> <Coulomb>
-0.199

> <VdW>
0.592

> <VdW6>
-5.019

> <VdW12>
5.611

> <Bond>
0.085

> <Angle>
2.748

> <Pdih>
11.238

> <Idih>
0.001

> <Tether>
0.000

$$$$
VeraChem MOL file


 17 16  0  0  0  0  0  0  0  0999 V2000     
   19.8125   16.3815   23.3561 C   0  0  0  0  0  0  0  0  0  0  0  0
   19.0259   16.2656   24.2752 O   0  5  0  0  0  0  0  0  0  0  0  0
   20.8895   15.8198   23.3185 O   0  0  0  0  0  0  0  0  0  0  0  0
   19.4230   17.2756   22.1863 C   0  0  0  0  0  0  0  0  0  0  0  0
   18.3631   17.1001   21.9691 H   0  0  0  0  0  0  0  0  0  0  0  0
   19.9890   16.9525   21.3042 H   0  0  0  0  0  0  0  0  0  0  0  0
   19.6591   18.7458   22.4751 C   0  0  0  0  0  0  0  0  0  0  0  0
   19.0121   19.1798   23.2369 H   0  0  0  0  0  0  0  0  0  0  0  0
   20.5846   19.4920   21.8646 C   0  0  0  0  0  0  0  0  0  0  0  0
   21.2333   19.0567   21.1052 H   0  0  0  0  0  0  0  0  0  0  0  0
   20.8211   20.9570   22.1567 C   0  0  0  0  0  0  0  0  0  0  0  0
   20.3218   21.2482   23.0911 H   0  0  0  0  0  0  0  0  0  0  0  0
   21.8947   21.1371   22.3036 H   0  0  0  0  0  0  0  0  0  0  0  0
   20.3046   21.8417   21.0053 C   0  0  0  0  0  0  0  0  0  0  0  0
   19.2264   21.6975   20.8564 H   0  0  0  0  0  0  0  0  0  0  0  0
   20.4795   22.9034   21.2226 H   0  0  0  0  0  0  0  0  0  0  0  0
   20.8154   21.5979   20.0645 H   0  0  0  0  0  0  0  0  0  0  0  0
  1  2  1  0  0  0  0
  1  3  2  0  0  0  0
  1  4  1  0  0  0  0
  4  5  1  0  0  0  0
  4  6  1  0  0  0  0
  4  7  1  0  0  0  0
  7  8  1  0  0  0  0
  7  9  2  0  0  0  0
  9 10  1  0  0  0  0
  9 11  1  0  0  0  0
 11 12  1  0  0  0  0
 11 13  1  0  0  0  0
 11 14  1  0  0  0  0
 14 15  1  0  0  0  0
 14 16  1  0  0  0  0
 14 17  1  0  0  0  0
M  END
> <VConfSearch Rank>
391

> <Conf_Id>
38

> <Delta U+W>
0.000

> <U+W>
-49.427

> <U>
13.666

> <W>
-63.093

> <W(PB)>
-65.225

> <W(SA)>
2.132

> <Valence>
15.226

> <Coulomb>
-1.822

> <VdW>
0.261

> <VdW6>
-4.165

> <VdW12>
4.426

> <Bond>
0.044

> <Angle>
2.229

> <Pdih>
12.953

> <Idih>
0.000

> <Tether>
0.000

$$$$
VeraChem MOL file


 17 16  0  0  0  0  0  0  0  0999 V2000     
   18.4480   19.8862   24.7415 C   0  0  0  0  0  0  0  0  0  0  0  0
   18.9949   20.7866   25.3473 O   0  5  0  0  0  0  0  0  0  0  0  0
   17.9143   18.9385   25.2838 O   0  0  0  0  0  0  0  0  0  0  0  0
   18.4241   19.9496   23.2200 C   0  0  0  0  0  0  0  0  0  0  0  0
   18.5400   20.9976   22.9184 H   0  0  0  0  0  0  0  0  0  0  0  0
   17.4305   19.6282   22.8869 H   0  0  0  0  0  0  0  0  0  0  0  0
   19.4927   19.0799   22.5855 C   0  0  0  0  0  0  0  0  0  0  0  0
   19.3518   18.0065   22.7079 H   0  0  0  0  0  0  0  0  0  0  0  0
   20.5489   19.5546   21.9181 C   0  0  0  0  0  0  0  0  0  0  0  0
   20.6908   20.6282   21.7989 H   0  0  0  0  0  0  0  0  0  0  0  0
   21.6155   18.6860   21.2895 C   0  0  0  0  0  0  0  0  0  0  0  0
   22.6099   19.0573   21.5720 H   0  0  0  0  0  0  0  0  0  0  0  0
   21.5445   17.6565   21.6668 H   0  0  0  0  0  0  0  0  0  0  0  0
   21.4879   18.6763   19.7537 C   0  0  0  0  0  0  0  0  0  0  0  0
   21.5936   19.6900   19.3455 H   0  0  0  0  0  0  0  0  0  0  0  0
   22.2648   18.0450   19.3033 H   0  0  0  0  0  0  0  0  0  0  0  0
   20.5095   18.2840   19.4463 H   0  0  0  0  0  0  0  0  0  0  0  0
  1  2  1  0  0  0  0
  1  3  2  0  0  0  0
  1  4  1  0  0  0  0
  4  5  1  0  0  0  0
  4  6  1  0  0  0  0
  4  7  1  0  0  0  0
  7  8  1  0  0  0  0
  7  9  2  0  0  0  0
  9 10  1  0  0  0  0
  9 11  1  0  0  0  0
 11 12  1  0  0  0  0
 11 13  1  0  0  0  0
 11 14  1  0  0  0  0
 14 15  1  0  0  0  0
 14 16  1  0  0  0  0
 14 17  1  0  0  0  0
M  END
> <VConfSearch Rank>
392

> <Conf_Id>
35

> <Delta U+W>
-0.102

> <U+W>
-49.529

> <U>
13.666

> <W>
-63.195

> <W(PB)>
-65.299

> <W(SA)>
2.103

> <Valence>
15.226

> <Coulomb>
-1.822

> <VdW>
0.261

> <VdW6>
-4.165

> <VdW12>
4.426

> <Bond>
0.044

> <Angle>
2.229

> <Pdih>
12.953

> <Idih>
0.000

> <Tether>
0.000

$$$$
VeraChem MOL file


 17 16  0  0  0  0  0  0  0  0999 V2000     
   21.4724   21.0456   20.3717 C   0  0  0  0  0  0  0  0  0  0  0  0
   20.9450   20.9816   19.2786 O   0  5  0  0  0  0  0  0  0  0  0  0
   21.7197   22.0919   20.9382 O   0  0  0  0  0  0  0  0  0  0  0  0
   21.8516   19.7427   21.0632 C   0  0  0  0  0  0  0  0  0  0  0  0
   22.6601   19.9541   21.7733 H   0  0  0  0  0  0  0  0  0  0  0  0
   22.2612   19.0672   20.3033 H   0  0  0  0  0  0  0  0  0  0  0  0
   20.6719   19.0898   21.7585 C   0  0  0  0  0  0  0  0  0  0  0  0
   19.9017   18.7122   21.0883 H   0  0  0  0  0  0  0  0  0  0  0  0
   20.5567   18.9775   23.0877 C   0  0  0  0  0  0  0  0  0  0  0  0
   21.3461   19.3715   23.7271 H   0  0  0  0  0  0  0  0  0  0  0  0
   19.4055   18.3415   23.8485 C   0  0  0  0  0  0  0  0  0  0  0  0
   19.7987   17.5338   24.4806 H   0  0  0  0  0  0  0  0  0  0  0  0
   18.9852   19.0815   24.5428 H   0  0  0  0  0  0  0  0  0  0  0  0
   18.2702   17.7806   22.9638 C   0  0  0  0  0  0  0  0  0  0  0  0
   18.6445   16.9969   22.2923 H   0  0  0  0  0  0  0  0  0  0  0  0
   17.4794   17.3410   23.5855 H   0  0  0  0  0  0  0  0  0  0  0  0
   17.8170   18.5739   22.3549 H   0  0  0  0  0  0  0  0  0  0  0  0
  1  2  1  0  0  0  0
  1  3  2  0  0  0  0
  1  4  1  0  0  0  0
  4  5  1  0  0  0  0
  4  6  1  0  0  0  0
  4  7  1  0  0  0  0
  7  8  1  0  0  0  0
  7  9  2  0  0  0  0
  9 10  1  0  0  0  0
  9 11  1  0  0  0  0
 11 12  1  0  0  0  0
 11 13  1  0  0  0  0
 11 14  1  0  0  0  0
 14 15  1  0  0  0  0
 14 16  1  0  0  0  0
 14 17  1  0  0  0  0
M  END
> <VConfSearch Rank>
393

> <Conf_Id>
19

> <Delta U+W>
-0.496

> <U+W>
-49.923

> <U>
13.863

> <W>
-63.786

> <W(PB)>
-65.856

> <W(SA)>
2.070

> <Valence>
14.117

> <Coulomb>
-1.228

> <VdW>
0.974

> <VdW6>
-4.885

> <VdW12>
5.859

> <Bond>
0.094

> <Angle>
2.818

> <Pdih>
11.205

> <Idih>
0.000

> <Tether>
0.000

$$$$
VeraChem MOL file


 17 16  0  0  0  0  0  0  0  0999 V2000     
   18.4597   20.7365   23.9267 C   0  0  0  0  0  0  0  0  0  0  0  0
   18.9173   21.8466   23.7395 O   0  5  0  0  0  0  0  0  0  0  0  0
   17.2698   20.4896   23.9167 O   0  0  0  0  0  0  0  0  0  0  0  0
   19.4278   19.5927   24.1996 C   0  0  0  0  0  0  0  0  0  0  0  0
   19.0049   18.9814   25.0052 H   0  0  0  0  0  0  0  0  0  0  0  0
   20.3646   20.0190   24.5782 H   0  0  0  0  0  0  0  0  0  0  0  0
   19.6767   18.7370   22.9722 C   0  0  0  0  0  0  0  0  0  0  0  0
   18.8209   18.1568   22.6285 H   0  0  0  0  0  0  0  0  0  0  0  0
   20.8435   18.6756   22.3233 C   0  0  0  0  0  0  0  0  0  0  0  0
   21.6974   19.2600   22.6644 H   0  0  0  0  0  0  0  0  0  0  0  0
   21.0887   17.8239   21.0978 C   0  0  0  0  0  0  0  0  0  0  0  0
   22.0196   17.2542   21.2221 H   0  0  0  0  0  0  0  0  0  0  0  0
   20.2825   17.0878   20.9737 H   0  0  0  0  0  0  0  0  0  0  0  0
   21.1842   18.6940   19.8294 C   0  0  0  0  0  0  0  0  0  0  0  0
   22.0085   19.4147   19.9099 H   0  0  0  0  0  0  0  0  0  0  0  0
   21.3617   18.0710   18.9431 H   0  0  0  0  0  0  0  0  0  0  0  0
   20.2538   19.2551   19.6708 H   0  0  0  0  0  0  0  0  0  0  0  0
  1  2  1  0  0  0  0
  1  3  2  0  0  0  0
  1  4  1  0  0  0  0
  4  5  1  0  0  0  0
  4  6  1  0  0  0  0
  4  7  1  0  0  0  0
  7  8  1  0  0  0  0
  7  9  2  0  0  0  0
  9 10  1  0  0  0  0
  9 11  1  0  0  0  0
 11 12  1  0  0  0  0
 11 13  1  0  0  0  0
 11 14  1  0  0  0  0
 14 15  1  0  0  0  0
 14 16  1  0  0  0  0
 14 17  1  0  0  0  0
M  END
> <VConfSearch Rank>
394

> <Conf_Id>
7

> <Delta U+W>
-0.041

> <U+W>
-49.468

> <U>
14.121

> <W>
-63.589

> <W(PB)>
-65.660

> <W(SA)>
2.071

> <Valence>
15.230

> <Coulomb>
-1.333

> <VdW>
0.224

> <VdW6>
-4.212

> <VdW12>
4.436

> <Bond>
0.044

> <Angle>
2.230

> <Pdih>
12.956

> <Idih>
0.000

> <Tether>
0.000

$$$$
VeraChem MOL file


 17 16  0  0  0  0  0  0  0  0999 V2000     
   17.4552   19.9314   22.4641 C   0  0  0  0  0  0  0  0  0  0  0  0
   17.2642   19.7645   23.6527 O   0  5  0  0  0  0  0  0  0  0  0  0
   16.7876   19.4036   21.5964 O   0  0  0  0  0  0  0  0  0  0  0  0
   18.5752   20.8758   22.0385 C   0  0  0  0  0  0  0  0  0  0  0  0
   18.6621   21.6593   22.8003 H   0  0  0  0  0  0  0  0  0  0  0  0
   18.2564   21.3824   21.1201 H   0  0  0  0  0  0  0  0  0  0  0  0
   19.9340   20.2263   21.8176 C   0  0  0  0  0  0  0  0  0  0  0  0
   20.7188   20.9181   21.5143 H   0  0  0  0  0  0  0  0  0  0  0  0
   20.2181   18.9269   21.9652 C   0  0  0  0  0  0  0  0  0  0  0  0
   19.4520   18.2142   22.2685 H   0  0  0  0  0  0  0  0  0  0  0  0
   21.5882   18.3304   21.7312 C   0  0  0  0  0  0  0  0  0  0  0  0
   21.4999   17.4357   21.1001 H   0  0  0  0  0  0  0  0  0  0  0  0
   22.2285   19.0381   21.1867 H   0  0  0  0  0  0  0  0  0  0  0  0
   22.2632   17.9539   23.0645 C   0  0  0  0  0  0  0  0  0  0  0  0
   23.2563   17.5204   22.8886 H   0  0  0  0  0  0  0  0  0  0  0  0
   22.3857   18.8388   23.7029 H   0  0  0  0  0  0  0  0  0  0  0  0
   21.6620   17.2172   23.6133 H   0  0  0  0  0  0  0  0  0  0  0  0
  1  2  1  0  0  0  0
  1  3  2  0  0  0  0
  1  4  1  0  0  0  0
  4  5  1  0  0  0  0
  4  6  1  0  0  0  0
  4  7  1  0  0  0  0
  7  8  1  0  0  0  0
  7  9  2  0  0  0  0
  9 10  1  0  0  0  0
  9 11  1  0  0  0  0
 11 12  1  0  0  0  0
 11 13  1  0  0  0  0
 11 14  1  0  0  0  0
 14 15  1  0  0  0  0
 14 16  1  0  0  0  0
 14 17  1  0  0  0  0
M  END
> <VConfSearch Rank>
395

> <Conf_Id>
39

> <Delta U+W>
-0.422

> <U+W>
-49.849

> <U>
14.465

> <W>
-64.314

> <W(PB)>
-66.406

> <W(SA)>
2.093

> <Valence>
14.072

> <Coulomb>
-0.199

> <VdW>
0.592

> <VdW6>
-5.019

> <VdW12>
5.611

> <Bond>
0.085

> <Angle>
2.748

> <Pdih>
11.238

> <Idih>
0.001

> <Tether>
0.000

$$$$
VeraChem MOL file


 17 16  0  0  0  0  0  0  0  0999 V2000     
   18.0414   16.9109   22.5034 C   0  0  0  0  0  0  0  0  0  0  0  0
   18.3216   16.0802   23.3451 O   0  5  0  0  0  0  0  0  0  0  0  0
   17.5385   16.6379   21.4312 O   0  0  0  0  0  0  0  0  0  0  0  0
   18.3321   18.3734   22.8133 C   0  0  0  0  0  0  0  0  0  0  0  0
   18.0607   18.5544   23.8598 H   0  0  0  0  0  0  0  0  0  0  0  0
   17.6685   18.9930   22.1981 H   0  0  0  0  0  0  0  0  0  0  0  0
   19.7860   18.7383   22.5818 C   0  0  0  0  0  0  0  0  0  0  0  0
   20.4958   18.2798   23.2696 H   0  0  0  0  0  0  0  0  0  0  0  0
   20.2100   19.5571   21.6142 C   0  0  0  0  0  0  0  0  0  0  0  0
   19.5000   20.0129   20.9249 H   0  0  0  0  0  0  0  0  0  0  0  0
   21.6606   19.9169   21.3825 C   0  0  0  0  0  0  0  0  0  0  0  0
   22.3193   19.2325   21.9346 H   0  0  0  0  0  0  0  0  0  0  0  0
   21.9059   19.8004   20.3182 H   0  0  0  0  0  0  0  0  0  0  0  0
   21.9485   21.3662   21.8204 C   0  0  0  0  0  0  0  0  0  0  0  0
   21.7346   21.5004   22.8890 H   0  0  0  0  0  0  0  0  0  0  0  0
   23.0023   21.6216   21.6492 H   0  0  0  0  0  0  0  0  0  0  0  0
   21.3299   22.0762   21.2559 H   0  0  0  0  0  0  0  0  0  0  0  0
  1  2  1  0  0  0  0
  1  3  2  0  0  0  0
  1  4  1  0  0  0  0
  4  5  1  0  0  0  0
  4  6  1  0  0  0  0
  4  7  1  0  0  0  0
  7  8  1  0  0  0  0
  7  9  2  0  0  0  0
  9 10  1  0  0  0  0
  9 11  1  0  0  0  0
 11 12  1  0  0  0  0
 11 13  1  0  0  0  0
 11 14  1  0  0  0  0
 14 15  1  0  0  0  0
 14 16  1  0  0  0  0
 14 17  1  0  0  0  0
M  END
> <VConfSearch Rank>
396

> <Conf_Id>
38

> <Delta U+W>
0.000

> <U+W>
-49.427

> <U>
13.666

> <W>
-63.093

> <W(PB)>
-65.225

> <W(SA)>
2.132

> <Valence>
15.226

> <Coulomb>
-1.822

> <VdW>
0.261

> <VdW6>
-4.165

> <VdW12>
4.426

> <Bond>
0.044

> <Angle>
2.229

> <Pdih>
12.953

> <Idih>
0.000

> <Tether>
0.000

$$$$
VeraChem MOL file


 17 16  0  0  0  0  0  0  0  0999 V2000     
   20.7772   21.9407   20.5578 C   0  0  0  0  0  0  0  0  0  0  0  0
   21.0974   21.6686   19.4175 O   0  5  0  0  0  0  0  0  0  0  0  0
   21.2969   22.8257   21.2087 O   0  0  0  0  0  0  0  0  0  0  0  0
   19.6604   21.1336   21.2065 C   0  0  0  0  0  0  0  0  0  0  0  0
   19.0378   20.7078   20.4104 H   0  0  0  0  0  0  0  0  0  0  0  0
   19.0283   21.8294   21.7703 H   0  0  0  0  0  0  0  0  0  0  0  0
   20.1868   20.0472   22.1249 C   0  0  0  0  0  0  0  0  0  0  0  0
   20.6805   20.4016   23.0292 H   0  0  0  0  0  0  0  0  0  0  0  0
   20.0769   18.7380   21.8797 C   0  0  0  0  0  0  0  0  0  0  0  0
   19.5858   18.3844   20.9736 H   0  0  0  0  0  0  0  0  0  0  0  0
   20.6059   17.6562   22.7946 C   0  0  0  0  0  0  0  0  0  0  0  0
   21.1802   16.9246   22.2103 H   0  0  0  0  0  0  0  0  0  0  0  0
   21.2981   18.0825   23.5338 H   0  0  0  0  0  0  0  0  0  0  0  0
   19.4553   16.9391   23.5274 C   0  0  0  0  0  0  0  0  0  0  0  0
   18.7673   16.4699   22.8119 H   0  0  0  0  0  0  0  0  0  0  0  0
   19.8453   16.1548   24.1892 H   0  0  0  0  0  0  0  0  0  0  0  0
   18.8816   17.6473   24.1397 H   0  0  0  0  0  0  0  0  0  0  0  0
  1  2  1  0  0  0  0
  1  3  2  0  0  0  0
  1  4  1  0  0  0  0
  4  5  1  0  0  0  0
  4  6  1  0  0  0  0
  4  7  1  0  0  0  0
  7  8  1  0  0  0  0
  7  9  2  0  0  0  0
  9 10  1  0  0  0  0
  9 11  1  0  0  0  0
 11 12  1  0  0  0  0
 11 13  1  0  0  0  0
 11 14  1  0  0  0  0
 14 15  1  0  0  0  0
 14 16  1  0  0  0  0
 14 17  1  0  0  0  0
M  END
> <VConfSearch Rank>
397

> <Conf_Id>
35

> <Delta U+W>
-0.102

> <U+W>
-49.529

> <U>
13.666

> <W>
-63.195

> <W(PB)>
-65.299

> <W(SA)>
2.103

> <Valence>
15.226

> <Coulomb>
-1.822

> <VdW>
0.261

> <VdW6>
-4.165

> <VdW12>
4.426

> <Bond>
0.044

> <Angle>
2.229

> <Pdih>
12.953

> <Idih>
0.000

> <Tether>
0.000

$$$$
VeraChem MOL file


 17 16  0  0  0  0  0  0  0  0999 V2000     
   19.8616   16.2115   21.7159 C   0  0  0  0  0  0  0  0  0  0  0  0
   19.5808   16.0216   20.5488 O   0  5  0  0  0  0  0  0  0  0  0  0
   20.6811   15.5530   22.3256 O   0  0  0  0  0  0  0  0  0  0  0  0
   19.1391   17.3299   22.4554 C   0  0  0  0  0  0  0  0  0  0  0  0
   19.1641   17.1037   23.5281 H   0  0  0  0  0  0  0  0  0  0  0  0
   18.0872   17.3094   22.1480 H   0  0  0  0  0  0  0  0  0  0  0  0
   19.7377   18.6946   22.1716 C   0  0  0  0  0  0  0  0  0  0  0  0
   19.6024   19.0467   21.1505 H   0  0  0  0  0  0  0  0  0  0  0  0
   20.3905   19.4280   23.0820 C   0  0  0  0  0  0  0  0  0  0  0  0
   20.5101   19.0407   24.0933 H   0  0  0  0  0  0  0  0  0  0  0  0
   21.0161   20.7958   22.8664 C   0  0  0  0  0  0  0  0  0  0  0  0
   20.5783   21.5051   23.5817 H   0  0  0  0  0  0  0  0  0  0  0  0
   22.0838   20.7430   23.1191 H   0  0  0  0  0  0  0  0  0  0  0  0
   20.8652   21.3640   21.4380 C   0  0  0  0  0  0  0  0  0  0  0  0
   19.8069   21.4818   21.1706 H   0  0  0  0  0  0  0  0  0  0  0  0
   21.3423   22.3498   21.3636 H   0  0  0  0  0  0  0  0  0  0  0  0
   21.3396   20.7044   20.6995 H   0  0  0  0  0  0  0  0  0  0  0  0
  1  2  1  0  0  0  0
  1  3  2  0  0  0  0
  1  4  1  0  0  0  0
  4  5  1  0  0  0  0
  4  6  1  0  0  0  0
  4  7  1  0  0  0  0
  7  8  1  0  0  0  0
  7  9  2  0  0  0  0
  9 10  1  0  0  0  0
  9 11  1  0  0  0  0
 11 12  1  0  0  0  0
 11 13  1  0  0  0  0
 11 14  1  0  0  0  0
 14 15  1  0  0  0  0
 14 16  1  0  0  0  0
 14 17  1  0  0  0  0
M  END
> <VConfSearch Rank>
398

> <Conf_Id>
19

> <Delta U+W>
-0.496

> <U+W>
-49.923

> <U>
13.863

> <W>
-63.786

> <W(PB)>
-65.856

> <W(SA)>
2.070

> <Valence>
14.117

> <Coulomb>
-1.228

> <VdW>
0.974

> <VdW6>
-4.885

> <VdW12>
5.859

> <Bond>
0.094

> <Angle>
2.818

> <Pdih>
11.205

> <Idih>
0.000

> <Tether>
0.000

$$$$
VeraChem MOL file


 17 16  0  0  0  0  0  0  0  0999 V2000     
   19.6567   20.5667   19.7396 C   0  0  0  0  0  0  0  0  0  0  0  0
   19.7491   21.7190   20.1144 O   0  5  0  0  0  0  0  0  0  0  0  0
   20.1872   20.1433   18.7315 O   0  0  0  0  0  0  0  0  0  0  0  0
   18.8223   19.6013   20.5712 C   0  0  0  0  0  0  0  0  0  0  0  0
   18.2352   18.9855   19.8802 H   0  0  0  0  0  0  0  0  0  0  0  0
   18.1093   20.1868   21.1641 H   0  0  0  0  0  0  0  0  0  0  0  0
   19.6734   18.7170   21.4625 C   0  0  0  0  0  0  0  0  0  0  0  0
   20.2986   17.9940   20.9394 H   0  0  0  0  0  0  0  0  0  0  0  0
   19.6920   18.7911   22.7968 C   0  0  0  0  0  0  0  0  0  0  0  0
   19.0704   19.5178   23.3190 H   0  0  0  0  0  0  0  0  0  0  0  0
   20.5436   17.9104   23.6835 C   0  0  0  0  0  0  0  0  0  0  0  0
   19.9297   17.4963   24.4948 H   0  0  0  0  0  0  0  0  0  0  0  0
   20.9335   17.0549   23.1149 H   0  0  0  0  0  0  0  0  0  0  0  0
   21.7213   18.7030   24.2835 C   0  0  0  0  0  0  0  0  0  0  0  0
   21.3591   19.5432   24.8903 H   0  0  0  0  0  0  0  0  0  0  0  0
   22.3362   18.0591   24.9256 H   0  0  0  0  0  0  0  0  0  0  0  0
   22.3639   19.1065   23.4898 H   0  0  0  0  0  0  0  0  0  0  0  0
  1  2  1  0  0  0  0
  1  3  2  0  0  0  0
  1  4  1  0  0  0  0
  4  5  1  0  0  0  0
  4  6  1  0  0  0  0
  4  7  1  0  0  0  0
  7  8  1  0  0  0  0
  7  9  2  0  0  0  0
  9 10  1  0  0  0  0
  9 11  1  0  0  0  0
 11 12  1  0  0  0  0
 11 13  1  0  0  0  0
 11 14  1  0  0  0  0
 14 15  1  0  0  0  0
 14 16  1  0  0  0  0
 14 17  1  0  0  0  0
M  END
> <VConfSearch Rank>
399

> <Conf_Id>
7

> <Delta U+W>
-0.041

> <U+W>
-49.468

> <U>
14.121

> <W>
-63.589

> <W(PB)>
-65.660

> <W(SA)>
2.071

> <Valence>
15.230

> <Coulomb>
-1.333

> <VdW>
0.224

> <VdW6>
-4.212

> <VdW12>
4.436

> <Bond>
0.044

> <Angle>
2.230

> <Pdih>
12.956

> <Idih>
0.000

> <Tether>
0.000

$$$$
VeraChem MOL file


 17 16  0  0  0  0  0  0  0  0999 V2000     
   22.8850   19.4627   22.2645 C   0  0  0  0  0  0  0  0  0  0  0  0
   23.1413   19.1033   23.3968 O   0  5  0  0  0  0  0  0  0  0  0  0
   23.2719   20.5123   21.7895 O   0  0  0  0  0  0  0  0  0  0  0  0
   22.0563   18.5337   21.3825 C   0  0  0  0  0  0  0  0  0  0  0  0
   22.2853   17.5016   21.6726 H   0  0  0  0  0  0  0  0  0  0  0  0
   22.4128   18.6431   20.3516 H   0  0  0  0  0  0  0  0  0  0  0  0
   20.5509   18.7542   21.4280 C   0  0  0  0  0  0  0  0  0  0  0  0
   19.9786   18.0808   20.7912 H   0  0  0  0  0  0  0  0  0  0  0  0
   19.9123   19.6727   22.1625 C   0  0  0  0  0  0  0  0  0  0  0  0
   20.4606   20.3576   22.8083 H   0  0  0  0  0  0  0  0  0  0  0  0
   18.4104   19.8519   22.1706 C   0  0  0  0  0  0  0  0  0  0  0  0
   18.1635   20.9152   22.0483 H   0  0  0  0  0  0  0  0  0  0  0  0
   17.9547   19.3230   21.3222 H   0  0  0  0  0  0  0  0  0  0  0  0
   17.7977   19.3303   23.4850 C   0  0  0  0  0  0  0  0  0  0  0  0
   16.7081   19.4642   23.4860 H   0  0  0  0  0  0  0  0  0  0  0  0
   18.0100   18.2611   23.6167 H   0  0  0  0  0  0  0  0  0  0  0  0
   18.2080   19.8692   24.3491 H   0  0  0  0  0  0  0  0  0  0  0  0
  1  2  1  0  0  0  0
  1  3  2  0  0  0  0
  1  4  1  0  0  0  0
  4  5  1  0  0  0  0
  4  6  1  0  0  0  0
  4  7  1  0  0  0  0
  7  8  1  0  0  0  0
  7  9  2  0  0  0  0
  9 10  1  0  0  0  0
  9 11  1  0  0  0  0
 11 12  1  0  0  0  0
 11 13  1  0  0  0  0
 11 14  1  0  0  0  0
 14 15  1  0  0  0  0
 14 16  1  0  0  0  0
 14 17  1  0  0  0  0
M  END
> <VConfSearch Rank>
400

> <Conf_Id>
39

> <Delta U+W>
-0.422

> <U+W>
-49.849

> <U>
14.465

> <W>
-64.314

> <W(PB)>
-66.406

> <W(SA)>
2.093

> <Valence>
14.072

> <Coulomb>
-0.199

> <VdW>
0.592

> <VdW6>
-5.019

> <VdW12>
5.611

> <Bond>
0.085

> <Angle>
2.748

> <Pdih>
11.238

> <Idih>
0.001

> <Tether>
0.000

$$$$
VeraChem MOL file


 17 16  0  0  0  0  0  0  0  0999 V2000     
   19.7901   19.5110   25.2452 C   0  0  0  0  0  0  0  0  0  0  0  0
   20.0111   20.6023   25.7324 O   0  5  0  0  0  0  0  0  0  0  0  0
   20.1308   18.4640   25.7596 O   0  0  0  0  0  0  0  0  0  0  0  0
   19.0406   19.4546   23.9206 C   0  0  0  0  0  0  0  0  0  0  0  0
   18.2380   20.2003   23.9579 H   0  0  0  0  0  0  0  0  0  0  0  0
   18.5615   18.4715   23.8390 H   0  0  0  0  0  0  0  0  0  0  0  0
   19.9432   19.7200   22.7308 C   0  0  0  0  0  0  0  0  0  0  0  0
   20.3302   20.7359   22.6581 H   0  0  0  0  0  0  0  0  0  0  0  0
   20.2683   18.8023   21.8152 C   0  0  0  0  0  0  0  0  0  0  0  0
   19.8834   17.7858   21.8902 H   0  0  0  0  0  0  0  0  0  0  0  0
   21.1715   19.0677   20.6315 C   0  0  0  0  0  0  0  0  0  0  0  0
   21.7137   20.0137   20.7663 H   0  0  0  0  0  0  0  0  0  0  0  0
   21.9304   18.2769   20.5596 H   0  0  0  0  0  0  0  0  0  0  0  0
   20.3636   19.1252   19.3204 C   0  0  0  0  0  0  0  0  0  0  0  0
   19.6143   19.9268   19.3589 H   0  0  0  0  0  0  0  0  0  0  0  0
   21.0244   19.3174   18.4650 H   0  0  0  0  0  0  0  0  0  0  0  0
   19.8408   18.1767   19.1405 H   0  0  0  0  0  0  0  0  0  0  0  0
  1  2  1  0  0  0  0
  1  3  2  0  0  0  0
  1  4  1  0  0  0  0
  4  5  1  0  0  0  0
  4  6  1  0  0  0  0
  4  7  1  0  0  0  0
  7  8  1  0  0  0  0
  7  9  2  0  0  0  0
  9 10  1  0  0  0  0
  9 11  1  0  0  0  0
 11 12  1  0  0  0  0
 11 13  1  0  0  0  0
 11 14  1  0  0  0  0
 14 15  1  0  0  0  0
 14 16  1  0  0  0  0
 14 17  1  0  0  0  0
M  END
> <VConfSearch Rank>
401

> <Conf_Id>
38

> <Delta U+W>
0.000

> <U+W>
-49.427

> <U>
13.666

> <W>
-63.093

> <W(PB)>
-65.225

> <W(SA)>
2.132

> <Valence>
15.226

> <Coulomb>
-1.822

> <VdW>
0.261

> <VdW6>
-4.165

> <VdW12>
4.426

> <Bond>
0.044

> <Angle>
2.229

> <Pdih>
12.953

> <Idih>
0.000

> <Tether>
0.000

$$$$
VeraChem MOL file


 17 16  0  0  0  0  0  0  0  0999 V2000     
   17.5581   18.0464   23.5662 C   0  0  0  0  0  0  0  0  0  0  0  0
   17.7881   17.9645   24.7567 O   0  5  0  0  0  0  0  0  0  0  0  0
   16.9206   17.2180   22.9464 O   0  0  0  0  0  0  0  0  0  0  0  0
   18.0924   19.2550   22.8089 C   0  0  0  0  0  0  0  0  0  0  0  0
   18.2477   20.0689   23.5273 H   0  0  0  0  0  0  0  0  0  0  0  0
   17.3126   19.5859   22.1132 H   0  0  0  0  0  0  0  0  0  0  0  0
   19.3699   18.9475   22.0512 C   0  0  0  0  0  0  0  0  0  0  0  0
   19.2590   18.2626   21.2111 H   0  0  0  0  0  0  0  0  0  0  0  0
   20.5669   19.4558   22.3596 C   0  0  0  0  0  0  0  0  0  0  0  0
   20.6777   20.1381   23.2017 H   0  0  0  0  0  0  0  0  0  0  0  0
   21.8404   19.1449   21.6054 C   0  0  0  0  0  0  0  0  0  0  0  0
   22.6366   18.8818   22.3149 H   0  0  0  0  0  0  0  0  0  0  0  0
   21.6978   18.2720   20.9536 H   0  0  0  0  0  0  0  0  0  0  0  0
   22.2881   20.3492   20.7543 C   0  0  0  0  0  0  0  0  0  0  0  0
   22.4753   21.2274   21.3861 H   0  0  0  0  0  0  0  0  0  0  0  0
   23.2130   20.1179   20.2100 H   0  0  0  0  0  0  0  0  0  0  0  0
   21.5173   20.6150   20.0189 H   0  0  0  0  0  0  0  0  0  0  0  0
  1  2  1  0  0  0  0
  1  3  2  0  0  0  0
  1  4  1  0  0  0  0
  4  5  1  0  0  0  0
  4  6  1  0  0  0  0
  4  7  1  0  0  0  0
  7  8  1  0  0  0  0
  7  9  2  0  0  0  0
  9 10  1  0  0  0  0
  9 11  1  0  0  0  0
 11 12  1  0  0  0  0
 11 13  1  0  0  0  0
 11 14  1  0  0  0  0
 14 15  1  0  0  0  0
 14 16  1  0  0  0  0
 14 17  1  0  0  0  0
M  END
> <VConfSearch Rank>
402

> <Conf_Id>
35

> <Delta U+W>
-0.102

> <U+W>
-49.529

> <U>
13.666

> <W>
-63.195

> <W(PB)>
-65.299

> <W(SA)>
2.103

> <Valence>
15.226

> <Coulomb>
-1.822

> <VdW>
0.261

> <VdW6>
-4.165

> <VdW12>
4.426

> <Bond>
0.044

> <Angle>
2.229

> <Pdih>
12.953

> <Idih>
0.000

> <Tether>
0.000

$$$$
VeraChem MOL file


 17 16  0  0  0  0  0  0  0  0999 V2000     
   17.9727   18.0479   20.6102 C   0  0  0  0  0  0  0  0  0  0  0  0
   16.9202   18.3120   21.1575 O   0  5  0  0  0  0  0  0  0  0  0  0
   18.1662   18.1941   19.4194 O   0  0  0  0  0  0  0  0  0  0  0  0
   19.1065   17.4946   21.4635 C   0  0  0  0  0  0  0  0  0  0  0  0
   19.7801   16.9256   20.8115 H   0  0  0  0  0  0  0  0  0  0  0  0
   18.6730   16.7829   22.1756 H   0  0  0  0  0  0  0  0  0  0  0  0
   19.8576   18.5829   22.2071 C   0  0  0  0  0  0  0  0  0  0  0  0
   19.2824   19.0812   22.9856 H   0  0  0  0  0  0  0  0  0  0  0  0
   21.1244   18.9287   21.9456 C   0  0  0  0  0  0  0  0  0  0  0  0
   21.6671   18.4103   21.1558 H   0  0  0  0  0  0  0  0  0  0  0  0
   21.9336   20.0074   22.6458 C   0  0  0  0  0  0  0  0  0  0  0  0
   22.8427   19.5556   23.0652 H   0  0  0  0  0  0  0  0  0  0  0  0
   22.2825   20.7327   21.8983 H   0  0  0  0  0  0  0  0  0  0  0  0
   21.1837   20.7615   23.7660 C   0  0  0  0  0  0  0  0  0  0  0  0
   20.8663   20.0731   24.5602 H   0  0  0  0  0  0  0  0  0  0  0  0
   21.8330   21.5215   24.2197 H   0  0  0  0  0  0  0  0  0  0  0  0
   20.2949   21.2710   23.3711 H   0  0  0  0  0  0  0  0  0  0  0  0
  1  2  1  0  0  0  0
  1  3  2  0  0  0  0
  1  4  1  0  0  0  0
  4  5  1  0  0  0  0
  4  6  1  0  0  0  0
  4  7  1  0  0  0  0
  7  8  1  0  0  0  0
  7  9  2  0  0  0  0
  9 10  1  0  0  0  0
  9 11  1  0  0  0  0
 11 12  1  0  0  0  0
 11 13  1  0  0  0  0
 11 14  1  0  0  0  0
 14 15  1  0  0  0  0
 14 16  1  0  0  0  0
 14 17  1  0  0  0  0
M  END
> <VConfSearch Rank>
403

> <Conf_Id>
19

> <Delta U+W>
-0.496

> <U+W>
-49.923

> <U>
13.863

> <W>
-63.786

> <W(PB)>
-65.856

> <W(SA)>
2.070

> <Valence>
14.117

> <Coulomb>
-1.228

> <VdW>
0.974

> <VdW6>
-4.885

> <VdW12>
5.859

> <Bond>
0.094

> <Angle>
2.818

> <Pdih>
11.205

> <Idih>
0.000

> <Tether>
0.000

$$$$
VeraChem MOL file


 17 16  0  0  0  0  0  0  0  0999 V2000     
   17.7233   20.2003   21.0273 C   0  0  0  0  0  0  0  0  0  0  0  0
   17.0251   20.3896   22.0038 O   0  5  0  0  0  0  0  0  0  0  0  0
   17.8821   21.0213   20.1454 O   0  0  0  0  0  0  0  0  0  0  0  0
   18.4303   18.8578   20.8941 C   0  0  0  0  0  0  0  0  0  0  0  0
   18.3470   18.5381   19.8489 H   0  0  0  0  0  0  0  0  0  0  0  0
   17.8867   18.1222   21.4990 H   0  0  0  0  0  0  0  0  0  0  0  0
   19.8893   18.9266   21.3031 C   0  0  0  0  0  0  0  0  0  0  0  0
   20.5279   19.5205   20.6498 H   0  0  0  0  0  0  0  0  0  0  0  0
   20.3958   18.3244   22.3834 C   0  0  0  0  0  0  0  0  0  0  0  0
   19.7558   17.7349   23.0391 H   0  0  0  0  0  0  0  0  0  0  0  0
   21.8504   18.3967   22.7911 C   0  0  0  0  0  0  0  0  0  0  0  0
   22.2228   17.3884   23.0175 H   0  0  0  0  0  0  0  0  0  0  0  0
   22.4629   18.7807   21.9637 H   0  0  0  0  0  0  0  0  0  0  0  0
   22.0350   19.3017   24.0247 C   0  0  0  0  0  0  0  0  0  0  0  0
   21.4633   18.9189   24.8803 H   0  0  0  0  0  0  0  0  0  0  0  0
   23.0923   19.3509   24.3160 H   0  0  0  0  0  0  0  0  0  0  0  0
   21.6916   20.3230   23.8136 H   0  0  0  0  0  0  0  0  0  0  0  0
  1  2  1  0  0  0  0
  1  3  2  0  0  0  0
  1  4  1  0  0  0  0
  4  5  1  0  0  0  0
  4  6  1  0  0  0  0
  4  7  1  0  0  0  0
  7  8  1  0  0  0  0
  7  9  2  0  0  0  0
  9 10  1  0  0  0  0
  9 11  1  0  0  0  0
 11 12  1  0  0  0  0
 11 13  1  0  0  0  0
 11 14  1  0  0  0  0
 14 15  1  0  0  0  0
 14 16  1  0  0  0  0
 14 17  1  0  0  0  0
M  END
> <VConfSearch Rank>
404

> <Conf_Id>
7

> <Delta U+W>
-0.041

> <U+W>
-49.468

> <U>
14.121

> <W>
-63.589

> <W(PB)>
-65.660

> <W(SA)>
2.071

> <Valence>
15.230

> <Coulomb>
-1.333

> <VdW>
0.224

> <VdW6>
-4.212

> <VdW12>
4.436

> <Bond>
0.044

> <Angle>
2.230

> <Pdih>
12.956

> <Idih>
0.000

> <Tether>
0.000

$$$$
VeraChem MOL file


 17 16  0  0  0  0  0  0  0  0999 V2000     
   21.4644   19.1641   24.6815 C   0  0  0  0  0  0  0  0  0  0  0  0
   20.6184   18.6541   25.3894 O   0  5  0  0  0  0  0  0  0  0  0  0
   22.0185   20.2128   24.9468 O   0  0  0  0  0  0  0  0  0  0  0  0
   21.8731   18.4349   23.4053 C   0  0  0  0  0  0  0  0  0  0  0  0
   21.7795   17.3581   23.5885 H   0  0  0  0  0  0  0  0  0  0  0  0
   22.9407   18.6207   23.2397 H   0  0  0  0  0  0  0  0  0  0  0  0
   21.0900   18.8096   22.1550 C   0  0  0  0  0  0  0  0  0  0  0  0
   21.3978   18.2777   21.2556 H   0  0  0  0  0  0  0  0  0  0  0  0
   20.0957   19.7029   22.0877 C   0  0  0  0  0  0  0  0  0  0  0  0
   19.7679   20.2477   22.9722 H   0  0  0  0  0  0  0  0  0  0  0  0
   19.3489   20.0406   20.8165 C   0  0  0  0  0  0  0  0  0  0  0  0
   19.2861   21.1313   20.7024 H   0  0  0  0  0  0  0  0  0  0  0  0
   19.8914   19.6627   19.9390 H   0  0  0  0  0  0  0  0  0  0  0  0
   17.9283   19.4434   20.8337 C   0  0  0  0  0  0  0  0  0  0  0  0
   17.3906   19.6927   19.9097 H   0  0  0  0  0  0  0  0  0  0  0  0
   17.9664   18.3495   20.9214 H   0  0  0  0  0  0  0  0  0  0  0  0
   17.3496   19.8342   21.6809 H   0  0  0  0  0  0  0  0  0  0  0  0
  1  2  1  0  0  0  0
  1  3  2  0  0  0  0
  1  4  1  0  0  0  0
  4  5  1  0  0  0  0
  4  6  1  0  0  0  0
  4  7  1  0  0  0  0
  7  8  1  0  0  0  0
  7  9  2  0  0  0  0
  9 10  1  0  0  0  0
  9 11  1  0  0  0  0
 11 12  1  0  0  0  0
 11 13  1  0  0  0  0
 11 14  1  0  0  0  0
 14 15  1  0  0  0  0
 14 16  1  0  0  0  0
 14 17  1  0  0  0  0
M  END
> <VConfSearch Rank>
405

> <Conf_Id>
39

> <Delta U+W>
-0.422

> <U+W>
-49.849

> <U>
14.465

> <W>
-64.314

> <W(PB)>
-66.406

> <W(SA)>
2.093

> <Valence>
14.072

> <Coulomb>
-0.199

> <VdW>
0.592

> <VdW6>
-5.019

> <VdW12>
5.611

> <Bond>
0.085

> <Angle>
2.748

> <Pdih>
11.238

> <Idih>
0.001

> <Tether>
0.000

$$$$
VeraChem MOL file


 17 16  0  0  0  0  0  0  0  0999 V2000     
   21.2126   16.6553   23.4994 C   0  0  0  0  0  0  0  0  0  0  0  0
   21.0578   15.6122   22.8952 O   0  5  0  0  0  0  0  0  0  0  0  0
   21.0818   16.7605   24.7030 O   0  0  0  0  0  0  0  0  0  0  0  0
   21.5968   17.8957   22.7035 C   0  0  0  0  0  0  0  0  0  0  0  0
   22.3341   17.5952   21.9501 H   0  0  0  0  0  0  0  0  0  0  0  0
   22.0984   18.5966   23.3815 H   0  0  0  0  0  0  0  0  0  0  0  0
   20.4030   18.5482   22.0328 C   0  0  0  0  0  0  0  0  0  0  0  0
   19.9483   17.9706   21.2285 H   0  0  0  0  0  0  0  0  0  0  0  0
   19.9100   19.7427   22.3738 C   0  0  0  0  0  0  0  0  0  0  0  0
   20.3634   20.3184   23.1801 H   0  0  0  0  0  0  0  0  0  0  0  0
   18.7172   20.3901   21.7064 C   0  0  0  0  0  0  0  0  0  0  0  0
   18.1707   19.6553   21.0993 H   0  0  0  0  0  0  0  0  0  0  0  0
   18.0159   20.7518   22.4705 H   0  0  0  0  0  0  0  0  0  0  0  0
   19.1541   21.5667   20.8120 C   0  0  0  0  0  0  0  0  0  0  0  0
   19.8368   21.2242   20.0232 H   0  0  0  0  0  0  0  0  0  0  0  0
   18.2843   22.0328   20.3309 H   0  0  0  0  0  0  0  0  0  0  0  0
   19.6704   22.3359   21.4011 H   0  0  0  0  0  0  0  0  0  0  0  0
  1  2  1  0  0  0  0
  1  3  2  0  0  0  0
  1  4  1  0  0  0  0
  4  5  1  0  0  0  0
  4  6  1  0  0  0  0
  4  7  1  0  0  0  0
  7  8  1  0  0  0  0
  7  9  2  0  0  0  0
  9 10  1  0  0  0  0
  9 11  1  0  0  0  0
 11 12  1  0  0  0  0
 11 13  1  0  0  0  0
 11 14  1  0  0  0  0
 14 15  1  0  0  0  0
 14 16  1  0  0  0  0
 14 17  1  0  0  0  0
M  END
> <VConfSearch Rank>
406

> <Conf_Id>
38

> <Delta U+W>
0.000

> <U+W>
-49.427

> <U>
13.666

> <W>
-63.093

> <W(PB)>
-65.225

> <W(SA)>
2.132

> <Valence>
15.226

> <Coulomb>
-1.822

> <VdW>
0.261

> <VdW6>
-4.165

> <VdW12>
4.426

> <Bond>
0.044

> <Angle>
2.229

> <Pdih>
12.953

> <Idih>
0.000

> <Tether>
0.000

$$$$
VeraChem MOL file


 17 16  0  0  0  0  0  0  0  0999 V2000     
   20.4422   22.3036   21.2846 C   0  0  0  0  0  0  0  0  0  0  0  0
   21.6265   22.5447   21.1573 O   0  5  0  0  0  0  0  0  0  0  0  0
   19.6430   23.0899   21.7536 O   0  0  0  0  0  0  0  0  0  0  0  0
   19.9286   20.9447   20.8272 C   0  0  0  0  0  0  0  0  0  0  0  0
   20.6244   20.5495   20.0774 H   0  0  0  0  0  0  0  0  0  0  0  0
   18.9686   21.1022   20.3221 H   0  0  0  0  0  0  0  0  0  0  0  0
   19.7582   19.9709   21.9776 C   0  0  0  0  0  0  0  0  0  0  0  0
   18.9649   20.2180   22.6825 H   0  0  0  0  0  0  0  0  0  0  0  0
   20.5068   18.8778   22.1535 C   0  0  0  0  0  0  0  0  0  0  0  0
   21.3019   18.6330   21.4499 H   0  0  0  0  0  0  0  0  0  0  0  0
   20.3381   17.9100   23.3033 C   0  0  0  0  0  0  0  0  0  0  0  0
   21.3153   17.7032   23.7602 H   0  0  0  0  0  0  0  0  0  0  0  0
   19.7099   18.3522   24.0889 H   0  0  0  0  0  0  0  0  0  0  0  0
   19.7039   16.5887   22.8267 C   0  0  0  0  0  0  0  0  0  0  0  0
   20.3315   16.1047   22.0668 H   0  0  0  0  0  0  0  0  0  0  0  0
   19.5846   15.8903   23.6651 H   0  0  0  0  0  0  0  0  0  0  0  0
   18.7131   16.7676   22.3886 H   0  0  0  0  0  0  0  0  0  0  0  0
  1  2  1  0  0  0  0
  1  3  2  0  0  0  0
  1  4  1  0  0  0  0
  4  5  1  0  0  0  0
  4  6  1  0  0  0  0
  4  7  1  0  0  0  0
  7  8  1  0  0  0  0
  7  9  2  0  0  0  0
  9 10  1  0  0  0  0
  9 11  1  0  0  0  0
 11 12  1  0  0  0  0
 11 13  1  0  0  0  0
 11 14  1  0  0  0  0
 14 15  1  0  0  0  0
 14 16  1  0  0  0  0
 14 17  1  0  0  0  0
M  END
> <VConfSearch Rank>
407

> <Conf_Id>
35

> <Delta U+W>
-0.102

> <U+W>
-49.529

> <U>
13.666

> <W>
-63.195

> <W(PB)>
-65.299

> <W(SA)>
2.103

> <Valence>
15.226

> <Coulomb>
-1.822

> <VdW>
0.261

> <VdW6>
-4.165

> <VdW12>
4.426

> <Bond>
0.044

> <Angle>
2.229

> <Pdih>
12.953

> <Idih>
0.000

> <Tether>
0.000

$$$$
VeraChem MOL file


 17 16  0  0  0  0  0  0  0  0999 V2000     
   18.5032   16.7096   22.4029 C   0  0  0  0  0  0  0  0  0  0  0  0
   18.9559   15.9428   23.2301 O   0  5  0  0  0  0  0  0  0  0  0  0
   17.3261   17.0033   22.3321 O   0  0  0  0  0  0  0  0  0  0  0  0
   19.4636   17.3275   21.3953 C   0  0  0  0  0  0  0  0  0  0  0  0
   18.8894   17.6159   20.5066 H   0  0  0  0  0  0  0  0  0  0  0  0
   20.1680   16.5480   21.0826 H   0  0  0  0  0  0  0  0  0  0  0  0
   20.2189   18.5134   21.9650 C   0  0  0  0  0  0  0  0  0  0  0  0
   20.9296   18.2643   22.7511 H   0  0  0  0  0  0  0  0  0  0  0  0
   20.0429   19.7768   21.5580 C   0  0  0  0  0  0  0  0  0  0  0  0
   19.3192   19.9883   20.7715 H   0  0  0  0  0  0  0  0  0  0  0  0
   20.7597   21.0084   22.0852 C   0  0  0  0  0  0  0  0  0  0  0  0
   21.2664   21.5110   21.2503 H   0  0  0  0  0  0  0  0  0  0  0  0
   20.0130   21.7256   22.4520 H   0  0  0  0  0  0  0  0  0  0  0  0
   21.7870   20.7352   23.2060 C   0  0  0  0  0  0  0  0  0  0  0  0
   22.5812   20.0623   22.8570 H   0  0  0  0  0  0  0  0  0  0  0  0
   22.2587   21.6711   23.5322 H   0  0  0  0  0  0  0  0  0  0  0  0
   21.3040   20.2797   24.0805 H   0  0  0  0  0  0  0  0  0  0  0  0
  1  2  1  0  0  0  0
  1  3  2  0  0  0  0
  1  4  1  0  0  0  0
  4  5  1  0  0  0  0
  4  6  1  0  0  0  0
  4  7  1  0  0  0  0
  7  8  1  0  0  0  0
  7  9  2  0  0  0  0
  9 10  1  0  0  0  0
  9 11  1  0  0  0  0
 11 12  1  0  0  0  0
 11 13  1  0  0  0  0
 11 14  1  0  0  0  0
 14 15  1  0  0  0  0
 14 16  1  0  0  0  0
 14 17  1  0  0  0  0
M  END
> <VConfSearch Rank>
408

> <Conf_Id>
19

> <Delta U+W>
-0.496

> <U+W>
-49.923

> <U>
13.863

> <W>
-63.786

> <W(PB)>
-65.856

> <W(SA)>
2.070

> <Valence>
14.117

> <Coulomb>
-1.228

> <VdW>
0.974

> <VdW6>
-4.885

> <VdW12>
5.859

> <Bond>
0.094

> <Angle>
2.818

> <Pdih>
11.205

> <Idih>
0.000

> <Tether>
0.000

$$$$
VeraChem MOL file


 17 16  0  0  0  0  0  0  0  0999 V2000     
   19.5492   18.8675   19.3464 C   0  0  0  0  0  0  0  0  0  0  0  0
   18.9487   19.9033   19.1381 O   0  5  0  0  0  0  0  0  0  0  0  0
   20.4391   18.4511   18.6310 O   0  0  0  0  0  0  0  0  0  0  0  0
   19.1600   18.0390   20.5637 C   0  0  0  0  0  0  0  0  0  0  0  0
   19.1505   16.9852   20.2622 H   0  0  0  0  0  0  0  0  0  0  0  0
   18.1328   18.3020   20.8437 H   0  0  0  0  0  0  0  0  0  0  0  0
   20.1093   18.2386   21.7298 C   0  0  0  0  0  0  0  0  0  0  0  0
   21.1181   17.8553   21.5791 H   0  0  0  0  0  0  0  0  0  0  0  0
   19.7764   18.8426   22.8746 C   0  0  0  0  0  0  0  0  0  0  0  0
   18.7691   19.2303   23.0228 H   0  0  0  0  0  0  0  0  0  0  0  0
   20.7254   19.0432   24.0350 C   0  0  0  0  0  0  0  0  0  0  0  0
   20.2410   18.7283   24.9692 H   0  0  0  0  0  0  0  0  0  0  0  0
   21.6180   18.4139   23.9148 H   0  0  0  0  0  0  0  0  0  0  0  0
   21.1541   20.5190   24.1505 C   0  0  0  0  0  0  0  0  0  0  0  0
   20.2834   21.1684   24.3105 H   0  0  0  0  0  0  0  0  0  0  0  0
   21.8429   20.6588   24.9938 H   0  0  0  0  0  0  0  0  0  0  0  0
   21.6636   20.8495   23.2357 H   0  0  0  0  0  0  0  0  0  0  0  0
  1  2  1  0  0  0  0
  1  3  2  0  0  0  0
  1  4  1  0  0  0  0
  4  5  1  0  0  0  0
  4  6  1  0  0  0  0
  4  7  1  0  0  0  0
  7  8  1  0  0  0  0
  7  9  2  0  0  0  0
  9 10  1  0  0  0  0
  9 11  1  0  0  0  0
 11 12  1  0  0  0  0
 11 13  1  0  0  0  0
 11 14  1  0  0  0  0
 14 15  1  0  0  0  0
 14 16  1  0  0  0  0
 14 17  1  0  0  0  0
M  END
> <VConfSearch Rank>
409

> <Conf_Id>
7

> <Delta U+W>
-0.041

> <U+W>
-49.468

> <U>
14.121

> <W>
-63.589

> <W(PB)>
-65.660

> <W(SA)>
2.071

> <Valence>
15.230

> <Coulomb>
-1.333

> <VdW>
0.224

> <VdW6>
-4.212

> <VdW12>
4.436

> <Bond>
0.044

> <Angle>
2.230

> <Pdih>
12.956

> <Idih>
0.000

> <Tether>
0.000

$$$$
VeraChem MOL file


 17 16  0  0  0  0  0  0  0  0999 V2000     
   20.9976   20.9394   24.2901 C   0  0  0  0  0  0  0  0  0  0  0  0
   21.0485   22.0039   23.7060 O   0  5  0  0  0  0  0  0  0  0  0  0
   21.9329   20.4657   24.9048 O   0  0  0  0  0  0  0  0  0  0  0  0
   19.6805   20.1695   24.2743 C   0  0  0  0  0  0  0  0  0  0  0  0
   18.8642   20.9003   24.2371 H   0  0  0  0  0  0  0  0  0  0  0  0
   19.5809   19.6550   25.2371 H   0  0  0  0  0  0  0  0  0  0  0  0
   19.5192   19.1667   23.1407 C   0  0  0  0  0  0  0  0  0  0  0  0
   18.5724   18.6282   23.1483 H   0  0  0  0  0  0  0  0  0  0  0  0
   20.4162   18.9142   22.1801 C   0  0  0  0  0  0  0  0  0  0  0  0
   21.3703   19.4392   22.1489 H   0  0  0  0  0  0  0  0  0  0  0  0
   20.2070   17.9037   21.0741 C   0  0  0  0  0  0  0  0  0  0  0  0
   21.0951   17.2635   20.9845 H   0  0  0  0  0  0  0  0  0  0  0  0
   19.3636   17.2411   21.3123 H   0  0  0  0  0  0  0  0  0  0  0  0
   19.9406   18.6041   19.7275 C   0  0  0  0  0  0  0  0  0  0  0  0
   19.7910   17.8663   18.9285 H   0  0  0  0  0  0  0  0  0  0  0  0
   19.0411   19.2311   19.7855 H   0  0  0  0  0  0  0  0  0  0  0  0
   20.7863   19.2451   19.4455 H   0  0  0  0  0  0  0  0  0  0  0  0
  1  2  1  0  0  0  0
  1  3  2  0  0  0  0
  1  4  1  0  0  0  0
  4  5  1  0  0  0  0
  4  6  1  0  0  0  0
  4  7  1  0  0  0  0
  7  8  1  0  0  0  0
  7  9  2  0  0  0  0
  9 10  1  0  0  0  0
  9 11  1  0  0  0  0
 11 12  1  0  0  0  0
 11 13  1  0  0  0  0
 11 14  1  0  0  0  0
 14 15  1  0  0  0  0
 14 16  1  0  0  0  0
 14 17  1  0  0  0  0
M  END
> <VConfSearch Rank>
410

> <Conf_Id>
39

> <Delta U+W>
-0.422

> <U+W>
-49.849

> <U>
14.465

> <W>
-64.314

> <W(PB)>
-66.406

> <W(SA)>
2.093

> <Valence>
14.072

> <Coulomb>
-0.199

> <VdW>
0.592

> <VdW6>
-5.019

> <VdW12>
5.611

> <Bond>
0.085

> <Angle>
2.748

> <Pdih>
11.238

> <Idih>
0.001

> <Tether>
0.000

$$$$
VeraChem MOL file


 17 16  0  0  0  0  0  0  0  0999 V2000     
   17.3813   17.8586   21.3480 C   0  0  0  0  0  0  0  0  0  0  0  0
   16.4903   17.9210   22.1721 O   0  5  0  0  0  0  0  0  0  0  0  0
   17.6183   16.8658   20.6885 O   0  0  0  0  0  0  0  0  0  0  0  0
   18.2432   19.0948   21.1276 C   0  0  0  0  0  0  0  0  0  0  0  0
   17.5835   19.9700   21.1422 H   0  0  0  0  0  0  0  0  0  0  0  0
   18.6763   19.0362   20.1218 H   0  0  0  0  0  0  0  0  0  0  0  0
   19.3271   19.2421   22.1784 C   0  0  0  0  0  0  0  0  0  0  0  0
   18.9725   19.4655   23.1842 H   0  0  0  0  0  0  0  0  0  0  0  0
   20.6344   19.1125   21.9324 C   0  0  0  0  0  0  0  0  0  0  0  0
   20.9881   18.8861   20.9271 H   0  0  0  0  0  0  0  0  0  0  0  0
   21.7135   19.2560   22.9822 C   0  0  0  0  0  0  0  0  0  0  0  0
   21.2763   19.2241   23.9897 H   0  0  0  0  0  0  0  0  0  0  0  0
   22.4113   18.4104   22.9146 H   0  0  0  0  0  0  0  0  0  0  0  0
   22.4878   20.5765   22.8038 C   0  0  0  0  0  0  0  0  0  0  0  0
   21.8138   21.4388   22.8933 H   0  0  0  0  0  0  0  0  0  0  0  0
   23.2698   20.6747   23.5680 H   0  0  0  0  0  0  0  0  0  0  0  0
   22.9681   20.6188   21.8175 H   0  0  0  0  0  0  0  0  0  0  0  0
  1  2  1  0  0  0  0
  1  3  2  0  0  0  0
  1  4  1  0  0  0  0
  4  5  1  0  0  0  0
  4  6  1  0  0  0  0
  4  7  1  0  0  0  0
  7  8  1  0  0  0  0
  7  9  2  0  0  0  0
  9 10  1  0  0  0  0
  9 11  1  0  0  0  0
 11 12  1  0  0  0  0
 11 13  1  0  0  0  0
 11 14  1  0  0  0  0
 14 15  1  0  0  0  0
 14 16  1  0  0  0  0
 14 17  1  0  0  0  0
M  END
> <VConfSearch Rank>
411

> <Conf_Id>
38

> <Delta U+W>
0.000

> <U+W>
-49.427

> <U>
13.666

> <W>
-63.093

> <W(PB)>
-65.225

> <W(SA)>
2.132

> <Valence>
15.226

> <Coulomb>
-1.822

> <VdW>
0.261

> <VdW6>
-4.165

> <VdW12>
4.426

> <Bond>
0.044

> <Angle>
2.229

> <Pdih>
12.953

> <Idih>
0.000

> <Tether>
0.000

$$$$
VeraChem MOL file


 17 16  0  0  0  0  0  0  0  0999 V2000     
   19.5009   19.1066   18.9989 C   0  0  0  0  0  0  0  0  0  0  0  0
   18.8055   18.1353   18.7752 O   0  5  0  0  0  0  0  0  0  0  0  0
   20.3890   19.4819   18.2591 O   0  0  0  0  0  0  0  0  0  0  0  0
   19.2434   19.9013   20.2724 C   0  0  0  0  0  0  0  0  0  0  0  0
   18.2077   19.7220   20.5852 H   0  0  0  0  0  0  0  0  0  0  0  0
   19.3238   20.9660   20.0247 H   0  0  0  0  0  0  0  0  0  0  0  0
   20.2152   19.5500   21.3827 C   0  0  0  0  0  0  0  0  0  0  0  0
   21.2484   19.8488   21.2082 H   0  0  0  0  0  0  0  0  0  0  0  0
   19.8721   18.9177   22.5091 C   0  0  0  0  0  0  0  0  0  0  0  0
   18.8394   18.6165   22.6815 H   0  0  0  0  0  0  0  0  0  0  0  0
   20.8433   18.5648   23.6134 C   0  0  0  0  0  0  0  0  0  0  0  0
   20.7082   17.5142   23.9041 H   0  0  0  0  0  0  0  0  0  0  0  0
   21.8791   18.6636   23.2606 H   0  0  0  0  0  0  0  0  0  0  0  0
   20.6352   19.4691   24.8439 C   0  0  0  0  0  0  0  0  0  0  0  0
   19.6175   19.3614   25.2416 H   0  0  0  0  0  0  0  0  0  0  0  0
   21.3422   19.2078   25.6420 H   0  0  0  0  0  0  0  0  0  0  0  0
   20.7906   20.5243   24.5830 H   0  0  0  0  0  0  0  0  0  0  0  0
  1  2  1  0  0  0  0
  1  3  2  0  0  0  0
  1  4  1  0  0  0  0
  4  5  1  0  0  0  0
  4  6  1  0  0  0  0
  4  7  1  0  0  0  0
  7  8  1  0  0  0  0
  7  9  2  0  0  0  0
  9 10  1  0  0  0  0
  9 11  1  0  0  0  0
 11 12  1  0  0  0  0
 11 13  1  0  0  0  0
 11 14  1  0  0  0  0
 14 15  1  0  0  0  0
 14 16  1  0  0  0  0
 14 17  1  0  0  0  0
M  END
> <VConfSearch Rank>
412

> <Conf_Id>
35

> <Delta U+W>
-0.102

> <U+W>
-49.529

> <U>
13.666

> <W>
-63.195

> <W(PB)>
-65.299

> <W(SA)>
2.103

> <Valence>
15.226

> <Coulomb>
-1.822

> <VdW>
0.261

> <VdW6>
-4.165

> <VdW12>
4.426

> <Bond>
0.044

> <Angle>
2.229

> <Pdih>
12.953

> <Idih>
0.000

> <Tether>
0.000

$$$$
VeraChem MOL file


 17 16  0  0  0  0  0  0  0  0999 V2000     
   17.4606   18.0641   22.2763 C   0  0  0  0  0  0  0  0  0  0  0  0
   16.7573   18.7107   21.5252 O   0  5  0  0  0  0  0  0  0  0  0  0
   17.4433   16.8504   22.3348 O   0  0  0  0  0  0  0  0  0  0  0  0
   18.4076   18.8182   23.2004 C   0  0  0  0  0  0  0  0  0  0  0  0
   18.6264   18.1783   24.0637 H   0  0  0  0  0  0  0  0  0  0  0  0
   17.8749   19.6977   23.5804 H   0  0  0  0  0  0  0  0  0  0  0  0
   19.6841   19.2451   22.5006 C   0  0  0  0  0  0  0  0  0  0  0  0
   19.5491   20.0053   21.7332 H   0  0  0  0  0  0  0  0  0  0  0  0
   20.8930   18.7411   22.7787 C   0  0  0  0  0  0  0  0  0  0  0  0
   20.9885   17.9780   23.5505 H   0  0  0  0  0  0  0  0  0  0  0  0
   22.2077   19.1184   22.1171 C   0  0  0  0  0  0  0  0  0  0  0  0
   22.9081   19.4666   22.8882 H   0  0  0  0  0  0  0  0  0  0  0  0
   22.6640   18.2149   21.6904 H   0  0  0  0  0  0  0  0  0  0  0  0
   22.0976   20.1945   21.0145 C   0  0  0  0  0  0  0  0  0  0  0  0
   21.6944   21.1325   21.4182 H   0  0  0  0  0  0  0  0  0  0  0  0
   23.0855   20.4099   20.5869 H   0  0  0  0  0  0  0  0  0  0  0  0
   21.4446   19.8573   20.1988 H   0  0  0  0  0  0  0  0  0  0  0  0
  1  2  1  0  0  0  0
  1  3  2  0  0  0  0
  1  4  1  0  0  0  0
  4  5  1  0  0  0  0
  4  6  1  0  0  0  0
  4  7  1  0  0  0  0
  7  8  1  0  0  0  0
  7  9  2  0  0  0  0
  9 10  1  0  0  0  0
  9 11  1  0  0  0  0
 11 12  1  0  0  0  0
 11 13  1  0  0  0  0
 11 14  1  0  0  0  0
 14 15  1  0  0  0  0
 14 16  1  0  0  0  0
 14 17  1  0  0  0  0
M  END
> <VConfSearch Rank>
413

> <Conf_Id>
19

> <Delta U+W>
-0.496

> <U+W>
-49.923

> <U>
13.863

> <W>
-63.786

> <W(PB)>
-65.856

> <W(SA)>
2.070

> <Valence>
14.117

> <Coulomb>
-1.228

> <VdW>
0.974

> <VdW6>
-4.885

> <VdW12>
5.859

> <Bond>
0.094

> <Angle>
2.818

> <Pdih>
11.205

> <Idih>
0.000

> <Tether>
0.000

$$$$
VeraChem MOL file


 17 16  0  0  0  0  0  0  0  0999 V2000     
   17.5712   17.7150   21.8825 C   0  0  0  0  0  0  0  0  0  0  0  0
   16.8951   18.2383   22.7461 O   0  5  0  0  0  0  0  0  0  0  0  0
   17.1900   17.5457   20.7410 O   0  0  0  0  0  0  0  0  0  0  0  0
   18.9688   17.2347   22.2511 C   0  0  0  0  0  0  0  0  0  0  0  0
   19.1222   16.2575   21.7789 H   0  0  0  0  0  0  0  0  0  0  0  0
   19.0021   17.0758   23.3357 H   0  0  0  0  0  0  0  0  0  0  0  0
   20.0506   18.2020   21.8099 C   0  0  0  0  0  0  0  0  0  0  0  0
   20.1813   18.2935   20.7321 H   0  0  0  0  0  0  0  0  0  0  0  0
   20.8068   18.9169   22.6487 C   0  0  0  0  0  0  0  0  0  0  0  0
   20.6722   18.8289   23.7263 H   0  0  0  0  0  0  0  0  0  0  0  0
   21.8830   19.8831   22.2066 C   0  0  0  0  0  0  0  0  0  0  0  0
   22.8046   19.6972   22.7746 H   0  0  0  0  0  0  0  0  0  0  0  0
   22.1285   19.7265   21.1471 H   0  0  0  0  0  0  0  0  0  0  0  0
   21.4359   21.3430   22.4159 C   0  0  0  0  0  0  0  0  0  0  0  0
   21.2208   21.5387   23.4746 H   0  0  0  0  0  0  0  0  0  0  0  0
   22.2203   22.0398   22.0931 H   0  0  0  0  0  0  0  0  0  0  0  0
   20.5283   21.5594   21.8370 H   0  0  0  0  0  0  0  0  0  0  0  0
  1  2  1  0  0  0  0
  1  3  2  0  0  0  0
  1  4  1  0  0  0  0
  4  5  1  0  0  0  0
  4  6  1  0  0  0  0
  4  7  1  0  0  0  0
  7  8  1  0  0  0  0
  7  9  2  0  0  0  0
  9 10  1  0  0  0  0
  9 11  1  0  0  0  0
 11 12  1  0  0  0  0
 11 13  1  0  0  0  0
 11 14  1  0  0  0  0
 14 15  1  0  0  0  0
 14 16  1  0  0  0  0
 14 17  1  0  0  0  0
M  END
> <VConfSearch Rank>
414

> <Conf_Id>
7

> <Delta U+W>
-0.041

> <U+W>
-49.468

> <U>
14.121

> <W>
-63.589

> <W(PB)>
-65.660

> <W(SA)>
2.071

> <Valence>
15.230

> <Coulomb>
-1.333

> <VdW>
0.224

> <VdW6>
-4.212

> <VdW12>
4.436

> <Bond>
0.044

> <Angle>
2.230

> <Pdih>
12.956

> <Idih>
0.000

> <Tether>
0.000

$$$$
VeraChem MOL file


 17 16  0  0  0  0  0  0  0  0999 V2000     
   17.4468   18.6508   22.0633 C   0  0  0  0  0  0  0  0  0  0  0  0
   16.9406   19.6836   22.4561 O   0  5  0  0  0  0  0  0  0  0  0  0
   17.1927   17.5584   22.5312 O   0  0  0  0  0  0  0  0  0  0  0  0
   18.4332   18.7265   20.9019 C   0  0  0  0  0  0  0  0  0  0  0  0
   18.1277   19.5570   20.2548 H   0  0  0  0  0  0  0  0  0  0  0  0
   18.3150   17.8172   20.3012 H   0  0  0  0  0  0  0  0  0  0  0  0
   19.8950   18.8944   21.2913 C   0  0  0  0  0  0  0  0  0  0  0  0
   20.5819   18.9461   20.4474 H   0  0  0  0  0  0  0  0  0  0  0  0
   20.3719   18.9810   22.5387 C   0  0  0  0  0  0  0  0  0  0  0  0
   19.7067   18.9331   23.4001 H   0  0  0  0  0  0  0  0  0  0  0  0
   21.8380   19.1462   22.8724 C   0  0  0  0  0  0  0  0  0  0  0  0
   22.1244   18.4254   23.6502 H   0  0  0  0  0  0  0  0  0  0  0  0
   22.4602   18.9259   21.9941 H   0  0  0  0  0  0  0  0  0  0  0  0
   22.1363   20.5765   23.3629 C   0  0  0  0  0  0  0  0  0  0  0  0
   23.2009   20.6903   23.6049 H   0  0  0  0  0  0  0  0  0  0  0  0
   21.8814   21.3143   22.5907 H   0  0  0  0  0  0  0  0  0  0  0  0
   21.5549   20.8104   24.2644 H   0  0  0  0  0  0  0  0  0  0  0  0
  1  2  1  0  0  0  0
  1  3  2  0  0  0  0
  1  4  1  0  0  0  0
  4  5  1  0  0  0  0
  4  6  1  0  0  0  0
  4  7  1  0  0  0  0
  7  8  1  0  0  0  0
  7  9  2  0  0  0  0
  9 10  1  0  0  0  0
  9 11  1  0  0  0  0
 11 12  1  0  0  0  0
 11 13  1  0  0  0  0
 11 14  1  0  0  0  0
 14 15  1  0  0  0  0
 14 16  1  0  0  0  0
 14 17  1  0  0  0  0
M  END
> <VConfSearch Rank>
415

> <Conf_Id>
39

> <Delta U+W>
-0.422

> <U+W>
-49.849

> <U>
14.465

> <W>
-64.314

> <W(PB)>
-66.406

> <W(SA)>
2.093

> <Valence>
14.072

> <Coulomb>
-0.199

> <VdW>
0.592

> <VdW6>
-5.019

> <VdW12>
5.611

> <Bond>
0.085

> <Angle>
2.748

> <Pdih>
11.238

> <Idih>
0.001

> <Tether>
0.000

$$$$
VeraChem MOL file


 17 16  0  0  0  0  0  0  0  0999 V2000     
   18.2854   17.5177   24.0046 C   0  0  0  0  0  0  0  0  0  0  0  0
   17.8532   18.0647   25.0001 O   0  5  0  0  0  0  0  0  0  0  0  0
   18.6836   16.3697   23.9881 O   0  0  0  0  0  0  0  0  0  0  0  0
   18.3239   18.3143   22.7071 C   0  0  0  0  0  0  0  0  0  0  0  0
   17.3964   18.8949   22.6429 H   0  0  0  0  0  0  0  0  0  0  0  0
   18.3178   17.6064   21.8696 H   0  0  0  0  0  0  0  0  0  0  0  0
   19.5237   19.2391   22.6287 C   0  0  0  0  0  0  0  0  0  0  0  0
   19.5166   20.0707   23.3326 H   0  0  0  0  0  0  0  0  0  0  0  0
   20.5395   19.0806   21.7749 C   0  0  0  0  0  0  0  0  0  0  0  0
   20.5474   18.2471   21.0733 H   0  0  0  0  0  0  0  0  0  0  0  0
   21.7369   20.0016   21.7007 C   0  0  0  0  0  0  0  0  0  0  0  0
   21.7819   20.6459   22.5895 H   0  0  0  0  0  0  0  0  0  0  0  0
   22.6612   19.4081   21.6944 H   0  0  0  0  0  0  0  0  0  0  0  0
   21.6821   20.8805   20.4359 C   0  0  0  0  0  0  0  0  0  0  0  0
   20.7775   21.5029   20.4326 H   0  0  0  0  0  0  0  0  0  0  0  0
   22.5537   21.5461   20.3873 H   0  0  0  0  0  0  0  0  0  0  0  0
   21.6749   20.2618   19.5290 H   0  0  0  0  0  0  0  0  0  0  0  0
  1  2  1  0  0  0  0
  1  3  2  0  0  0  0
  1  4  1  0  0  0  0
  4  5  1  0  0  0  0
  4  6  1  0  0  0  0
  4  7  1  0  0  0  0
  7  8  1  0  0  0  0
  7  9  2  0  0  0  0
  9 10  1  0  0  0  0
  9 11  1  0  0  0  0
 11 12  1  0  0  0  0
 11 13  1  0  0  0  0
 11 14  1  0  0  0  0
 14 15  1  0  0  0  0
 14 16  1  0  0  0  0
 14 17  1  0  0  0  0
M  END
> <VConfSearch Rank>
416

> <Conf_Id>
38

> <Delta U+W>
0.000

> <U+W>
-49.427

> <U>
13.666

> <W>
-63.093

> <W(PB)>
-65.225

> <W(SA)>
2.132

> <Valence>
15.226

> <Coulomb>
-1.822

> <VdW>
0.261

> <VdW6>
-4.165

> <VdW12>
4.426

> <Bond>
0.044

> <Angle>
2.229

> <Pdih>
12.953

> <Idih>
0.000

> <Tether>
0.000

$$$$
VeraChem MOL file


 17 16  0  0  0  0  0  0  0  0999 V2000     
   20.3921   21.9845   23.6994 C   0  0  0  0  0  0  0  0  0  0  0  0
   19.4372   22.6966   23.4585 O   0  5  0  0  0  0  0  0  0  0  0  0
   21.5234   22.4039   23.8450 O   0  0  0  0  0  0  0  0  0  0  0  0
   20.1596   20.4851   23.8320 C   0  0  0  0  0  0  0  0  0  0  0  0
   19.1083   20.3232   24.0986 H   0  0  0  0  0  0  0  0  0  0  0  0
   20.7628   20.1258   24.6738 H   0  0  0  0  0  0  0  0  0  0  0  0
   20.5234   19.7271   22.5696 C   0  0  0  0  0  0  0  0  0  0  0  0
   21.5857   19.7083   22.3282 H   0  0  0  0  0  0  0  0  0  0  0  0
   19.6365   19.1142   21.7796 C   0  0  0  0  0  0  0  0  0  0  0  0
   18.5740   19.1360   22.0199 H   0  0  0  0  0  0  0  0  0  0  0  0
   20.0007   18.3621   20.5190 C   0  0  0  0  0  0  0  0  0  0  0  0
   19.3448   18.6778   19.6964 H   0  0  0  0  0  0  0  0  0  0  0  0
   21.0283   18.6009   20.2122 H   0  0  0  0  0  0  0  0  0  0  0  0
   19.8704   16.8404   20.7248 C   0  0  0  0  0  0  0  0  0  0  0  0
   18.8417   16.5683   20.9954 H   0  0  0  0  0  0  0  0  0  0  0  0
   20.1352   16.3001   19.8066 H   0  0  0  0  0  0  0  0  0  0  0  0
   20.5373   16.4969   21.5266 H   0  0  0  0  0  0  0  0  0  0  0  0
  1  2  1  0  0  0  0
  1  3  2  0  0  0  0
  1  4  1  0  0  0  0
  4  5  1  0  0  0  0
  4  6  1  0  0  0  0
  4  7  1  0  0  0  0
  7  8  1  0  0  0  0
  7  9  2  0  0  0  0
  9 10  1  0  0  0  0
  9 11  1  0  0  0  0
 11 12  1  0  0  0  0
 11 13  1  0  0  0  0
 11 14  1  0  0  0  0
 14 15  1  0  0  0  0
 14 16  1  0  0  0  0
 14 17  1  0  0  0  0
M  END
> <VConfSearch Rank>
417

> <Conf_Id>
35

> <Delta U+W>
-0.102

> <U+W>
-49.529

> <U>
13.666

> <W>
-63.195

> <W(PB)>
-65.299

> <W(SA)>
2.103

> <Valence>
15.226

> <Coulomb>
-1.822

> <VdW>
0.261

> <VdW6>
-4.165

> <VdW12>
4.426

> <Bond>
0.044

> <Angle>
2.229

> <Pdih>
12.953

> <Idih>
0.000

> <Tether>
0.000

$$$$
VeraChem MOL file


 17 16  0  0  0  0  0  0  0  0999 V2000     
   18.1073   17.8041   23.8016 C   0  0  0  0  0  0  0  0  0  0  0  0
   18.1180   18.2438   24.9345 O   0  5  0  0  0  0  0  0  0  0  0  0
   17.0929   17.6481   23.1509 O   0  0  0  0  0  0  0  0  0  0  0  0
   19.4379   17.4195   23.1681 C   0  0  0  0  0  0  0  0  0  0  0  0
   19.2429   16.6775   22.3846 H   0  0  0  0  0  0  0  0  0  0  0  0
   20.0431   16.9233   23.9357 H   0  0  0  0  0  0  0  0  0  0  0  0
   20.1836   18.6175   22.6113 C   0  0  0  0  0  0  0  0  0  0  0  0
   20.5455   19.3169   23.3630 H   0  0  0  0  0  0  0  0  0  0  0  0
   20.3906   18.8277   21.3053 C   0  0  0  0  0  0  0  0  0  0  0  0
   20.0095   18.1077   20.5818 H   0  0  0  0  0  0  0  0  0  0  0  0
   21.1228   20.0031   20.6801 C   0  0  0  0  0  0  0  0  0  0  0  0
   21.9551   19.6227   20.0727 H   0  0  0  0  0  0  0  0  0  0  0  0
   20.4492   20.5080   19.9745 H   0  0  0  0  0  0  0  0  0  0  0  0
   21.6674   21.0416   21.6856 C   0  0  0  0  0  0  0  0  0  0  0  0
   22.3879   20.5823   22.3750 H   0  0  0  0  0  0  0  0  0  0  0  0
   22.1798   21.8564   21.1578 H   0  0  0  0  0  0  0  0  0  0  0  0
   20.8535   21.4830   22.2757 H   0  0  0  0  0  0  0  0  0  0  0  0
  1  2  1  0  0  0  0
  1  3  2  0  0  0  0
  1  4  1  0  0  0  0
  4  5  1  0  0  0  0
  4  6  1  0  0  0  0
  4  7  1  0  0  0  0
  7  8  1  0  0  0  0
  7  9  2  0  0  0  0
  9 10  1  0  0  0  0
  9 11  1  0  0  0  0
 11 12  1  0  0  0  0
 11 13  1  0  0  0  0
 11 14  1  0  0  0  0
 14 15  1  0  0  0  0
 14 16  1  0  0  0  0
 14 17  1  0  0  0  0
M  END
> <VConfSearch Rank>
418

> <Conf_Id>
19

> <Delta U+W>
-0.496

> <U+W>
-49.923

> <U>
13.863

> <W>
-63.786

> <W(PB)>
-65.856

> <W(SA)>
2.070

> <Valence>
14.117

> <Coulomb>
-1.228

> <VdW>
0.974

> <VdW6>
-4.885

> <VdW12>
5.859

> <Bond>
0.094

> <Angle>
2.818

> <Pdih>
11.205

> <Idih>
0.000

> <Tether>
0.000

$$$$
VeraChem MOL file


 17 16  0  0  0  0  0  0  0  0999 V2000     
   20.2017   21.9679   21.7787 C   0  0  0  0  0  0  0  0  0  0  0  0
   20.3072   22.3964   22.9110 O   0  5  0  0  0  0  0  0  0  0  0  0
   20.8694   22.3663   20.8445 O   0  0  0  0  0  0  0  0  0  0  0  0
   19.1699   20.8801   21.5111 C   0  0  0  0  0  0  0  0  0  0  0  0
   18.6711   21.1175   20.5644 H   0  0  0  0  0  0  0  0  0  0  0  0
   18.4068   20.9300   22.2972 H   0  0  0  0  0  0  0  0  0  0  0  0
   19.7887   19.4970   21.4414 C   0  0  0  0  0  0  0  0  0  0  0  0
   20.4439   19.3232   20.5883 H   0  0  0  0  0  0  0  0  0  0  0  0
   19.5791   18.5338   22.3439 C   0  0  0  0  0  0  0  0  0  0  0  0
   18.9280   18.7099   23.1996 H   0  0  0  0  0  0  0  0  0  0  0  0
   20.1995   17.1563   22.2741 C   0  0  0  0  0  0  0  0  0  0  0  0
   19.4261   16.3926   22.4322 H   0  0  0  0  0  0  0  0  0  0  0  0
   20.6223   16.9753   21.2762 H   0  0  0  0  0  0  0  0  0  0  0  0
   21.3065   16.9937   23.3338 C   0  0  0  0  0  0  0  0  0  0  0  0
   20.9033   17.1313   24.3457 H   0  0  0  0  0  0  0  0  0  0  0  0
   21.7536   15.9926   23.2784 H   0  0  0  0  0  0  0  0  0  0  0  0
   22.1044   17.7323   23.1804 H   0  0  0  0  0  0  0  0  0  0  0  0
  1  2  1  0  0  0  0
  1  3  2  0  0  0  0
  1  4  1  0  0  0  0
  4  5  1  0  0  0  0
  4  6  1  0  0  0  0
  4  7  1  0  0  0  0
  7  8  1  0  0  0  0
  7  9  2  0  0  0  0
  9 10  1  0  0  0  0
  9 11  1  0  0  0  0
 11 12  1  0  0  0  0
 11 13  1  0  0  0  0
 11 14  1  0  0  0  0
 14 15  1  0  0  0  0
 14 16  1  0  0  0  0
 14 17  1  0  0  0  0
M  END
> <VConfSearch Rank>
419

> <Conf_Id>
7

> <Delta U+W>
-0.041

> <U+W>
-49.468

> <U>
14.121

> <W>
-63.589

> <W(PB)>
-65.660

> <W(SA)>
2.071

> <Valence>
15.230

> <Coulomb>
-1.333

> <VdW>
0.224

> <VdW6>
-4.212

> <VdW12>
4.436

> <Bond>
0.044

> <Angle>
2.230

> <Pdih>
12.956

> <Idih>
0.000

> <Tether>
0.000

$$$$
VeraChem MOL file


 17 16  0  0  0  0  0  0  0  0999 V2000     
   19.8866   17.1241   23.9840 C   0  0  0  0  0  0  0  0  0  0  0  0
   20.6521   16.3315   23.4713 O   0  5  0  0  0  0  0  0  0  0  0  0
   18.7256   16.8685   24.2370 O   0  0  0  0  0  0  0  0  0  0  0  0
   20.4188   18.5048   24.3555 C   0  0  0  0  0  0  0  0  0  0  0  0
   21.4764   18.3967   24.6230 H   0  0  0  0  0  0  0  0  0  0  0  0
   19.9079   18.8265   25.2704 H   0  0  0  0  0  0  0  0  0  0  0  0
   20.2705   19.5762   23.2845 C   0  0  0  0  0  0  0  0  0  0  0  0
   20.6567   20.5538   23.5703 H   0  0  0  0  0  0  0  0  0  0  0  0
   19.7266   19.4078   22.0734 C   0  0  0  0  0  0  0  0  0  0  0  0
   19.3340   18.4405   21.7623 H   0  0  0  0  0  0  0  0  0  0  0  0
   19.6017   20.5087   21.0436 C   0  0  0  0  0  0  0  0  0  0  0  0
   18.5811   20.5223   20.6378 H   0  0  0  0  0  0  0  0  0  0  0  0
   19.7695   21.4906   21.5072 H   0  0  0  0  0  0  0  0  0  0  0  0
   20.6088   20.3087   19.8944 C   0  0  0  0  0  0  0  0  0  0  0  0
   20.5128   21.1094   19.1496 H   0  0  0  0  0  0  0  0  0  0  0  0
   21.6393   20.3173   20.2733 H   0  0  0  0  0  0  0  0  0  0  0  0
   20.4391   19.3496   19.3876 H   0  0  0  0  0  0  0  0  0  0  0  0
  1  2  1  0  0  0  0
  1  3  2  0  0  0  0
  1  4  1  0  0  0  0
  4  5  1  0  0  0  0
  4  6  1  0  0  0  0
  4  7  1  0  0  0  0
  7  8  1  0  0  0  0
  7  9  2  0  0  0  0
  9 10  1  0  0  0  0
  9 11  1  0  0  0  0
 11 12  1  0  0  0  0
 11 13  1  0  0  0  0
 11 14  1  0  0  0  0
 14 15  1  0  0  0  0
 14 16  1  0  0  0  0
 14 17  1  0  0  0  0
M  END
> <VConfSearch Rank>
420

> <Conf_Id>
39

> <Delta U+W>
-0.422

> <U+W>
-49.849

> <U>
14.465

> <W>
-64.314

> <W(PB)>
-66.406

> <W(SA)>
2.093

> <Valence>
14.072

> <Coulomb>
-0.199

> <VdW>
0.592

> <VdW6>
-5.019

> <VdW12>
5.611

> <Bond>
0.085

> <Angle>
2.748

> <Pdih>
11.238

> <Idih>
0.001

> <Tether>
0.000

$$$$
VeraChem MOL file


 17 16  0  0  0  0  0  0  0  0999 V2000     
   20.5899   17.4136   24.6205 C   0  0  0  0  0  0  0  0  0  0  0  0
   20.9366   17.9660   25.6459 O   0  5  0  0  0  0  0  0  0  0  0  0
   21.0384   16.3478   24.2467 O   0  0  0  0  0  0  0  0  0  0  0  0
   19.5317   18.0931   23.7614 C   0  0  0  0  0  0  0  0  0  0  0  0
   18.7714   18.5087   24.4328 H   0  0  0  0  0  0  0  0  0  0  0  0
   19.0379   17.3251   23.1539 H   0  0  0  0  0  0  0  0  0  0  0  0
   20.1096   19.1894   22.8869 C   0  0  0  0  0  0  0  0  0  0  0  0
   20.4760   20.0657   23.4210 H   0  0  0  0  0  0  0  0  0  0  0  0
   20.1859   19.1254   21.5541 C   0  0  0  0  0  0  0  0  0  0  0  0
   19.8221   18.2476   21.0210 H   0  0  0  0  0  0  0  0  0  0  0  0
   20.7659   20.2180   20.6841 C   0  0  0  0  0  0  0  0  0  0  0  0
   21.3339   20.9341   21.2939 H   0  0  0  0  0  0  0  0  0  0  0  0
   21.4748   19.7833   19.9664 H   0  0  0  0  0  0  0  0  0  0  0  0
   19.6557   20.9661   19.9206 C   0  0  0  0  0  0  0  0  0  0  0  0
   18.9479   21.4316   20.6191 H   0  0  0  0  0  0  0  0  0  0  0  0
   20.0828   21.7572   19.2906 H   0  0  0  0  0  0  0  0  0  0  0  0
   19.0953   20.2797   19.2724 H   0  0  0  0  0  0  0  0  0  0  0  0
  1  2  1  0  0  0  0
  1  3  2  0  0  0  0
  1  4  1  0  0  0  0
  4  5  1  0  0  0  0
  4  6  1  0  0  0  0
  4  7  1  0  0  0  0
  7  8  1  0  0  0  0
  7  9  2  0  0  0  0
  9 10  1  0  0  0  0
  9 11  1  0  0  0  0
 11 12  1  0  0  0  0
 11 13  1  0  0  0  0
 11 14  1  0  0  0  0
 14 15  1  0  0  0  0
 14 16  1  0  0  0  0
 14 17  1  0  0  0  0
M  END
> <VConfSearch Rank>
421

> <Conf_Id>
38

> <Delta U+W>
0.000

> <U+W>
-49.427

> <U>
13.666

> <W>
-63.093

> <W(PB)>
-65.225

> <W(SA)>
2.132

> <Valence>
15.226

> <Coulomb>
-1.822

> <VdW>
0.261

> <VdW6>
-4.165

> <VdW12>
4.426

> <Bond>
0.044

> <Angle>
2.229

> <Pdih>
12.953

> <Idih>
0.000

> <Tether>
0.000

$$$$
VeraChem MOL file


 17 16  0  0  0  0  0  0  0  0999 V2000     
   21.3166   16.4870   21.2276 C   0  0  0  0  0  0  0  0  0  0  0  0
   20.5227   15.9091   20.5116 O   0  5  0  0  0  0  0  0  0  0  0  0
   22.0204   15.9236   22.0425 O   0  0  0  0  0  0  0  0  0  0  0  0
   21.4418   17.9990   21.0941 C   0  0  0  0  0  0  0  0  0  0  0  0
   21.0991   18.2846   20.0923 H   0  0  0  0  0  0  0  0  0  0  0  0
   22.5064   18.2534   21.1534 H   0  0  0  0  0  0  0  0  0  0  0  0
   20.6681   18.7428   22.1660 C   0  0  0  0  0  0  0  0  0  0  0  0
   21.0551   18.6343   23.1787 H   0  0  0  0  0  0  0  0  0  0  0  0
   19.5832   19.4867   21.9295 C   0  0  0  0  0  0  0  0  0  0  0  0
   19.1950   19.5922   20.9170 H   0  0  0  0  0  0  0  0  0  0  0  0
   18.8107   20.2245   23.0001 C   0  0  0  0  0  0  0  0  0  0  0  0
   17.7372   20.0193   22.8905 H   0  0  0  0  0  0  0  0  0  0  0  0
   19.0997   19.8669   23.9981 H   0  0  0  0  0  0  0  0  0  0  0  0
   19.0551   21.7435   22.9121 C   0  0  0  0  0  0  0  0  0  0  0  0
   18.7388   22.1353   21.9364 H   0  0  0  0  0  0  0  0  0  0  0  0
   18.4915   22.2735   23.6909 H   0  0  0  0  0  0  0  0  0  0  0  0
   20.1201   21.9754   23.0448 H   0  0  0  0  0  0  0  0  0  0  0  0
  1  2  1  0  0  0  0
  1  3  2  0  0  0  0
  1  4  1  0  0  0  0
  4  5  1  0  0  0  0
  4  6  1  0  0  0  0
  4  7  1  0  0  0  0
  7  8  1  0  0  0  0
  7  9  2  0  0  0  0
  9 10  1  0  0  0  0
  9 11  1  0  0  0  0
 11 12  1  0  0  0  0
 11 13  1  0  0  0  0
 11 14  1  0  0  0  0
 14 15  1  0  0  0  0
 14 16  1  0  0  0  0
 14 17  1  0  0  0  0
M  END
> <VConfSearch Rank>
422

> <Conf_Id>
35

> <Delta U+W>
-0.102

> <U+W>
-49.529

> <U>
13.666

> <W>
-63.195

> <W(PB)>
-65.299

> <W(SA)>
2.103

> <Valence>
15.226

> <Coulomb>
-1.822

> <VdW>
0.261

> <VdW6>
-4.165

> <VdW12>
4.426

> <Bond>
0.044

> <Angle>
2.229

> <Pdih>
12.953

> <Idih>
0.000

> <Tether>
0.000

$$$$
VeraChem MOL file


 17 16  0  0  0  0  0  0  0  0999 V2000     
   23.0989   18.8260   21.6039 C   0  0  0  0  0  0  0  0  0  0  0  0
   23.4127   17.6519   21.6112 O   0  5  0  0  0  0  0  0  0  0  0  0
   23.4488   19.6097   20.7436 O   0  0  0  0  0  0  0  0  0  0  0  0
   22.2275   19.3433   22.7409 C   0  0  0  0  0  0  0  0  0  0  0  0
   22.3917   20.4235   22.8346 H   0  0  0  0  0  0  0  0  0  0  0  0
   22.5824   18.8835   23.6705 H   0  0  0  0  0  0  0  0  0  0  0  0
   20.7574   19.0310   22.5339 C   0  0  0  0  0  0  0  0  0  0  0  0
   20.5054   17.9734   22.5901 H   0  0  0  0  0  0  0  0  0  0  0  0
   19.8230   19.9594   22.2941 C   0  0  0  0  0  0  0  0  0  0  0  0
   20.1138   21.0081   22.2405 H   0  0  0  0  0  0  0  0  0  0  0  0
   18.3391   19.7179   22.0743 C   0  0  0  0  0  0  0  0  0  0  0  0
   17.7702   20.2916   22.8185 H   0  0  0  0  0  0  0  0  0  0  0  0
   18.0512   20.1329   21.0989 H   0  0  0  0  0  0  0  0  0  0  0  0
   17.9027   18.2376   22.1392 C   0  0  0  0  0  0  0  0  0  0  0  0
   18.1264   17.8037   23.1226 H   0  0  0  0  0  0  0  0  0  0  0  0
   16.8218   18.1473   21.9701 H   0  0  0  0  0  0  0  0  0  0  0  0
   18.4139   17.6422   21.3714 H   0  0  0  0  0  0  0  0  0  0  0  0
  1  2  1  0  0  0  0
  1  3  2  0  0  0  0
  1  4  1  0  0  0  0
  4  5  1  0  0  0  0
  4  6  1  0  0  0  0
  4  7  1  0  0  0  0
  7  8  1  0  0  0  0
  7  9  2  0  0  0  0
  9 10  1  0  0  0  0
  9 11  1  0  0  0  0
 11 12  1  0  0  0  0
 11 13  1  0  0  0  0
 11 14  1  0  0  0  0
 14 15  1  0  0  0  0
 14 16  1  0  0  0  0
 14 17  1  0  0  0  0
M  END
> <VConfSearch Rank>
423

> <Conf_Id>
19

> <Delta U+W>
-0.496

> <U+W>
-49.923

> <U>
13.863

> <W>
-63.786

> <W(PB)>
-65.856

> <W(SA)>
2.070

> <Valence>
14.117

> <Coulomb>
-1.228

> <VdW>
0.974

> <VdW6>
-4.885

> <VdW12>
5.859

> <Bond>
0.094

> <Angle>
2.818

> <Pdih>
11.205

> <Idih>
0.000

> <Tether>
0.000

$$$$
VeraChem MOL file


 17 16  0  0  0  0  0  0  0  0999 V2000     
   17.4995   20.2286   22.6573 C   0  0  0  0  0  0  0  0  0  0  0  0
   16.8875   19.8582   21.6750 O   0  5  0  0  0  0  0  0  0  0  0  0
   17.0604   20.1592   23.7884 O   0  0  0  0  0  0  0  0  0  0  0  0
   18.8885   20.8222   22.4618 C   0  0  0  0  0  0  0  0  0  0  0  0
   18.9754   21.6942   23.1202 H   0  0  0  0  0  0  0  0  0  0  0  0
   18.9627   21.1896   21.4312 H   0  0  0  0  0  0  0  0  0  0  0  0
   19.9931   19.8281   22.7655 C   0  0  0  0  0  0  0  0  0  0  0  0
   20.0796   19.5342   23.8112 H   0  0  0  0  0  0  0  0  0  0  0  0
   20.8181   19.3177   21.8462 C   0  0  0  0  0  0  0  0  0  0  0  0
   20.7277   19.6080   20.8000 H   0  0  0  0  0  0  0  0  0  0  0  0
   21.9170   18.3243   22.1507 C   0  0  0  0  0  0  0  0  0  0  0  0
   22.8534   18.6505   21.6783 H   0  0  0  0  0  0  0  0  0  0  0  0
   22.1075   18.2813   23.2320 H   0  0  0  0  0  0  0  0  0  0  0  0
   21.5476   16.9173   21.6419 C   0  0  0  0  0  0  0  0  0  0  0  0
   21.3892   16.9228   20.5555 H   0  0  0  0  0  0  0  0  0  0  0  0
   22.3482   16.2004   21.8658 H   0  0  0  0  0  0  0  0  0  0  0  0
   20.6261   16.5596   22.1199 H   0  0  0  0  0  0  0  0  0  0  0  0
  1  2  1  0  0  0  0
  1  3  2  0  0  0  0
  1  4  1  0  0  0  0
  4  5  1  0  0  0  0
  4  6  1  0  0  0  0
  4  7  1  0  0  0  0
  7  8  1  0  0  0  0
  7  9  2  0  0  0  0
  9 10  1  0  0  0  0
  9 11  1  0  0  0  0
 11 12  1  0  0  0  0
 11 13  1  0  0  0  0
 11 14  1  0  0  0  0
 14 15  1  0  0  0  0
 14 16  1  0  0  0  0
 14 17  1  0  0  0  0
M  END
> <VConfSearch Rank>
424

> <Conf_Id>
7

> <Delta U+W>
-0.041

> <U+W>
-49.468

> <U>
14.121

> <W>
-63.589

> <W(PB)>
-65.660

> <W(SA)>
2.071

> <Valence>
15.230

> <Coulomb>
-1.333

> <VdW>
0.224

> <VdW6>
-4.212

> <VdW12>
4.436

> <Bond>
0.044

> <Angle>
2.230

> <Pdih>
12.956

> <Idih>
0.000

> <Tether>
0.000

$$$$
VeraChem MOL file


 17 16  0  0  0  0  0  0  0  0999 V2000     
   20.6003   21.5942   20.8461 C   0  0  0  0  0  0  0  0  0  0  0  0
   20.2866   21.2459   19.7249 O   0  5  0  0  0  0  0  0  0  0  0  0
   21.6766   22.0884   21.1191 O   0  0  0  0  0  0  0  0  0  0  0  0
   19.5780   21.4278   21.9663 C   0  0  0  0  0  0  0  0  0  0  0  0
   18.5794   21.5512   21.5312 H   0  0  0  0  0  0  0  0  0  0  0  0
   19.7073   22.2620   22.6655 H   0  0  0  0  0  0  0  0  0  0  0  0
   19.6442   20.1104   22.7259 C   0  0  0  0  0  0  0  0  0  0  0  0
   18.9060   20.0124   23.5209 H   0  0  0  0  0  0  0  0  0  0  0  0
   20.5038   19.1111   22.4944 C   0  0  0  0  0  0  0  0  0  0  0  0
   21.2510   19.1831   21.7050 H   0  0  0  0  0  0  0  0  0  0  0  0
   20.5286   17.8196   23.2813 C   0  0  0  0  0  0  0  0  0  0  0  0
   21.5591   17.5906   23.5849 H   0  0  0  0  0  0  0  0  0  0  0  0
   19.9429   17.9202   24.2054 H   0  0  0  0  0  0  0  0  0  0  0  0
   19.9676   16.6519   22.4466 C   0  0  0  0  0  0  0  0  0  0  0  0
   19.9893   15.7172   23.0219 H   0  0  0  0  0  0  0  0  0  0  0  0
   18.9278   16.8472   22.1526 H   0  0  0  0  0  0  0  0  0  0  0  0
   20.5589   16.5039   21.5334 H   0  0  0  0  0  0  0  0  0  0  0  0
  1  2  1  0  0  0  0
  1  3  2  0  0  0  0
  1  4  1  0  0  0  0
  4  5  1  0  0  0  0
  4  6  1  0  0  0  0
  4  7  1  0  0  0  0
  7  8  1  0  0  0  0
  7  9  2  0  0  0  0
  9 10  1  0  0  0  0
  9 11  1  0  0  0  0
 11 12  1  0  0  0  0
 11 13  1  0  0  0  0
 11 14  1  0  0  0  0
 14 15  1  0  0  0  0
 14 16  1  0  0  0  0
 14 17  1  0  0  0  0
M  END
> <VConfSearch Rank>
425

> <Conf_Id>
39

> <Delta U+W>
-0.422

> <U+W>
-49.849

> <U>
14.465

> <W>
-64.314

> <W(PB)>
-66.406

> <W(SA)>
2.093

> <Valence>
14.072

> <Coulomb>
-0.199

> <VdW>
0.592

> <VdW6>
-5.019

> <VdW12>
5.611

> <Bond>
0.085

> <Angle>
2.748

> <Pdih>
11.238

> <Idih>
0.001

> <Tether>
0.000

$$$$
VeraChem MOL file


 17 16  0  0  0  0  0  0  0  0999 V2000     
   20.1981   17.1350   19.7740 C   0  0  0  0  0  0  0  0  0  0  0  0
   19.1376   16.8620   19.2470 O   0  5  0  0  0  0  0  0  0  0  0  0
   21.0565   16.3115   20.0226 O   0  0  0  0  0  0  0  0  0  0  0  0
   20.4660   18.5897   20.1370 C   0  0  0  0  0  0  0  0  0  0  0  0
   20.0969   19.2135   19.3147 H   0  0  0  0  0  0  0  0  0  0  0  0
   21.5516   18.7361   20.1884 H   0  0  0  0  0  0  0  0  0  0  0  0
   19.8003   18.9958   21.4380 C   0  0  0  0  0  0  0  0  0  0  0  0
   18.7116   19.0301   21.4125 H   0  0  0  0  0  0  0  0  0  0  0  0
   20.4631   19.2957   22.5592 C   0  0  0  0  0  0  0  0  0  0  0  0
   21.5517   19.2583   22.5849 H   0  0  0  0  0  0  0  0  0  0  0  0
   19.7976   19.6968   23.8567 C   0  0  0  0  0  0  0  0  0  0  0  0
   18.7244   19.4632   23.8264 H   0  0  0  0  0  0  0  0  0  0  0  0
   20.2232   19.1165   24.6865 H   0  0  0  0  0  0  0  0  0  0  0  0
   19.9844   21.2014   24.1330 C   0  0  0  0  0  0  0  0  0  0  0  0
   19.5432   21.8034   23.3278 H   0  0  0  0  0  0  0  0  0  0  0  0
   19.5000   21.4863   25.0760 H   0  0  0  0  0  0  0  0  0  0  0  0
   21.0497   21.4568   24.2066 H   0  0  0  0  0  0  0  0  0  0  0  0
  1  2  1  0  0  0  0
  1  3  2  0  0  0  0
  1  4  1  0  0  0  0
  4  5  1  0  0  0  0
  4  6  1  0  0  0  0
  4  7  1  0  0  0  0
  7  8  1  0  0  0  0
  7  9  2  0  0  0  0
  9 10  1  0  0  0  0
  9 11  1  0  0  0  0
 11 12  1  0  0  0  0
 11 13  1  0  0  0  0
 11 14  1  0  0  0  0
 14 15  1  0  0  0  0
 14 16  1  0  0  0  0
 14 17  1  0  0  0  0
M  END
> <VConfSearch Rank>
426

> <Conf_Id>
38

> <Delta U+W>
0.000

> <U+W>
-49.427

> <U>
13.666

> <W>
-63.093

> <W(PB)>
-65.225

> <W(SA)>
2.132

> <Valence>
15.226

> <Coulomb>
-1.822

> <VdW>
0.261

> <VdW6>
-4.165

> <VdW12>
4.426

> <Bond>
0.044

> <Angle>
2.229

> <Pdih>
12.953

> <Idih>
0.000

> <Tether>
0.000

$$$$
VeraChem MOL file


 17 16  0  0  0  0  0  0  0  0999 V2000     
   21.1482   20.7743   19.5324 C   0  0  0  0  0  0  0  0  0  0  0  0
   20.8729   20.1196   18.5463 O   0  5  0  0  0  0  0  0  0  0  0  0
   22.1839   21.3977   19.6574 O   0  0  0  0  0  0  0  0  0  0  0  0
   20.1395   20.8217   20.6725 C   0  0  0  0  0  0  0  0  0  0  0  0
   19.1474   20.5975   20.2625 H   0  0  0  0  0  0  0  0  0  0  0  0
   20.1062   21.8512   21.0476 H   0  0  0  0  0  0  0  0  0  0  0  0
   20.4906   19.8682   21.7987 C   0  0  0  0  0  0  0  0  0  0  0  0
   21.3877   20.1238   22.3618 H   0  0  0  0  0  0  0  0  0  0  0  0
   19.7801   18.7800   22.1104 C   0  0  0  0  0  0  0  0  0  0  0  0
   18.8849   18.5233   21.5449 H   0  0  0  0  0  0  0  0  0  0  0  0
   20.1338   17.8282   23.2312 C   0  0  0  0  0  0  0  0  0  0  0  0
   20.0968   16.7935   22.8644 H   0  0  0  0  0  0  0  0  0  0  0  0
   21.1625   18.0042   23.5748 H   0  0  0  0  0  0  0  0  0  0  0  0
   19.1651   17.9871   24.4193 C   0  0  0  0  0  0  0  0  0  0  0  0
   18.1317   17.7789   24.1126 H   0  0  0  0  0  0  0  0  0  0  0  0
   19.4264   17.2934   25.2290 H   0  0  0  0  0  0  0  0  0  0  0  0
   19.2038   19.0086   24.8199 H   0  0  0  0  0  0  0  0  0  0  0  0
  1  2  1  0  0  0  0
  1  3  2  0  0  0  0
  1  4  1  0  0  0  0
  4  5  1  0  0  0  0
  4  6  1  0  0  0  0
  4  7  1  0  0  0  0
  7  8  1  0  0  0  0
  7  9  2  0  0  0  0
  9 10  1  0  0  0  0
  9 11  1  0  0  0  0
 11 12  1  0  0  0  0
 11 13  1  0  0  0  0
 11 14  1  0  0  0  0
 14 15  1  0  0  0  0
 14 16  1  0  0  0  0
 14 17  1  0  0  0  0
M  END
> <VConfSearch Rank>
427

> <Conf_Id>
35

> <Delta U+W>
-0.102

> <U+W>
-49.529

> <U>
13.666

> <W>
-63.195

> <W(PB)>
-65.299

> <W(SA)>
2.103

> <Valence>
15.226

> <Coulomb>
-1.822

> <VdW>
0.261

> <VdW6>
-4.165

> <VdW12>
4.426

> <Bond>
0.044

> <Angle>
2.229

> <Pdih>
12.953

> <Idih>
0.000

> <Tether>
0.000

$$$$
VeraChem MOL file


 17 16  0  0  0  0  0  0  0  0999 V2000     
   20.3730   17.3071   24.5427 C   0  0  0  0  0  0  0  0  0  0  0  0
   19.4281   17.5098   25.2797 O   0  5  0  0  0  0  0  0  0  0  0  0
   20.7527   16.1967   24.2270 O   0  0  0  0  0  0  0  0  0  0  0  0
   21.1266   18.5113   23.9937 C   0  0  0  0  0  0  0  0  0  0  0  0
   22.1429   18.1910   23.7348 H   0  0  0  0  0  0  0  0  0  0  0  0
   21.2185   19.2458   24.8022 H   0  0  0  0  0  0  0  0  0  0  0  0
   20.4309   19.1364   22.7993 C   0  0  0  0  0  0  0  0  0  0  0  0
   19.4805   19.6160   23.0269 H   0  0  0  0  0  0  0  0  0  0  0  0
   20.9191   19.1111   21.5528 C   0  0  0  0  0  0  0  0  0  0  0  0
   21.8717   18.6177   21.3626 H   0  0  0  0  0  0  0  0  0  0  0  0
   20.2760   19.7112   20.3139 C   0  0  0  0  0  0  0  0  0  0  0  0
   20.9737   20.4292   19.8621 H   0  0  0  0  0  0  0  0  0  0  0  0
   20.1403   18.9200   19.5641 H   0  0  0  0  0  0  0  0  0  0  0  0
   18.9207   20.4113   20.5568 C   0  0  0  0  0  0  0  0  0  0  0  0
   19.0290   21.2454   21.2624 H   0  0  0  0  0  0  0  0  0  0  0  0
   18.5226   20.8157   19.6171 H   0  0  0  0  0  0  0  0  0  0  0  0
   18.1807   19.7077   20.9602 H   0  0  0  0  0  0  0  0  0  0  0  0
  1  2  1  0  0  0  0
  1  3  2  0  0  0  0
  1  4  1  0  0  0  0
  4  5  1  0  0  0  0
  4  6  1  0  0  0  0
  4  7  1  0  0  0  0
  7  8  1  0  0  0  0
  7  9  2  0  0  0  0
  9 10  1  0  0  0  0
  9 11  1  0  0  0  0
 11 12  1  0  0  0  0
 11 13  1  0  0  0  0
 11 14  1  0  0  0  0
 14 15  1  0  0  0  0
 14 16  1  0  0  0  0
 14 17  1  0  0  0  0
M  END
> <VConfSearch Rank>
428

> <Conf_Id>
19

> <Delta U+W>
-0.496

> <U+W>
-49.923

> <U>
13.863

> <W>
-63.786

> <W(PB)>
-65.856

> <W(SA)>
2.070

> <Valence>
14.117

> <Coulomb>
-1.228

> <VdW>
0.974

> <VdW6>
-4.885

> <VdW12>
5.859

> <Bond>
0.094

> <Angle>
2.818

> <Pdih>
11.205

> <Idih>
0.000

> <Tether>
0.000

$$$$
VeraChem MOL file


 17 16  0  0  0  0  0  0  0  0999 V2000     
   21.9665   17.0168   23.2867 C   0  0  0  0  0  0  0  0  0  0  0  0
   22.0468   17.3321   24.4576 O   0  5  0  0  0  0  0  0  0  0  0  0
   21.7798   15.8769   22.9090 O   0  0  0  0  0  0  0  0  0  0  0  0
   22.1185   18.1062   22.2332 C   0  0  0  0  0  0  0  0  0  0  0  0
   22.7408   17.7054   21.4248 H   0  0  0  0  0  0  0  0  0  0  0  0
   22.6715   18.9411   22.6801 H   0  0  0  0  0  0  0  0  0  0  0  0
   20.7841   18.5712   21.6817 C   0  0  0  0  0  0  0  0  0  0  0  0
   20.2444   17.8344   21.0875 H   0  0  0  0  0  0  0  0  0  0  0  0
   20.2664   19.7853   21.8917 C   0  0  0  0  0  0  0  0  0  0  0  0
   20.8042   20.5199   22.4902 H   0  0  0  0  0  0  0  0  0  0  0  0
   18.9344   20.2459   21.3433 C   0  0  0  0  0  0  0  0  0  0  0  0
   19.0476   21.2324   20.8737 H   0  0  0  0  0  0  0  0  0  0  0  0
   18.5843   19.5612   20.5586 H   0  0  0  0  0  0  0  0  0  0  0  0
   17.8746   20.3267   22.4593 C   0  0  0  0  0  0  0  0  0  0  0  0
   18.1813   21.0350   23.2401 H   0  0  0  0  0  0  0  0  0  0  0  0
   16.9100   20.6609   22.0558 H   0  0  0  0  0  0  0  0  0  0  0  0
   17.7264   19.3447   22.9277 H   0  0  0  0  0  0  0  0  0  0  0  0
  1  2  1  0  0  0  0
  1  3  2  0  0  0  0
  1  4  1  0  0  0  0
  4  5  1  0  0  0  0
  4  6  1  0  0  0  0
  4  7  1  0  0  0  0
  7  8  1  0  0  0  0
  7  9  2  0  0  0  0
  9 10  1  0  0  0  0
  9 11  1  0  0  0  0
 11 12  1  0  0  0  0
 11 13  1  0  0  0  0
 11 14  1  0  0  0  0
 14 15  1  0  0  0  0
 14 16  1  0  0  0  0
 14 17  1  0  0  0  0
M  END
> <VConfSearch Rank>
429

> <Conf_Id>
7

> <Delta U+W>
-0.041

> <U+W>
-49.468

> <U>
14.121

> <W>
-63.589

> <W(PB)>
-65.660

> <W(SA)>
2.071

> <Valence>
15.230

> <Coulomb>
-1.333

> <VdW>
0.224

> <VdW6>
-4.212

> <VdW12>
4.436

> <Bond>
0.044

> <Angle>
2.230

> <Pdih>
12.956

> <Idih>
0.000

> <Tether>
0.000

$$$$
VeraChem MOL file


 17 16  0  0  0  0  0  0  0  0999 V2000     
   22.5628   18.0167   22.6263 C   0  0  0  0  0  0  0  0  0  0  0  0
   22.5173   17.1720   21.7537 O   0  5  0  0  0  0  0  0  0  0  0  0
   22.7795   17.7634   23.7950 O   0  0  0  0  0  0  0  0  0  0  0  0
   22.3649   19.4763   22.2290 C   0  0  0  0  0  0  0  0  0  0  0  0
   22.7603   19.6053   21.2147 H   0  0  0  0  0  0  0  0  0  0  0  0
   22.9985   20.0902   22.8797 H   0  0  0  0  0  0  0  0  0  0  0  0
   20.9312   19.9843   22.2861 C   0  0  0  0  0  0  0  0  0  0  0  0
   20.8125   21.0283   21.9988 H   0  0  0  0  0  0  0  0  0  0  0  0
   19.8576   19.2707   22.6455 C   0  0  0  0  0  0  0  0  0  0  0  0
   19.9485   18.2248   22.9363 H   0  0  0  0  0  0  0  0  0  0  0  0
   18.4508   19.8250   22.6869 C   0  0  0  0  0  0  0  0  0  0  0  0
   17.9751   19.5573   23.6400 H   0  0  0  0  0  0  0  0  0  0  0  0
   18.4677   20.9226   22.6405 H   0  0  0  0  0  0  0  0  0  0  0  0
   17.6058   19.2783   21.5197 C   0  0  0  0  0  0  0  0  0  0  0  0
   16.5859   19.6826   21.5555 H   0  0  0  0  0  0  0  0  0  0  0  0
   18.0490   19.5560   20.5542 H   0  0  0  0  0  0  0  0  0  0  0  0
   17.5401   18.1832   21.5633 H   0  0  0  0  0  0  0  0  0  0  0  0
  1  2  1  0  0  0  0
  1  3  2  0  0  0  0
  1  4  1  0  0  0  0
  4  5  1  0  0  0  0
  4  6  1  0  0  0  0
  4  7  1  0  0  0  0
  7  8  1  0  0  0  0
  7  9  2  0  0  0  0
  9 10  1  0  0  0  0
  9 11  1  0  0  0  0
 11 12  1  0  0  0  0
 11 13  1  0  0  0  0
 11 14  1  0  0  0  0
 14 15  1  0  0  0  0
 14 16  1  0  0  0  0
 14 17  1  0  0  0  0
M  END
> <VConfSearch Rank>
430

> <Conf_Id>
39

> <Delta U+W>
-0.422

> <U+W>
-49.849

> <U>
14.465

> <W>
-64.314

> <W(PB)>
-66.406

> <W(SA)>
2.093

> <Valence>
14.072

> <Coulomb>
-0.199

> <VdW>
0.592

> <VdW6>
-5.019

> <VdW12>
5.611

> <Bond>
0.085

> <Angle>
2.748

> <Pdih>
11.238

> <Idih>
0.001

> <Tether>
0.000

$$$$
VeraChem MOL file


 17 16  0  0  0  0  0  0  0  0999 V2000     
   17.5307   19.2674   23.9407 C   0  0  0  0  0  0  0  0  0  0  0  0
   16.4813   19.5625   23.4035 O   0  5  0  0  0  0  0  0  0  0  0  0
   17.8382   19.6296   25.0593 O   0  0  0  0  0  0  0  0  0  0  0  0
   18.5101   18.3915   23.1705 C   0  0  0  0  0  0  0  0  0  0  0  0
   17.9319   17.6157   22.6554 H   0  0  0  0  0  0  0  0  0  0  0  0
   19.1572   17.8818   23.8944 H   0  0  0  0  0  0  0  0  0  0  0  0
   19.3312   19.1807   22.1686 C   0  0  0  0  0  0  0  0  0  0  0  0
   18.7725   19.5846   21.3248 H   0  0  0  0  0  0  0  0  0  0  0  0
   20.6465   19.3917   22.2757 C   0  0  0  0  0  0  0  0  0  0  0  0
   21.2040   18.9900   23.1212 H   0  0  0  0  0  0  0  0  0  0  0  0
   21.4630   20.1821   21.2776 C   0  0  0  0  0  0  0  0  0  0  0  0
   20.8047   20.7589   20.6134 H   0  0  0  0  0  0  0  0  0  0  0  0
   22.0924   20.9100   21.8073 H   0  0  0  0  0  0  0  0  0  0  0  0
   22.3539   19.2524   20.4309 C   0  0  0  0  0  0  0  0  0  0  0  0
   21.7438   18.5311   19.8713 H   0  0  0  0  0  0  0  0  0  0  0  0
   22.9443   19.8316   19.7091 H   0  0  0  0  0  0  0  0  0  0  0  0
   23.0500   18.6904   21.0674 H   0  0  0  0  0  0  0  0  0  0  0  0
  1  2  1  0  0  0  0
  1  3  2  0  0  0  0
  1  4  1  0  0  0  0
  4  5  1  0  0  0  0
  4  6  1  0  0  0  0
  4  7  1  0  0  0  0
  7  8  1  0  0  0  0
  7  9  2  0  0  0  0
  9 10  1  0  0  0  0
  9 11  1  0  0  0  0
 11 12  1  0  0  0  0
 11 13  1  0  0  0  0
 11 14  1  0  0  0  0
 14 15  1  0  0  0  0
 14 16  1  0  0  0  0
 14 17  1  0  0  0  0
M  END
> <VConfSearch Rank>
431

> <Conf_Id>
38

> <Delta U+W>
0.000

> <U+W>
-49.427

> <U>
13.666

> <W>
-63.093

> <W(PB)>
-65.225

> <W(SA)>
2.132

> <Valence>
15.226

> <Coulomb>
-1.822

> <VdW>
0.261

> <VdW6>
-4.165

> <VdW12>
4.426

> <Bond>
0.044

> <Angle>
2.229

> <Pdih>
12.953

> <Idih>
0.000

> <Tether>
0.000

$$$$
VeraChem MOL file


 17 16  0  0  0  0  0  0  0  0999 V2000     
   19.0392   16.3513   21.4603 C   0  0  0  0  0  0  0  0  0  0  0  0
   18.4236   15.9289   22.4191 O   0  5  0  0  0  0  0  0  0  0  0  0
   19.7552   15.6594   20.7634 O   0  0  0  0  0  0  0  0  0  0  0  0
   18.9033   17.8267   21.1076 C   0  0  0  0  0  0  0  0  0  0  0  0
   17.9545   18.1918   21.5190 H   0  0  0  0  0  0  0  0  0  0  0  0
   18.8310   17.9051   20.0167 H   0  0  0  0  0  0  0  0  0  0  0  0
   20.0694   18.6546   21.6131 C   0  0  0  0  0  0  0  0  0  0  0  0
   21.0249   18.4568   21.1283 H   0  0  0  0  0  0  0  0  0  0  0  0
   19.9765   19.5694   22.5830 C   0  0  0  0  0  0  0  0  0  0  0  0
   19.0214   19.7645   23.0696 H   0  0  0  0  0  0  0  0  0  0  0  0
   21.1412   20.3912   23.0885 C   0  0  0  0  0  0  0  0  0  0  0  0
   21.1650   20.3644   24.1863 H   0  0  0  0  0  0  0  0  0  0  0  0
   22.0922   19.9639   22.7419 H   0  0  0  0  0  0  0  0  0  0  0  0
   21.0354   21.8532   22.6125 C   0  0  0  0  0  0  0  0  0  0  0  0
   20.1101   22.3180   22.9775 H   0  0  0  0  0  0  0  0  0  0  0  0
   21.8828   22.4446   22.9829 H   0  0  0  0  0  0  0  0  0  0  0  0
   21.0358   21.9071   21.5158 H   0  0  0  0  0  0  0  0  0  0  0  0
  1  2  1  0  0  0  0
  1  3  2  0  0  0  0
  1  4  1  0  0  0  0
  4  5  1  0  0  0  0
  4  6  1  0  0  0  0
  4  7  1  0  0  0  0
  7  8  1  0  0  0  0
  7  9  2  0  0  0  0
  9 10  1  0  0  0  0
  9 11  1  0  0  0  0
 11 12  1  0  0  0  0
 11 13  1  0  0  0  0
 11 14  1  0  0  0  0
 14 15  1  0  0  0  0
 14 16  1  0  0  0  0
 14 17  1  0  0  0  0
M  END
> <VConfSearch Rank>
432

> <Conf_Id>
35

> <Delta U+W>
-0.102

> <U+W>
-49.529

> <U>
13.666

> <W>
-63.195

> <W(PB)>
-65.299

> <W(SA)>
2.103

> <Valence>
15.226

> <Coulomb>
-1.822

> <VdW>
0.261

> <VdW6>
-4.165

> <VdW12>
4.426

> <Bond>
0.044

> <Angle>
2.229

> <Pdih>
12.953

> <Idih>
0.000

> <Tether>
0.000

$$$$
VeraChem MOL file


 17 16  0  0  0  0  0  0  0  0999 V2000     
   22.9097   17.8860   22.3254 C   0  0  0  0  0  0  0  0  0  0  0  0
   23.2762   17.5807   21.2076 O   0  5  0  0  0  0  0  0  0  0  0  0
   23.6173   18.4561   23.1322 O   0  0  0  0  0  0  0  0  0  0  0  0
   21.4890   17.5250   22.7388 C   0  0  0  0  0  0  0  0  0  0  0  0
   21.4558   17.4618   23.8331 H   0  0  0  0  0  0  0  0  0  0  0  0
   21.2728   16.5219   22.3533 H   0  0  0  0  0  0  0  0  0  0  0  0
   20.4638   18.5147   22.2183 C   0  0  0  0  0  0  0  0  0  0  0  0
   20.3359   18.5101   21.1373 H   0  0  0  0  0  0  0  0  0  0  0  0
   19.7615   19.3438   23.0007 C   0  0  0  0  0  0  0  0  0  0  0  0
   19.9198   19.3229   24.0785 H   0  0  0  0  0  0  0  0  0  0  0  0
   18.7256   20.3590   22.5482 C   0  0  0  0  0  0  0  0  0  0  0  0
   17.7730   20.1453   23.0516 H   0  0  0  0  0  0  0  0  0  0  0  0
   19.0270   21.3557   22.8978 H   0  0  0  0  0  0  0  0  0  0  0  0
   18.4876   20.4122   21.0229 C   0  0  0  0  0  0  0  0  0  0  0  0
   18.1320   19.4444   20.6456 H   0  0  0  0  0  0  0  0  0  0  0  0
   17.7297   21.1674   20.7777 H   0  0  0  0  0  0  0  0  0  0  0  0
   19.4101   20.6762   20.4893 H   0  0  0  0  0  0  0  0  0  0  0  0
  1  2  1  0  0  0  0
  1  3  2  0  0  0  0
  1  4  1  0  0  0  0
  4  5  1  0  0  0  0
  4  6  1  0  0  0  0
  4  7  1  0  0  0  0
  7  8  1  0  0  0  0
  7  9  2  0  0  0  0
  9 10  1  0  0  0  0
  9 11  1  0  0  0  0
 11 12  1  0  0  0  0
 11 13  1  0  0  0  0
 11 14  1  0  0  0  0
 14 15  1  0  0  0  0
 14 16  1  0  0  0  0
 14 17  1  0  0  0  0
M  END
> <VConfSearch Rank>
433

> <Conf_Id>
19

> <Delta U+W>
-0.496

> <U+W>
-49.923

> <U>
13.863

> <W>
-63.786

> <W(PB)>
-65.856

> <W(SA)>
2.070

> <Valence>
14.117

> <Coulomb>
-1.228

> <VdW>
0.974

> <VdW6>
-4.885

> <VdW12>
5.859

> <Bond>
0.094

> <Angle>
2.818

> <Pdih>
11.205

> <Idih>
0.000

> <Tether>
0.000

$$$$
VeraChem MOL file


 17 16  0  0  0  0  0  0  0  0999 V2000     
   19.6785   18.8001   19.3274 C   0  0  0  0  0  0  0  0  0  0  0  0
   20.8005   18.8919   18.8697 O   0  5  0  0  0  0  0  0  0  0  0  0
   18.8813   17.9484   18.9865 O   0  0  0  0  0  0  0  0  0  0  0  0
   19.2417   19.8128   20.3777 C   0  0  0  0  0  0  0  0  0  0  0  0
   18.2119   20.1101   20.1480 H   0  0  0  0  0  0  0  0  0  0  0  0
   19.8656   20.7084   20.2713 H   0  0  0  0  0  0  0  0  0  0  0  0
   19.3217   19.2588   21.7875 C   0  0  0  0  0  0  0  0  0  0  0  0
   18.6140   18.4622   22.0149 H   0  0  0  0  0  0  0  0  0  0  0  0
   20.1879   19.6824   22.7130 C   0  0  0  0  0  0  0  0  0  0  0  0
   20.8988   20.4754   22.4834 H   0  0  0  0  0  0  0  0  0  0  0  0
   20.2680   19.1265   24.1173 C   0  0  0  0  0  0  0  0  0  0  0  0
   20.2913   19.9516   24.8420 H   0  0  0  0  0  0  0  0  0  0  0  0
   19.3738   18.5306   24.3464 H   0  0  0  0  0  0  0  0  0  0  0  0
   21.5236   18.2508   24.2949 C   0  0  0  0  0  0  0  0  0  0  0  0
   22.4362   18.8324   24.1096 H   0  0  0  0  0  0  0  0  0  0  0  0
   21.5765   17.8497   25.3154 H   0  0  0  0  0  0  0  0  0  0  0  0
   21.5101   17.4039   23.5961 H   0  0  0  0  0  0  0  0  0  0  0  0
  1  2  1  0  0  0  0
  1  3  2  0  0  0  0
  1  4  1  0  0  0  0
  4  5  1  0  0  0  0
  4  6  1  0  0  0  0
  4  7  1  0  0  0  0
  7  8  1  0  0  0  0
  7  9  2  0  0  0  0
  9 10  1  0  0  0  0
  9 11  1  0  0  0  0
 11 12  1  0  0  0  0
 11 13  1  0  0  0  0
 11 14  1  0  0  0  0
 14 15  1  0  0  0  0
 14 16  1  0  0  0  0
 14 17  1  0  0  0  0
M  END
> <VConfSearch Rank>
434

> <Conf_Id>
7

> <Delta U+W>
-0.041

> <U+W>
-49.468

> <U>
14.121

> <W>
-63.589

> <W(PB)>
-65.660

> <W(SA)>
2.071

> <Valence>
15.230

> <Coulomb>
-1.333

> <VdW>
0.224

> <VdW6>
-4.212

> <VdW12>
4.436

> <Bond>
0.044

> <Angle>
2.230

> <Pdih>
12.956

> <Idih>
0.000

> <Tether>
0.000

$$$$
VeraChem MOL file


 17 16  0  0  0  0  0  0  0  0999 V2000     
   21.4376   21.6560   22.7528 C   0  0  0  0  0  0  0  0  0  0  0  0
   21.4302   22.1534   21.6439 O   0  5  0  0  0  0  0  0  0  0  0  0
   22.4469   21.4990   23.4113 O   0  0  0  0  0  0  0  0  0  0  0  0
   20.1051   21.2314   23.3624 C   0  0  0  0  0  0  0  0  0  0  0  0
   19.3322   21.9139   22.9899 H   0  0  0  0  0  0  0  0  0  0  0  0
   20.1614   21.4012   24.4439 H   0  0  0  0  0  0  0  0  0  0  0  0
   19.6879   19.7926   23.0928 C   0  0  0  0  0  0  0  0  0  0  0  0
   18.7342   19.5104   23.5370 H   0  0  0  0  0  0  0  0  0  0  0  0
   20.3777   18.8939   22.3803 C   0  0  0  0  0  0  0  0  0  0  0  0
   21.3334   19.1504   21.9249 H   0  0  0  0  0  0  0  0  0  0  0  0
   19.9183   17.4724   22.1429 C   0  0  0  0  0  0  0  0  0  0  0  0
   20.7424   16.7770   22.3521 H   0  0  0  0  0  0  0  0  0  0  0  0
   19.1030   17.2110   22.8314 H   0  0  0  0  0  0  0  0  0  0  0  0
   19.4404   17.2804   20.6904 C   0  0  0  0  0  0  0  0  0  0  0  0
   19.1096   16.2471   20.5234 H   0  0  0  0  0  0  0  0  0  0  0  0
   18.5985   17.9484   20.4656 H   0  0  0  0  0  0  0  0  0  0  0  0
   20.2488   17.4985   19.9802 H   0  0  0  0  0  0  0  0  0  0  0  0
  1  2  1  0  0  0  0
  1  3  2  0  0  0  0
  1  4  1  0  0  0  0
  4  5  1  0  0  0  0
  4  6  1  0  0  0  0
  4  7  1  0  0  0  0
  7  8  1  0  0  0  0
  7  9  2  0  0  0  0
  9 10  1  0  0  0  0
  9 11  1  0  0  0  0
 11 12  1  0  0  0  0
 11 13  1  0  0  0  0
 11 14  1  0  0  0  0
 14 15  1  0  0  0  0
 14 16  1  0  0  0  0
 14 17  1  0  0  0  0
M  END
> <VConfSearch Rank>
435

> <Conf_Id>
39

> <Delta U+W>
-0.422

> <U+W>
-49.849

> <U>
14.465

> <W>
-64.314

> <W(PB)>
-66.406

> <W(SA)>
2.093

> <Valence>
14.072

> <Coulomb>
-0.199

> <VdW>
0.592

> <VdW6>
-5.019

> <VdW12>
5.611

> <Bond>
0.085

> <Angle>
2.748

> <Pdih>
11.238

> <Idih>
0.001

> <Tether>
0.000

$$$$
VeraChem MOL file


 17 16  0  0  0  0  0  0  0  0999 V2000     
   18.6402   21.9873   22.8089 C   0  0  0  0  0  0  0  0  0  0  0  0
   19.3196   22.8558   23.3200 O   0  5  0  0  0  0  0  0  0  0  0  0
   17.4967   21.7456   23.1419 O   0  0  0  0  0  0  0  0  0  0  0  0
   19.2555   21.1619   21.6866 C   0  0  0  0  0  0  0  0  0  0  0  0
   19.8307   21.8417   21.0474 H   0  0  0  0  0  0  0  0  0  0  0  0
   18.4418   20.7564   21.0732 H   0  0  0  0  0  0  0  0  0  0  0  0
   20.1503   20.0523   22.2050 C   0  0  0  0  0  0  0  0  0  0  0  0
   21.0688   20.3833   22.6887 H   0  0  0  0  0  0  0  0  0  0  0  0
   19.8697   18.7499   22.0994 C   0  0  0  0  0  0  0  0  0  0  0  0
   18.9496   18.4197   21.6183 H   0  0  0  0  0  0  0  0  0  0  0  0
   20.7614   17.6450   22.6203 C   0  0  0  0  0  0  0  0  0  0  0  0
   21.5185   18.0524   23.3044 H   0  0  0  0  0  0  0  0  0  0  0  0
   20.1640   16.9294   23.2014 H   0  0  0  0  0  0  0  0  0  0  0  0
   21.4634   16.9079   21.4632 C   0  0  0  0  0  0  0  0  0  0  0  0
   22.0880   17.5995   20.8824 H   0  0  0  0  0  0  0  0  0  0  0  0
   22.1085   16.1070   21.8472 H   0  0  0  0  0  0  0  0  0  0  0  0
   20.7289   16.4571   20.7830 H   0  0  0  0  0  0  0  0  0  0  0  0
  1  2  1  0  0  0  0
  1  3  2  0  0  0  0
  1  4  1  0  0  0  0
  4  5  1  0  0  0  0
  4  6  1  0  0  0  0
  4  7  1  0  0  0  0
  7  8  1  0  0  0  0
  7  9  2  0  0  0  0
  9 10  1  0  0  0  0
  9 11  1  0  0  0  0
 11 12  1  0  0  0  0
 11 13  1  0  0  0  0
 11 14  1  0  0  0  0
 14 15  1  0  0  0  0
 14 16  1  0  0  0  0
 14 17  1  0  0  0  0
M  END
> <VConfSearch Rank>
436

> <Conf_Id>
38

> <Delta U+W>
0.000

> <U+W>
-49.427

> <U>
13.666

> <W>
-63.093

> <W(PB)>
-65.225

> <W(SA)>
2.132

> <Valence>
15.226

> <Coulomb>
-1.822

> <VdW>
0.261

> <VdW6>
-4.165

> <VdW12>
4.426

> <Bond>
0.044

> <Angle>
2.229

> <Pdih>
12.953

> <Idih>
0.000

> <Tether>
0.000

$$$$
VeraChem MOL file


 17 16  0  0  0  0  0  0  0  0999 V2000     
   16.9740   18.7444   22.3468 C   0  0  0  0  0  0  0  0  0  0  0  0
   16.5237   19.4319   23.2420 O   0  5  0  0  0  0  0  0  0  0  0  0
   16.5937   17.6145   22.1110 O   0  0  0  0  0  0  0  0  0  0  0  0
   18.0710   19.3308   21.4680 C   0  0  0  0  0  0  0  0  0  0  0  0
   17.9989   20.4242   21.5128 H   0  0  0  0  0  0  0  0  0  0  0  0
   17.8628   19.0380   20.4324 H   0  0  0  0  0  0  0  0  0  0  0  0
   19.4545   18.8601   21.8742 C   0  0  0  0  0  0  0  0  0  0  0  0
   19.6546   17.8027   21.7039 H   0  0  0  0  0  0  0  0  0  0  0  0
   20.3901   19.6509   22.4086 C   0  0  0  0  0  0  0  0  0  0  0  0
   20.1882   20.7075   22.5816 H   0  0  0  0  0  0  0  0  0  0  0  0
   21.7678   19.1790   22.8167 C   0  0  0  0  0  0  0  0  0  0  0  0
   21.9968   19.5359   23.8300 H   0  0  0  0  0  0  0  0  0  0  0  0
   21.8028   18.0814   22.8537 H   0  0  0  0  0  0  0  0  0  0  0  0
   22.8414   19.6908   21.8368 C   0  0  0  0  0  0  0  0  0  0  0  0
   22.8547   20.7883   21.8086 H   0  0  0  0  0  0  0  0  0  0  0  0
   23.8389   19.3458   22.1385 H   0  0  0  0  0  0  0  0  0  0  0  0
   22.6474   19.3248   20.8199 H   0  0  0  0  0  0  0  0  0  0  0  0
  1  2  1  0  0  0  0
  1  3  2  0  0  0  0
  1  4  1  0  0  0  0
  4  5  1  0  0  0  0
  4  6  1  0  0  0  0
  4  7  1  0  0  0  0
  7  8  1  0  0  0  0
  7  9  2  0  0  0  0
  9 10  1  0  0  0  0
  9 11  1  0  0  0  0
 11 12  1  0  0  0  0
 11 13  1  0  0  0  0
 11 14  1  0  0  0  0
 14 15  1  0  0  0  0
 14 16  1  0  0  0  0
 14 17  1  0  0  0  0
M  END
> <VConfSearch Rank>
437

> <Conf_Id>
35

> <Delta U+W>
-0.102

> <U+W>
-49.529

> <U>
13.666

> <W>
-63.195

> <W(PB)>
-65.299

> <W(SA)>
2.103

> <Valence>
15.226

> <Coulomb>
-1.822

> <VdW>
0.261

> <VdW6>
-4.165

> <VdW12>
4.426

> <Bond>
0.044

> <Angle>
2.229

> <Pdih>
12.953

> <Idih>
0.000

> <Tether>
0.000

$$$$
VeraChem MOL file


 17 16  0  0  0  0  0  0  0  0999 V2000     
   18.3922   18.5394   24.4488 C   0  0  0  0  0  0  0  0  0  0  0  0
   17.2854   18.9740   24.1976 O   0  5  0  0  0  0  0  0  0  0  0  0
   18.5902   17.4359   24.9178 O   0  0  0  0  0  0  0  0  0  0  0  0
   19.5944   19.4314   24.1687 C   0  0  0  0  0  0  0  0  0  0  0  0
   20.4195   19.1078   24.8146 H   0  0  0  0  0  0  0  0  0  0  0  0
   19.3319   20.4517   24.4713 H   0  0  0  0  0  0  0  0  0  0  0  0
   20.0047   19.4109   22.7083 C   0  0  0  0  0  0  0  0  0  0  0  0
   19.2878   19.8682   22.0286 H   0  0  0  0  0  0  0  0  0  0  0  0
   21.1475   18.8757   22.2608 C   0  0  0  0  0  0  0  0  0  0  0  0
   21.8388   18.4228   22.9708 H   0  0  0  0  0  0  0  0  0  0  0  0
   21.6182   18.8173   20.8174 C   0  0  0  0  0  0  0  0  0  0  0  0
   22.5954   19.3131   20.7404 H   0  0  0  0  0  0  0  0  0  0  0  0
   21.7970   17.7688   20.5430 H   0  0  0  0  0  0  0  0  0  0  0  0
   20.6519   19.4478   19.7903 C   0  0  0  0  0  0  0  0  0  0  0  0
   20.4920   20.5131   20.0022 H   0  0  0  0  0  0  0  0  0  0  0  0
   21.0615   19.3649   18.7752 H   0  0  0  0  0  0  0  0  0  0  0  0
   19.6784   18.9403   19.8024 H   0  0  0  0  0  0  0  0  0  0  0  0
  1  2  1  0  0  0  0
  1  3  2  0  0  0  0
  1  4  1  0  0  0  0
  4  5  1  0  0  0  0
  4  6  1  0  0  0  0
  4  7  1  0  0  0  0
  7  8  1  0  0  0  0
  7  9  2  0  0  0  0
  9 10  1  0  0  0  0
  9 11  1  0  0  0  0
 11 12  1  0  0  0  0
 11 13  1  0  0  0  0
 11 14  1  0  0  0  0
 14 15  1  0  0  0  0
 14 16  1  0  0  0  0
 14 17  1  0  0  0  0
M  END
> <VConfSearch Rank>
438

> <Conf_Id>
19

> <Delta U+W>
-0.496

> <U+W>
-49.923

> <U>
13.863

> <W>
-63.786

> <W(PB)>
-65.856

> <W(SA)>
2.070

> <Valence>
14.117

> <Coulomb>
-1.228

> <VdW>
0.974

> <VdW6>
-4.885

> <VdW12>
5.859

> <Bond>
0.094

> <Angle>
2.818

> <Pdih>
11.205

> <Idih>
0.000

> <Tether>
0.000

$$$$
VeraChem MOL file


 17 16  0  0  0  0  0  0  0  0999 V2000     
   22.7675   19.9987   23.1793 C   0  0  0  0  0  0  0  0  0  0  0  0
   23.2671   18.9753   23.6036 O   0  5  0  0  0  0  0  0  0  0  0  0
   23.3567   20.7901   22.4697 O   0  0  0  0  0  0  0  0  0  0  0  0
   21.3283   20.3140   23.5653 C   0  0  0  0  0  0  0  0  0  0  0  0
   21.2714   21.3831   23.8001 H   0  0  0  0  0  0  0  0  0  0  0  0
   21.0933   19.7698   24.4879 H   0  0  0  0  0  0  0  0  0  0  0  0
   20.3429   19.9692   22.4648 C   0  0  0  0  0  0  0  0  0  0  0  0
   20.4160   20.5816   21.5666 H   0  0  0  0  0  0  0  0  0  0  0  0
   19.4392   18.9879   22.5460 C   0  0  0  0  0  0  0  0  0  0  0  0
   19.3701   18.3725   23.4424 H   0  0  0  0  0  0  0  0  0  0  0  0
   18.4595   18.6438   21.4464 C   0  0  0  0  0  0  0  0  0  0  0  0
   17.4489   18.5491   21.8661 H   0  0  0  0  0  0  0  0  0  0  0  0
   18.4177   19.4513   20.7024 H   0  0  0  0  0  0  0  0  0  0  0  0
   18.8515   17.3271   20.7481 C   0  0  0  0  0  0  0  0  0  0  0  0
   18.8635   16.4935   21.4625 H   0  0  0  0  0  0  0  0  0  0  0  0
   18.1377   17.0825   19.9509 H   0  0  0  0  0  0  0  0  0  0  0  0
   19.8503   17.4067   20.2988 H   0  0  0  0  0  0  0  0  0  0  0  0
  1  2  1  0  0  0  0
  1  3  2  0  0  0  0
  1  4  1  0  0  0  0
  4  5  1  0  0  0  0
  4  6  1  0  0  0  0
  4  7  1  0  0  0  0
  7  8  1  0  0  0  0
  7  9  2  0  0  0  0
  9 10  1  0  0  0  0
  9 11  1  0  0  0  0
 11 12  1  0  0  0  0
 11 13  1  0  0  0  0
 11 14  1  0  0  0  0
 14 15  1  0  0  0  0
 14 16  1  0  0  0  0
 14 17  1  0  0  0  0
M  END
> <VConfSearch Rank>
439

> <Conf_Id>
7

> <Delta U+W>
-0.041

> <U+W>
-49.468

> <U>
14.121

> <W>
-63.589

> <W(PB)>
-65.660

> <W(SA)>
2.071

> <Valence>
15.230

> <Coulomb>
-1.333

> <VdW>
0.224

> <VdW6>
-4.212

> <VdW12>
4.436

> <Bond>
0.044

> <Angle>
2.230

> <Pdih>
12.956

> <Idih>
0.000

> <Tether>
0.000

$$$$
VeraChem MOL file


 17 16  0  0  0  0  0  0  0  0999 V2000     
   22.1181   19.6084   20.3792 C   0  0  0  0  0  0  0  0  0  0  0  0
   22.8536   18.6802   20.6519 O   0  5  0  0  0  0  0  0  0  0  0  0
   22.4921   20.7626   20.3075 O   0  0  0  0  0  0  0  0  0  0  0  0
   20.6524   19.3053   20.0835 C   0  0  0  0  0  0  0  0  0  0  0  0
   20.6008   18.3122   19.6222 H   0  0  0  0  0  0  0  0  0  0  0  0
   20.3115   20.0115   19.3175 H   0  0  0  0  0  0  0  0  0  0  0  0
   19.7153   19.3605   21.2817 C   0  0  0  0  0  0  0  0  0  0  0  0
   18.6742   19.1412   21.0484 H   0  0  0  0  0  0  0  0  0  0  0  0
   20.0655   19.6441   22.5418 C   0  0  0  0  0  0  0  0  0  0  0  0
   21.0998   19.8661   22.8021 H   0  0  0  0  0  0  0  0  0  0  0  0
   19.0924   19.6874   23.6990 C   0  0  0  0  0  0  0  0  0  0  0  0
   19.2460   20.6083   24.2778 H   0  0  0  0  0  0  0  0  0  0  0  0
   18.0575   19.7154   23.3312 H   0  0  0  0  0  0  0  0  0  0  0  0
   19.2732   18.4654   24.6204 C   0  0  0  0  0  0  0  0  0  0  0  0
   18.5657   18.5027   25.4589 H   0  0  0  0  0  0  0  0  0  0  0  0
   19.0991   17.5322   24.0687 H   0  0  0  0  0  0  0  0  0  0  0  0
   20.2900   18.4336   25.0335 H   0  0  0  0  0  0  0  0  0  0  0  0
  1  2  1  0  0  0  0
  1  3  2  0  0  0  0
  1  4  1  0  0  0  0
  4  5  1  0  0  0  0
  4  6  1  0  0  0  0
  4  7  1  0  0  0  0
  7  8  1  0  0  0  0
  7  9  2  0  0  0  0
  9 10  1  0  0  0  0
  9 11  1  0  0  0  0
 11 12  1  0  0  0  0
 11 13  1  0  0  0  0
 11 14  1  0  0  0  0
 14 15  1  0  0  0  0
 14 16  1  0  0  0  0
 14 17  1  0  0  0  0
M  END
> <VConfSearch Rank>
440

> <Conf_Id>
39

> <Delta U+W>
-0.422

> <U+W>
-49.849

> <U>
14.465

> <W>
-64.314

> <W(PB)>
-66.406

> <W(SA)>
2.093

> <Valence>
14.072

> <Coulomb>
-0.199

> <VdW>
0.592

> <VdW6>
-5.019

> <VdW12>
5.611

> <Bond>
0.085

> <Angle>
2.748

> <Pdih>
11.238

> <Idih>
0.001

> <Tether>
0.000

$$$$
VeraChem MOL file


 17 16  0  0  0  0  0  0  0  0999 V2000     
   23.1547   19.1570   21.2522 C   0  0  0  0  0  0  0  0  0  0  0  0
   23.3987   19.3681   20.0805 O   0  5  0  0  0  0  0  0  0  0  0  0
   23.7208   18.3098   21.9145 O   0  0  0  0  0  0  0  0  0  0  0  0
   22.0846   20.0053   21.9268 C   0  0  0  0  0  0  0  0  0  0  0  0
   22.2076   21.0377   21.5798 H   0  0  0  0  0  0  0  0  0  0  0  0
   22.2766   20.0047   23.0065 H   0  0  0  0  0  0  0  0  0  0  0  0
   20.6806   19.5178   21.6239 C   0  0  0  0  0  0  0  0  0  0  0  0
   20.3592   19.6387   20.5898 H   0  0  0  0  0  0  0  0  0  0  0  0
   19.8638   18.9707   22.5294 C   0  0  0  0  0  0  0  0  0  0  0  0
   20.1869   18.8474   23.5625 H   0  0  0  0  0  0  0  0  0  0  0  0
   18.4654   18.4818   22.2247 C   0  0  0  0  0  0  0  0  0  0  0  0
   18.3142   18.4016   21.1394 H   0  0  0  0  0  0  0  0  0  0  0  0
   18.3272   17.4733   22.6375 H   0  0  0  0  0  0  0  0  0  0  0  0
   17.4055   19.4298   22.8187 C   0  0  0  0  0  0  0  0  0  0  0  0
   17.5078   20.4399   22.4006 H   0  0  0  0  0  0  0  0  0  0  0  0
   16.3930   19.0695   22.5949 H   0  0  0  0  0  0  0  0  0  0  0  0
   17.5091   19.4990   23.9095 H   0  0  0  0  0  0  0  0  0  0  0  0
  1  2  1  0  0  0  0
  1  3  2  0  0  0  0
  1  4  1  0  0  0  0
  4  5  1  0  0  0  0
  4  6  1  0  0  0  0
  4  7  1  0  0  0  0
  7  8  1  0  0  0  0
  7  9  2  0  0  0  0
  9 10  1  0  0  0  0
  9 11  1  0  0  0  0
 11 12  1  0  0  0  0
 11 13  1  0  0  0  0
 11 14  1  0  0  0  0
 14 15  1  0  0  0  0
 14 16  1  0  0  0  0
 14 17  1  0  0  0  0
M  END
> <VConfSearch Rank>
441

> <Conf_Id>
38

> <Delta U+W>
0.000

> <U+W>
-49.427

> <U>
13.666

> <W>
-63.093

> <W(PB)>
-65.225

> <W(SA)>
2.132

> <Valence>
15.226

> <Coulomb>
-1.822

> <VdW>
0.261

> <VdW6>
-4.165

> <VdW12>
4.426

> <Bond>
0.044

> <Angle>
2.229

> <Pdih>
12.953

> <Idih>
0.000

> <Tether>
0.000

$$$$
VeraChem MOL file


 17 16  0  0  0  0  0  0  0  0999 V2000     
   19.9844   18.8895   25.2456 C   0  0  0  0  0  0  0  0  0  0  0  0
   20.2880   19.9368   25.7822 O   0  5  0  0  0  0  0  0  0  0  0  0
   20.3071   17.7980   25.6715 O   0  0  0  0  0  0  0  0  0  0  0  0
   19.1496   18.9454   23.9730 C   0  0  0  0  0  0  0  0  0  0  0  0
   18.6032   19.8962   23.9626 H   0  0  0  0  0  0  0  0  0  0  0  0
   18.4014   18.1463   24.0279 H   0  0  0  0  0  0  0  0  0  0  0  0
   19.9895   18.7873   22.7199 C   0  0  0  0  0  0  0  0  0  0  0  0
   20.4364   17.8034   22.5806 H   0  0  0  0  0  0  0  0  0  0  0  0
   20.1952   19.7593   21.8259 C   0  0  0  0  0  0  0  0  0  0  0  0
   19.7507   20.7439   21.9675 H   0  0  0  0  0  0  0  0  0  0  0  0
   21.0362   19.6010   20.5790 C   0  0  0  0  0  0  0  0  0  0  0  0
   21.7363   20.4433   20.4947 H   0  0  0  0  0  0  0  0  0  0  0  0
   21.6461   18.6891   20.6399 H   0  0  0  0  0  0  0  0  0  0  0  0
   20.1518   19.5399   19.3184 C   0  0  0  0  0  0  0  0  0  0  0  0
   19.5582   20.4573   19.2115 H   0  0  0  0  0  0  0  0  0  0  0  0
   20.7676   19.4257   18.4169 H   0  0  0  0  0  0  0  0  0  0  0  0
   19.4599   18.6888   19.3685 H   0  0  0  0  0  0  0  0  0  0  0  0
  1  2  1  0  0  0  0
  1  3  2  0  0  0  0
  1  4  1  0  0  0  0
  4  5  1  0  0  0  0
  4  6  1  0  0  0  0
  4  7  1  0  0  0  0
  7  8  1  0  0  0  0
  7  9  2  0  0  0  0
  9 10  1  0  0  0  0
  9 11  1  0  0  0  0
 11 12  1  0  0  0  0
 11 13  1  0  0  0  0
 11 14  1  0  0  0  0
 14 15  1  0  0  0  0
 14 16  1  0  0  0  0
 14 17  1  0  0  0  0
M  END
> <VConfSearch Rank>
442

> <Conf_Id>
35

> <Delta U+W>
-0.102

> <U+W>
-49.529

> <U>
13.666

> <W>
-63.195

> <W(PB)>
-65.299

> <W(SA)>
2.103

> <Valence>
15.226

> <Coulomb>
-1.822

> <VdW>
0.261

> <VdW6>
-4.165

> <VdW12>
4.426

> <Bond>
0.044

> <Angle>
2.229

> <Pdih>
12.953

> <Idih>
0.000

> <Tether>
0.000

$$$$
VeraChem MOL file


 17 16  0  0  0  0  0  0  0  0999 V2000     
   21.1834   21.0085   24.2374 C   0  0  0  0  0  0  0  0  0  0  0  0
   22.3726   20.8458   24.4277 O   0  5  0  0  0  0  0  0  0  0  0  0
   20.6683   22.1004   24.0987 O   0  0  0  0  0  0  0  0  0  0  0  0
   20.2904   19.7761   24.1794 C   0  0  0  0  0  0  0  0  0  0  0  0
   19.2685   20.0807   24.4356 H   0  0  0  0  0  0  0  0  0  0  0  0
   20.6238   19.0840   24.9613 H   0  0  0  0  0  0  0  0  0  0  0  0
   20.3324   19.0919   22.8261 C   0  0  0  0  0  0  0  0  0  0  0  0
   21.2857   18.6265   22.5817 H   0  0  0  0  0  0  0  0  0  0  0  0
   19.2983   19.0522   21.9766 C   0  0  0  0  0  0  0  0  0  0  0  0
   18.3609   19.5332   22.2539 H   0  0  0  0  0  0  0  0  0  0  0  0
   19.2720   18.3904   20.6091 C   0  0  0  0  0  0  0  0  0  0  0  0
   18.4622   17.6487   20.5871 H   0  0  0  0  0  0  0  0  0  0  0  0
   19.0040   19.1423   19.8545 H   0  0  0  0  0  0  0  0  0  0  0  0
   20.5921   17.7064   20.1902 C   0  0  0  0  0  0  0  0  0  0  0  0
   20.8638   16.9095   20.8948 H   0  0  0  0  0  0  0  0  0  0  0  0
   20.4926   17.2551   19.1945 H   0  0  0  0  0  0  0  0  0  0  0  0
   21.4158   18.4313   20.1498 H   0  0  0  0  0  0  0  0  0  0  0  0
  1  2  1  0  0  0  0
  1  3  2  0  0  0  0
  1  4  1  0  0  0  0
  4  5  1  0  0  0  0
  4  6  1  0  0  0  0
  4  7  1  0  0  0  0
  7  8  1  0  0  0  0
  7  9  2  0  0  0  0
  9 10  1  0  0  0  0
  9 11  1  0  0  0  0
 11 12  1  0  0  0  0
 11 13  1  0  0  0  0
 11 14  1  0  0  0  0
 14 15  1  0  0  0  0
 14 16  1  0  0  0  0
 14 17  1  0  0  0  0
M  END
> <VConfSearch Rank>
443

> <Conf_Id>
19

> <Delta U+W>
-0.496

> <U+W>
-49.923

> <U>
13.863

> <W>
-63.786

> <W(PB)>
-65.856

> <W(SA)>
2.070

> <Valence>
14.117

> <Coulomb>
-1.228

> <VdW>
0.974

> <VdW6>
-4.885

> <VdW12>
5.859

> <Bond>
0.094

> <Angle>
2.818

> <Pdih>
11.205

> <Idih>
0.000

> <Tether>
0.000

$$$$
VeraChem MOL file


 17 16  0  0  0  0  0  0  0  0999 V2000     
   20.4318   16.5151   20.7817 C   0  0  0  0  0  0  0  0  0  0  0  0
   19.4838   15.8807   21.2008 O   0  5  0  0  0  0  0  0  0  0  0  0
   20.7274   16.5831   19.6049 O   0  0  0  0  0  0  0  0  0  0  0  0
   21.3047   17.2574   21.7851 C   0  0  0  0  0  0  0  0  0  0  0  0
   22.3505   17.1124   21.4905 H   0  0  0  0  0  0  0  0  0  0  0  0
   21.1790   16.7834   22.7661 H   0  0  0  0  0  0  0  0  0  0  0  0
   20.9826   18.7381   21.8515 C   0  0  0  0  0  0  0  0  0  0  0  0
   21.2300   19.3084   20.9567 H   0  0  0  0  0  0  0  0  0  0  0  0
   20.4280   19.3396   22.9083 C   0  0  0  0  0  0  0  0  0  0  0  0
   20.1761   18.7679   23.8009 H   0  0  0  0  0  0  0  0  0  0  0  0
   20.1050   20.8157   22.9714 C   0  0  0  0  0  0  0  0  0  0  0  0
   20.4812   21.2379   23.9131 H   0  0  0  0  0  0  0  0  0  0  0  0
   20.6116   21.3551   22.1592 H   0  0  0  0  0  0  0  0  0  0  0  0
   18.5857   21.0545   22.8719 C   0  0  0  0  0  0  0  0  0  0  0  0
   18.0564   20.5577   23.6955 H   0  0  0  0  0  0  0  0  0  0  0  0
   18.3570   22.1272   22.9177 H   0  0  0  0  0  0  0  0  0  0  0  0
   18.1908   20.6618   21.9256 H   0  0  0  0  0  0  0  0  0  0  0  0
  1  2  1  0  0  0  0
  1  3  2  0  0  0  0
  1  4  1  0  0  0  0
  4  5  1  0  0  0  0
  4  6  1  0  0  0  0
  4  7  1  0  0  0  0
  7  8  1  0  0  0  0
  7  9  2  0  0  0  0
  9 10  1  0  0  0  0
  9 11  1  0  0  0  0
 11 12  1  0  0  0  0
 11 13  1  0  0  0  0
 11 14  1  0  0  0  0
 14 15  1  0  0  0  0
 14 16  1  0  0  0  0
 14 17  1  0  0  0  0
M  END
> <VConfSearch Rank>
444

> <Conf_Id>
7

> <Delta U+W>
-0.041

> <U+W>
-49.468

> <U>
14.121

> <W>
-63.589

> <W(PB)>
-65.660

> <W(SA)>
2.071

> <Valence>
15.230

> <Coulomb>
-1.333

> <VdW>
0.224

> <VdW6>
-4.212

> <VdW12>
4.436

> <Bond>
0.044

> <Angle>
2.230

> <Pdih>
12.956

> <Idih>
0.000

> <Tether>
0.000

$$$$
VeraChem MOL file


 17 16  0  0  0  0  0  0  0  0999 V2000     
   20.2173   20.3756   19.7358 C   0  0  0  0  0  0  0  0  0  0  0  0
   20.9397   19.5831   19.1640 O   0  5  0  0  0  0  0  0  0  0  0  0
   20.4241   21.5729   19.7644 O   0  0  0  0  0  0  0  0  0  0  0  0
   18.9687   19.8423   20.4316 C   0  0  0  0  0  0  0  0  0  0  0  0
   18.6158   18.9708   19.8679 H   0  0  0  0  0  0  0  0  0  0  0  0
   18.1824   20.6005   20.3378 H   0  0  0  0  0  0  0  0  0  0  0  0
   19.1427   19.4661   21.8962 C   0  0  0  0  0  0  0  0  0  0  0  0
   18.2395   19.0880   22.3735 H   0  0  0  0  0  0  0  0  0  0  0  0
   20.2747   19.5611   22.6037 C   0  0  0  0  0  0  0  0  0  0  0  0
   21.1920   19.9350   22.1503 H   0  0  0  0  0  0  0  0  0  0  0  0
   20.3944   19.1742   24.0610 C   0  0  0  0  0  0  0  0  0  0  0  0
   20.9029   19.9741   24.6161 H   0  0  0  0  0  0  0  0  0  0  0  0
   19.3991   19.0610   24.5125 H   0  0  0  0  0  0  0  0  0  0  0  0
   21.1798   17.8580   24.2217 C   0  0  0  0  0  0  0  0  0  0  0  0
   21.2647   17.5829   25.2810 H   0  0  0  0  0  0  0  0  0  0  0  0
   20.6757   17.0367   23.6955 H   0  0  0  0  0  0  0  0  0  0  0  0
   22.1939   17.9548   23.8123 H   0  0  0  0  0  0  0  0  0  0  0  0
  1  2  1  0  0  0  0
  1  3  2  0  0  0  0
  1  4  1  0  0  0  0
  4  5  1  0  0  0  0
  4  6  1  0  0  0  0
  4  7  1  0  0  0  0
  7  8  1  0  0  0  0
  7  9  2  0  0  0  0
  9 10  1  0  0  0  0
  9 11  1  0  0  0  0
 11 12  1  0  0  0  0
 11 13  1  0  0  0  0
 11 14  1  0  0  0  0
 14 15  1  0  0  0  0
 14 16  1  0  0  0  0
 14 17  1  0  0  0  0
M  END
> <VConfSearch Rank>
445

> <Conf_Id>
39

> <Delta U+W>
-0.422

> <U+W>
-49.849

> <U>
14.465

> <W>
-64.314

> <W(PB)>
-66.406

> <W(SA)>
2.093

> <Valence>
14.072

> <Coulomb>
-0.199

> <VdW>
0.592

> <VdW6>
-5.019

> <VdW12>
5.611

> <Bond>
0.085

> <Angle>
2.748

> <Pdih>
11.238

> <Idih>
0.001

> <Tether>
0.000

$$$$
VeraChem MOL file


 17 16  0  0  0  0  0  0  0  0999 V2000     
   22.8429   19.9075   20.6418 C   0  0  0  0  0  0  0  0  0  0  0  0
   23.8271   20.0041   21.3481 O   0  5  0  0  0  0  0  0  0  0  0  0
   22.6256   20.6307   19.6896 O   0  0  0  0  0  0  0  0  0  0  0  0
   21.8306   18.8168   20.9662 C   0  0  0  0  0  0  0  0  0  0  0  0
   22.3878   17.9134   21.2398 H   0  0  0  0  0  0  0  0  0  0  0  0
   21.2718   18.5844   20.0517 H   0  0  0  0  0  0  0  0  0  0  0  0
   20.8926   19.2109   22.0912 C   0  0  0  0  0  0  0  0  0  0  0  0
   21.3564   19.3026   23.0729 H   0  0  0  0  0  0  0  0  0  0  0  0
   19.5856   19.4411   21.9335 C   0  0  0  0  0  0  0  0  0  0  0  0
   19.1230   19.3521   20.9511 H   0  0  0  0  0  0  0  0  0  0  0  0
   18.6525   19.8376   23.0558 C   0  0  0  0  0  0  0  0  0  0  0  0
   19.2254   20.1537   23.9384 H   0  0  0  0  0  0  0  0  0  0  0  0
   18.0473   20.7008   22.7472 H   0  0  0  0  0  0  0  0  0  0  0  0
   17.7232   18.6704   23.4420 C   0  0  0  0  0  0  0  0  0  0  0  0
   18.3061   17.8031   23.7790 H   0  0  0  0  0  0  0  0  0  0  0  0
   17.0482   18.9643   24.2562 H   0  0  0  0  0  0  0  0  0  0  0  0
   17.1096   18.3587   22.5866 H   0  0  0  0  0  0  0  0  0  0  0  0
  1  2  1  0  0  0  0
  1  3  2  0  0  0  0
  1  4  1  0  0  0  0
  4  5  1  0  0  0  0
  4  6  1  0  0  0  0
  4  7  1  0  0  0  0
  7  8  1  0  0  0  0
  7  9  2  0  0  0  0
  9 10  1  0  0  0  0
  9 11  1  0  0  0  0
 11 12  1  0  0  0  0
 11 13  1  0  0  0  0
 11 14  1  0  0  0  0
 14 15  1  0  0  0  0
 14 16  1  0  0  0  0
 14 17  1  0  0  0  0
M  END
> <VConfSearch Rank>
446

> <Conf_Id>
38

> <Delta U+W>
0.000

> <U+W>
-49.427

> <U>
13.666

> <W>
-63.093

> <W(PB)>
-65.225

> <W(SA)>
2.132

> <Valence>
15.226

> <Coulomb>
-1.822

> <VdW>
0.261

> <VdW6>
-4.165

> <VdW12>
4.426

> <Bond>
0.044

> <Angle>
2.229

> <Pdih>
12.953

> <Idih>
0.000

> <Tether>
0.000

$$$$
VeraChem MOL file


 17 16  0  0  0  0  0  0  0  0999 V2000     
   21.4201   18.5783   19.3191 C   0  0  0  0  0  0  0  0  0  0  0  0
   20.8593   17.6137   18.8376 O   0  5  0  0  0  0  0  0  0  0  0  0
   22.6155   18.7765   19.2259 O   0  0  0  0  0  0  0  0  0  0  0  0
   20.5801   19.5986   20.0762 C   0  0  0  0  0  0  0  0  0  0  0  0
   19.5455   19.5231   19.7203 H   0  0  0  0  0  0  0  0  0  0  0  0
   20.9406   20.5973   19.8040 H   0  0  0  0  0  0  0  0  0  0  0  0
   20.6531   19.4102   21.5795 C   0  0  0  0  0  0  0  0  0  0  0  0
   21.6214   19.6281   22.0290 H   0  0  0  0  0  0  0  0  0  0  0  0
   19.6287   19.0053   22.3363 C   0  0  0  0  0  0  0  0  0  0  0  0
   18.6615   18.7846   21.8857 H   0  0  0  0  0  0  0  0  0  0  0  0
   19.7044   18.8143   23.8347 C   0  0  0  0  0  0  0  0  0  0  0  0
   19.2770   17.8395   24.1062 H   0  0  0  0  0  0  0  0  0  0  0  0
   20.7512   18.8035   24.1684 H   0  0  0  0  0  0  0  0  0  0  0  0
   18.9446   19.9324   24.5747 C   0  0  0  0  0  0  0  0  0  0  0  0
   17.8848   19.9417   24.2883 H   0  0  0  0  0  0  0  0  0  0  0  0
   19.0025   19.7880   25.6614 H   0  0  0  0  0  0  0  0  0  0  0  0
   19.3714   20.9161   24.3384 H   0  0  0  0  0  0  0  0  0  0  0  0
  1  2  1  0  0  0  0
  1  3  2  0  0  0  0
  1  4  1  0  0  0  0
  4  5  1  0  0  0  0
  4  6  1  0  0  0  0
  4  7  1  0  0  0  0
  7  8  1  0  0  0  0
  7  9  2  0  0  0  0
  9 10  1  0  0  0  0
  9 11  1  0  0  0  0
 11 12  1  0  0  0  0
 11 13  1  0  0  0  0
 11 14  1  0  0  0  0
 14 15  1  0  0  0  0
 14 16  1  0  0  0  0
 14 17  1  0  0  0  0
M  END
> <VConfSearch Rank>
447

> <Conf_Id>
35

> <Delta U+W>
-0.102

> <U+W>
-49.529

> <U>
13.666

> <W>
-63.195

> <W(PB)>
-65.299

> <W(SA)>
2.103

> <Valence>
15.226

> <Coulomb>
-1.822

> <VdW>
0.261

> <VdW6>
-4.165

> <VdW12>
4.426

> <Bond>
0.044

> <Angle>
2.229

> <Pdih>
12.953

> <Idih>
0.000

> <Tether>
0.000

$$$$
VeraChem MOL file


 17 16  0  0  0  0  0  0  0  0999 V2000     
   20.0017   17.3733   19.8203 C   0  0  0  0  0  0  0  0  0  0  0  0
   19.5511   16.2895   20.1355 O   0  5  0  0  0  0  0  0  0  0  0  0
   19.6242   18.0020   18.8512 O   0  0  0  0  0  0  0  0  0  0  0  0
   21.1062   17.9700   20.6828 C   0  0  0  0  0  0  0  0  0  0  0  0
   21.6779   18.6755   20.0680 H   0  0  0  0  0  0  0  0  0  0  0  0
   21.7899   17.1591   20.9594 H   0  0  0  0  0  0  0  0  0  0  0  0
   20.5679   18.6453   21.9300 C   0  0  0  0  0  0  0  0  0  0  0  0
   20.1262   17.9678   22.6587 H   0  0  0  0  0  0  0  0  0  0  0  0
   20.6131   19.9664   22.1430 C   0  0  0  0  0  0  0  0  0  0  0  0
   21.0591   20.6137   21.3886 H   0  0  0  0  0  0  0  0  0  0  0  0
   20.0917   20.7074   23.3626 C   0  0  0  0  0  0  0  0  0  0  0  0
   20.9158   21.2770   23.8132 H   0  0  0  0  0  0  0  0  0  0  0  0
   19.3580   21.4573   23.0373 H   0  0  0  0  0  0  0  0  0  0  0  0
   19.4488   19.8116   24.4444 C   0  0  0  0  0  0  0  0  0  0  0  0
   20.1718   19.0825   24.8330 H   0  0  0  0  0  0  0  0  0  0  0  0
   19.0977   20.4193   25.2885 H   0  0  0  0  0  0  0  0  0  0  0  0
   18.5857   19.2654   24.0416 H   0  0  0  0  0  0  0  0  0  0  0  0
  1  2  1  0  0  0  0
  1  3  2  0  0  0  0
  1  4  1  0  0  0  0
  4  5  1  0  0  0  0
  4  6  1  0  0  0  0
  4  7  1  0  0  0  0
  7  8  1  0  0  0  0
  7  9  2  0  0  0  0
  9 10  1  0  0  0  0
  9 11  1  0  0  0  0
 11 12  1  0  0  0  0
 11 13  1  0  0  0  0
 11 14  1  0  0  0  0
 14 15  1  0  0  0  0
 14 16  1  0  0  0  0
 14 17  1  0  0  0  0
M  END
> <VConfSearch Rank>
448

> <Conf_Id>
19

> <Delta U+W>
-0.496

> <U+W>
-49.923

> <U>
13.863

> <W>
-63.786

> <W(PB)>
-65.856

> <W(SA)>
2.070

> <Valence>
14.117

> <Coulomb>
-1.228

> <VdW>
0.974

> <VdW6>
-4.885

> <VdW12>
5.859

> <Bond>
0.094

> <Angle>
2.818

> <Pdih>
11.205

> <Idih>
0.000

> <Tether>
0.000

$$$$
VeraChem MOL file


 17 16  0  0  0  0  0  0  0  0999 V2000     
   17.2911   19.4002   22.7496 C   0  0  0  0  0  0  0  0  0  0  0  0
   16.7877   18.6264   21.9593 O   0  5  0  0  0  0  0  0  0  0  0  0
   16.9642   19.4752   23.9177 O   0  0  0  0  0  0  0  0  0  0  0  0
   18.3839   20.3354   22.2486 C   0  0  0  0  0  0  0  0  0  0  0  0
   18.2063   21.3236   22.6885 H   0  0  0  0  0  0  0  0  0  0  0  0
   18.2726   20.4427   21.1629 H   0  0  0  0  0  0  0  0  0  0  0  0
   19.7748   19.8480   22.6070 C   0  0  0  0  0  0  0  0  0  0  0  0
   20.0131   19.8626   23.6702 H   0  0  0  0  0  0  0  0  0  0  0  0
   20.6722   19.4156   21.7159 C   0  0  0  0  0  0  0  0  0  0  0  0
   20.4315   19.3965   20.6535 H   0  0  0  0  0  0  0  0  0  0  0  0
   22.0576   18.9273   22.0757 C   0  0  0  0  0  0  0  0  0  0  0  0
   22.8007   19.4064   21.4240 H   0  0  0  0  0  0  0  0  0  0  0  0
   22.3105   19.2133   23.1060 H   0  0  0  0  0  0  0  0  0  0  0  0
   22.1592   17.3963   21.9322 C   0  0  0  0  0  0  0  0  0  0  0  0
   21.9489   17.0848   20.9007 H   0  0  0  0  0  0  0  0  0  0  0  0
   23.1663   17.0473   22.1949 H   0  0  0  0  0  0  0  0  0  0  0  0
   21.4410   16.8944   22.5940 H   0  0  0  0  0  0  0  0  0  0  0  0
  1  2  1  0  0  0  0
  1  3  2  0  0  0  0
  1  4  1  0  0  0  0
  4  5  1  0  0  0  0
  4  6  1  0  0  0  0
  4  7  1  0  0  0  0
  7  8  1  0  0  0  0
  7  9  2  0  0  0  0
  9 10  1  0  0  0  0
  9 11  1  0  0  0  0
 11 12  1  0  0  0  0
 11 13  1  0  0  0  0
 11 14  1  0  0  0  0
 14 15  1  0  0  0  0
 14 16  1  0  0  0  0
 14 17  1  0  0  0  0
M  END
> <VConfSearch Rank>
449

> <Conf_Id>
7

> <Delta U+W>
-0.041

> <U+W>
-49.468

> <U>
14.121

> <W>
-63.589

> <W(PB)>
-65.660

> <W(SA)>
2.071

> <Valence>
15.230

> <Coulomb>
-1.333

> <VdW>
0.224

> <VdW6>
-4.212

> <VdW12>
4.436

> <Bond>
0.044

> <Angle>
2.230

> <Pdih>
12.956

> <Idih>
0.000

> <Tether>
0.000

$$$$
VeraChem MOL file


 17 16  0  0  0  0  0  0  0  0999 V2000     
   17.4526   19.0705   22.9130 C   0  0  0  0  0  0  0  0  0  0  0  0
   17.3647   17.8842   23.1618 O   0  5  0  0  0  0  0  0  0  0  0  0
   16.7424   19.6423   22.1094 O   0  0  0  0  0  0  0  0  0  0  0  0
   18.4916   19.8919   23.6702 C   0  0  0  0  0  0  0  0  0  0  0  0
   18.6036   19.4541   24.6689 H   0  0  0  0  0  0  0  0  0  0  0  0
   18.0781   20.8952   23.8256 H   0  0  0  0  0  0  0  0  0  0  0  0
   19.8562   19.9999   23.0045 C   0  0  0  0  0  0  0  0  0  0  0  0
   20.5825   20.5905   23.5616 H   0  0  0  0  0  0  0  0  0  0  0  0
   20.2092   19.4444   21.8393 C   0  0  0  0  0  0  0  0  0  0  0  0
   19.5025   18.8485   21.2629 H   0  0  0  0  0  0  0  0  0  0  0  0
   21.5818   19.5838   21.2191 C   0  0  0  0  0  0  0  0  0  0  0  0
   21.4837   19.8613   20.1609 H   0  0  0  0  0  0  0  0  0  0  0  0
   22.1442   20.3924   21.7061 H   0  0  0  0  0  0  0  0  0  0  0  0
   22.3772   18.2688   21.3337 C   0  0  0  0  0  0  0  0  0  0  0  0
   23.3715   18.3752   20.8810 H   0  0  0  0  0  0  0  0  0  0  0  0
   22.5103   17.9842   22.3858 H   0  0  0  0  0  0  0  0  0  0  0  0
   21.8553   17.4498   20.8215 H   0  0  0  0  0  0  0  0  0  0  0  0
  1  2  1  0  0  0  0
  1  3  2  0  0  0  0
  1  4  1  0  0  0  0
  4  5  1  0  0  0  0
  4  6  1  0  0  0  0
  4  7  1  0  0  0  0
  7  8  1  0  0  0  0
  7  9  2  0  0  0  0
  9 10  1  0  0  0  0
  9 11  1  0  0  0  0
 11 12  1  0  0  0  0
 11 13  1  0  0  0  0
 11 14  1  0  0  0  0
 14 15  1  0  0  0  0
 14 16  1  0  0  0  0
 14 17  1  0  0  0  0
M  END
> <VConfSearch Rank>
450

> <Conf_Id>
39

> <Delta U+W>
-0.422

> <U+W>
-49.849

> <U>
14.465

> <W>
-64.314

> <W(PB)>
-66.406

> <W(SA)>
2.093

> <Valence>
14.072

> <Coulomb>
-0.199

> <VdW>
0.592

> <VdW6>
-5.019

> <VdW12>
5.611

> <Bond>
0.085

> <Angle>
2.748

> <Pdih>
11.238

> <Idih>
0.001

> <Tether>
0.000

$$$$
VeraChem MOL file


 17 16  0  0  0  0  0  0  0  0999 V2000     
   20.9029   21.7495   20.3007 C   0  0  0  0  0  0  0  0  0  0  0  0
   20.5874   21.6903   19.1286 O   0  5  0  0  0  0  0  0  0  0  0  0
   21.9619   22.2015   20.6895 O   0  0  0  0  0  0  0  0  0  0  0  0
   19.9137   21.2337   21.3374 C   0  0  0  0  0  0  0  0  0  0  0  0
   18.9110   21.5552   21.0327 H   0  0  0  0  0  0  0  0  0  0  0  0
   20.1313   21.7248   22.2935 H   0  0  0  0  0  0  0  0  0  0  0  0
   19.9557   19.7241   21.4797 C   0  0  0  0  0  0  0  0  0  0  0  0
   19.5959   19.1654   20.6162 H   0  0  0  0  0  0  0  0  0  0  0  0
   20.3969   19.0842   22.5669 C   0  0  0  0  0  0  0  0  0  0  0  0
   20.7593   19.6435   23.4289 H   0  0  0  0  0  0  0  0  0  0  0  0
   20.4416   17.5788   22.7056 C   0  0  0  0  0  0  0  0  0  0  0  0
   20.3107   17.0985   21.7261 H   0  0  0  0  0  0  0  0  0  0  0  0
   21.4274   17.2701   23.0789 H   0  0  0  0  0  0  0  0  0  0  0  0
   19.3477   17.0787   23.6691 C   0  0  0  0  0  0  0  0  0  0  0  0
   18.3499   17.3538   23.3027 H   0  0  0  0  0  0  0  0  0  0  0  0
   19.3855   15.9859   23.7661 H   0  0  0  0  0  0  0  0  0  0  0  0
   19.4771   17.5141   24.6686 H   0  0  0  0  0  0  0  0  0  0  0  0
  1  2  1  0  0  0  0
  1  3  2  0  0  0  0
  1  4  1  0  0  0  0
  4  5  1  0  0  0  0
  4  6  1  0  0  0  0
  4  7  1  0  0  0  0
  7  8  1  0  0  0  0
  7  9  2  0  0  0  0
  9 10  1  0  0  0  0
  9 11  1  0  0  0  0
 11 12  1  0  0  0  0
 11 13  1  0  0  0  0
 11 14  1  0  0  0  0
 14 15  1  0  0  0  0
 14 16  1  0  0  0  0
 14 17  1  0  0  0  0
M  END
> <VConfSearch Rank>
451

> <Conf_Id>
38

> <Delta U+W>
0.000

> <U+W>
-49.427

> <U>
13.666

> <W>
-63.093

> <W(PB)>
-65.225

> <W(SA)>
2.132

> <Valence>
15.226

> <Coulomb>
-1.822

> <VdW>
0.261

> <VdW6>
-4.165

> <VdW12>
4.426

> <Bond>
0.044

> <Angle>
2.229

> <Pdih>
12.953

> <Idih>
0.000

> <Tether>
0.000

$$$$
VeraChem MOL file


 17 16  0  0  0  0  0  0  0  0999 V2000     
   17.0064   18.8398   22.6967 C   0  0  0  0  0  0  0  0  0  0  0  0
   16.8823   18.2579   23.7563 O   0  5  0  0  0  0  0  0  0  0  0  0
   16.2911   18.6431   21.7341 O   0  0  0  0  0  0  0  0  0  0  0  0
   18.1148   19.8764   22.5675 C   0  0  0  0  0  0  0  0  0  0  0  0
   18.3673   20.2358   23.5724 H   0  0  0  0  0  0  0  0  0  0  0  0
   17.7107   20.7315   22.0134 H   0  0  0  0  0  0  0  0  0  0  0  0
   19.3412   19.3306   21.8612 C   0  0  0  0  0  0  0  0  0  0  0  0
   19.2059   19.1016   20.8046 H   0  0  0  0  0  0  0  0  0  0  0  0
   20.5213   19.1271   22.4546 C   0  0  0  0  0  0  0  0  0  0  0  0
   20.6549   19.3533   23.5120 H   0  0  0  0  0  0  0  0  0  0  0  0
   21.7420   18.5790   21.7497 C   0  0  0  0  0  0  0  0  0  0  0  0
   22.1818   17.7683   22.3463 H   0  0  0  0  0  0  0  0  0  0  0  0
   21.4626   18.1419   20.7811 H   0  0  0  0  0  0  0  0  0  0  0  0
   22.7947   19.6822   21.5268 C   0  0  0  0  0  0  0  0  0  0  0  0
   23.1210   20.1113   22.4833 H   0  0  0  0  0  0  0  0  0  0  0  0
   23.6783   19.2784   21.0156 H   0  0  0  0  0  0  0  0  0  0  0  0
   22.3852   20.4930   20.9100 H   0  0  0  0  0  0  0  0  0  0  0  0
  1  2  1  0  0  0  0
  1  3  2  0  0  0  0
  1  4  1  0  0  0  0
  4  5  1  0  0  0  0
  4  6  1  0  0  0  0
  4  7  1  0  0  0  0
  7  8  1  0  0  0  0
  7  9  2  0  0  0  0
  9 10  1  0  0  0  0
  9 11  1  0  0  0  0
 11 12  1  0  0  0  0
 11 13  1  0  0  0  0
 11 14  1  0  0  0  0
 14 15  1  0  0  0  0
 14 16  1  0  0  0  0
 14 17  1  0  0  0  0
M  END
> <VConfSearch Rank>
452

> <Conf_Id>
35

> <Delta U+W>
-0.102

> <U+W>
-49.529

> <U>
13.666

> <W>
-63.195

> <W(PB)>
-65.299

> <W(SA)>
2.103

> <Valence>
15.226

> <Coulomb>
-1.822

> <VdW>
0.261

> <VdW6>
-4.165

> <VdW12>
4.426

> <Bond>
0.044

> <Angle>
2.229

> <Pdih>
12.953

> <Idih>
0.000

> <Tether>
0.000

$$$$
VeraChem MOL file


 17 16  0  0  0  0  0  0  0  0999 V2000     
   20.3479   16.4058   23.4021 C   0  0  0  0  0  0  0  0  0  0  0  0
   20.1756   16.4797   24.6029 O   0  5  0  0  0  0  0  0  0  0  0  0
   19.8047   15.5801   22.6949 O   0  0  0  0  0  0  0  0  0  0  0  0
   21.3041   17.3968   22.7516 C   0  0  0  0  0  0  0  0  0  0  0  0
   21.6749   16.9541   21.8193 H   0  0  0  0  0  0  0  0  0  0  0  0
   22.1679   17.5140   23.4163 H   0  0  0  0  0  0  0  0  0  0  0  0
   20.6574   18.7450   22.4958 C   0  0  0  0  0  0  0  0  0  0  0  0
   20.4096   19.3078   23.3941 H   0  0  0  0  0  0  0  0  0  0  0  0
   20.3949   19.2281   21.2750 C   0  0  0  0  0  0  0  0  0  0  0  0
   20.6533   18.6340   20.3989 H   0  0  0  0  0  0  0  0  0  0  0  0
   19.7483   20.5633   20.9470 C   0  0  0  0  0  0  0  0  0  0  0  0
   20.4268   21.1399   20.3038 H   0  0  0  0  0  0  0  0  0  0  0  0
   18.8490   20.3847   20.3421 H   0  0  0  0  0  0  0  0  0  0  0  0
   19.3669   21.4218   22.1732 C   0  0  0  0  0  0  0  0  0  0  0  0
   20.2527   21.6663   22.7739 H   0  0  0  0  0  0  0  0  0  0  0  0
   18.9064   22.3658   21.8539 H   0  0  0  0  0  0  0  0  0  0  0  0
   18.6463   20.8960   22.8133 H   0  0  0  0  0  0  0  0  0  0  0  0
  1  2  1  0  0  0  0
  1  3  2  0  0  0  0
  1  4  1  0  0  0  0
  4  5  1  0  0  0  0
  4  6  1  0  0  0  0
  4  7  1  0  0  0  0
  7  8  1  0  0  0  0
  7  9  2  0  0  0  0
  9 10  1  0  0  0  0
  9 11  1  0  0  0  0
 11 12  1  0  0  0  0
 11 13  1  0  0  0  0
 11 14  1  0  0  0  0
 14 15  1  0  0  0  0
 14 16  1  0  0  0  0
 14 17  1  0  0  0  0
M  END
> <VConfSearch Rank>
453

> <Conf_Id>
19

> <Delta U+W>
-0.496

> <U+W>
-49.923

> <U>
13.863

> <W>
-63.786

> <W(PB)>
-65.856

> <W(SA)>
2.070

> <Valence>
14.117

> <Coulomb>
-1.228

> <VdW>
0.974

> <VdW6>
-4.885

> <VdW12>
5.859

> <Bond>
0.094

> <Angle>
2.818

> <Pdih>
11.205

> <Idih>
0.000

> <Tether>
0.000

$$$$
VeraChem MOL file


 17 16  0  0  0  0  0  0  0  0999 V2000     
   21.6414   20.1319   24.5094 C   0  0  0  0  0  0  0  0  0  0  0  0
   22.5205   19.3058   24.6556 O   0  5  0  0  0  0  0  0  0  0  0  0
   21.8381   21.3312   24.5175 O   0  0  0  0  0  0  0  0  0  0  0  0
   20.2128   19.6402   24.3163 C   0  0  0  0  0  0  0  0  0  0  0  0
   19.5543   20.2830   24.9118 H   0  0  0  0  0  0  0  0  0  0  0  0
   20.1384   18.6292   24.7344 H   0  0  0  0  0  0  0  0  0  0  0  0
   19.7835   19.6599   22.8616 C   0  0  0  0  0  0  0  0  0  0  0  0
   19.6832   20.6508   22.4197 H   0  0  0  0  0  0  0  0  0  0  0  0
   19.5429   18.5646   22.1345 C   0  0  0  0  0  0  0  0  0  0  0  0
   19.6483   17.5739   22.5754 H   0  0  0  0  0  0  0  0  0  0  0  0
   19.1177   18.5863   20.6833 C   0  0  0  0  0  0  0  0  0  0  0  0
   18.2554   17.9214   20.5393 H   0  0  0  0  0  0  0  0  0  0  0  0
   18.7905   19.5944   20.3936 H   0  0  0  0  0  0  0  0  0  0  0  0
   20.2701   18.1402   19.7623 C   0  0  0  0  0  0  0  0  0  0  0  0
   20.5919   17.1188   20.0044 H   0  0  0  0  0  0  0  0  0  0  0  0
   19.9563   18.1582   18.7105 H   0  0  0  0  0  0  0  0  0  0  0  0
   21.1361   18.8064   19.8712 H   0  0  0  0  0  0  0  0  0  0  0  0
  1  2  1  0  0  0  0
  1  3  2  0  0  0  0
  1  4  1  0  0  0  0
  4  5  1  0  0  0  0
  4  6  1  0  0  0  0
  4  7  1  0  0  0  0
  7  8  1  0  0  0  0
  7  9  2  0  0  0  0
  9 10  1  0  0  0  0
  9 11  1  0  0  0  0
 11 12  1  0  0  0  0
 11 13  1  0  0  0  0
 11 14  1  0  0  0  0
 14 15  1  0  0  0  0
 14 16  1  0  0  0  0
 14 17  1  0  0  0  0
M  END
> <VConfSearch Rank>
454

> <Conf_Id>
7

> <Delta U+W>
-0.041

> <U+W>
-49.468

> <U>
14.121

> <W>
-63.589

> <W(PB)>
-65.660

> <W(SA)>
2.071

> <Valence>
15.230

> <Coulomb>
-1.333

> <VdW>
0.224

> <VdW6>
-4.212

> <VdW12>
4.436

> <Bond>
0.044

> <Angle>
2.230

> <Pdih>
12.956

> <Idih>
0.000

> <Tether>
0.000

$$$$
VeraChem MOL file


 17 16  0  0  0  0  0  0  0  0999 V2000     
   17.4928   19.3375   23.0840 C   0  0  0  0  0  0  0  0  0  0  0  0
   17.4648   20.3918   23.6879 O   0  5  0  0  0  0  0  0  0  0  0  0
   17.1354   18.2796   23.5636 O   0  0  0  0  0  0  0  0  0  0  0  0
   17.9764   19.3471   21.6371 C   0  0  0  0  0  0  0  0  0  0  0  0
   17.6985   20.3114   21.1959 H   0  0  0  0  0  0  0  0  0  0  0  0
   17.4064   18.5888   21.0876 H   0  0  0  0  0  0  0  0  0  0  0  0
   19.4666   19.1068   21.4407 C   0  0  0  0  0  0  0  0  0  0  0  0
   19.7904   19.1176   20.4007 H   0  0  0  0  0  0  0  0  0  0  0  0
   20.3639   18.8956   22.4109 C   0  0  0  0  0  0  0  0  0  0  0  0
   20.0668   18.8808   23.4589 H   0  0  0  0  0  0  0  0  0  0  0  0
   21.8371   18.6600   22.1616 C   0  0  0  0  0  0  0  0  0  0  0  0
   22.1749   17.7864   22.7354 H   0  0  0  0  0  0  0  0  0  0  0  0
   22.0165   18.4297   21.1024 H   0  0  0  0  0  0  0  0  0  0  0  0
   22.6706   19.8923   22.5637 C   0  0  0  0  0  0  0  0  0  0  0  0
   23.7387   19.7152   22.3820 H   0  0  0  0  0  0  0  0  0  0  0  0
   22.3677   20.7739   21.9836 H   0  0  0  0  0  0  0  0  0  0  0  0
   22.5398   20.1227   23.6292 H   0  0  0  0  0  0  0  0  0  0  0  0
  1  2  1  0  0  0  0
  1  3  2  0  0  0  0
  1  4  1  0  0  0  0
  4  5  1  0  0  0  0
  4  6  1  0  0  0  0
  4  7  1  0  0  0  0
  7  8  1  0  0  0  0
  7  9  2  0  0  0  0
  9 10  1  0  0  0  0
  9 11  1  0  0  0  0
 11 12  1  0  0  0  0
 11 13  1  0  0  0  0
 11 14  1  0  0  0  0
 14 15  1  0  0  0  0
 14 16  1  0  0  0  0
 14 17  1  0  0  0  0
M  END
> <VConfSearch Rank>
455

> <Conf_Id>
39

> <Delta U+W>
-0.422

> <U+W>
-49.849

> <U>
14.465

> <W>
-64.314

> <W(PB)>
-66.406

> <W(SA)>
2.093

> <Valence>
14.072

> <Coulomb>
-0.199

> <VdW>
0.592

> <VdW6>
-5.019

> <VdW12>
5.611

> <Bond>
0.085

> <Angle>
2.748

> <Pdih>
11.238

> <Idih>
0.001

> <Tether>
0.000

$$$$
VeraChem MOL file


 17 16  0  0  0  0  0  0  0  0999 V2000     
   23.2671   19.4211   22.2553 C   0  0  0  0  0  0  0  0  0  0  0  0
   23.8666   18.3727   22.1200 O   0  5  0  0  0  0  0  0  0  0  0  0
   23.5875   20.2803   23.0528 O   0  0  0  0  0  0  0  0  0  0  0  0
   22.0517   19.6723   21.3725 C   0  0  0  0  0  0  0  0  0  0  0  0
   22.2905   19.3146   20.3642 H   0  0  0  0  0  0  0  0  0  0  0  0
   21.8980   20.7557   21.3005 H   0  0  0  0  0  0  0  0  0  0  0  0
   20.8053   18.9794   21.8892 C   0  0  0  0  0  0  0  0  0  0  0  0
   20.8235   17.8911   21.8390 H   0  0  0  0  0  0  0  0  0  0  0  0
   19.7399   19.6188   22.3815 C   0  0  0  0  0  0  0  0  0  0  0  0
   19.7236   20.7069   22.4342 H   0  0  0  0  0  0  0  0  0  0  0  0
   18.4994   18.9261   22.8999 C   0  0  0  0  0  0  0  0  0  0  0  0
   18.6925   17.8553   23.0525 H   0  0  0  0  0  0  0  0  0  0  0  0
   18.2260   19.3399   23.8800 H   0  0  0  0  0  0  0  0  0  0  0  0
   17.3201   19.0975   21.9227 C   0  0  0  0  0  0  0  0  0  0  0  0
   17.5611   18.6675   20.9416 H   0  0  0  0  0  0  0  0  0  0  0  0
   16.4228   18.5934   22.3045 H   0  0  0  0  0  0  0  0  0  0  0  0
   17.0800   20.1595   21.7811 H   0  0  0  0  0  0  0  0  0  0  0  0
  1  2  1  0  0  0  0
  1  3  2  0  0  0  0
  1  4  1  0  0  0  0
  4  5  1  0  0  0  0
  4  6  1  0  0  0  0
  4  7  1  0  0  0  0
  7  8  1  0  0  0  0
  7  9  2  0  0  0  0
  9 10  1  0  0  0  0
  9 11  1  0  0  0  0
 11 12  1  0  0  0  0
 11 13  1  0  0  0  0
 11 14  1  0  0  0  0
 14 15  1  0  0  0  0
 14 16  1  0  0  0  0
 14 17  1  0  0  0  0
M  END
> <VConfSearch Rank>
456

> <Conf_Id>
38

> <Delta U+W>
0.000

> <U+W>
-49.427

> <U>
13.666

> <W>
-63.093

> <W(PB)>
-65.225

> <W(SA)>
2.132

> <Valence>
15.226

> <Coulomb>
-1.822

> <VdW>
0.261

> <VdW6>
-4.165

> <VdW12>
4.426

> <Bond>
0.044

> <Angle>
2.229

> <Pdih>
12.953

> <Idih>
0.000

> <Tether>
0.000

$$$$
VeraChem MOL file


 17 16  0  0  0  0  0  0  0  0999 V2000     
   21.2552   21.5106   20.2027 C   0  0  0  0  0  0  0  0  0  0  0  0
   21.0853   22.5977   20.7186 O   0  5  0  0  0  0  0  0  0  0  0  0
   21.1609   21.3119   19.0075 O   0  0  0  0  0  0  0  0  0  0  0  0
   21.6111   20.3329   21.1004 C   0  0  0  0  0  0  0  0  0  0  0  0
   22.0634   20.7259   22.0189 H   0  0  0  0  0  0  0  0  0  0  0  0
   22.3819   19.7438   20.5902 H   0  0  0  0  0  0  0  0  0  0  0  0
   20.4117   19.4595   21.4157 C   0  0  0  0  0  0  0  0  0  0  0  0
   20.0050   18.9053   20.5703 H   0  0  0  0  0  0  0  0  0  0  0  0
   19.8599   19.3505   22.6280 C   0  0  0  0  0  0  0  0  0  0  0  0
   20.2651   19.9075   23.4722 H   0  0  0  0  0  0  0  0  0  0  0  0
   18.6615   18.4822   22.9397 C   0  0  0  0  0  0  0  0  0  0  0  0
   17.9235   19.0605   23.5120 H   0  0  0  0  0  0  0  0  0  0  0  0
   18.1640   18.1664   22.0123 H   0  0  0  0  0  0  0  0  0  0  0  0
   19.0752   17.2360   23.7464 C   0  0  0  0  0  0  0  0  0  0  0  0
   19.5416   17.5225   24.6981 H   0  0  0  0  0  0  0  0  0  0  0  0
   18.2015   16.6103   23.9701 H   0  0  0  0  0  0  0  0  0  0  0  0
   19.7946   16.6276   23.1825 H   0  0  0  0  0  0  0  0  0  0  0  0
  1  2  1  0  0  0  0
  1  3  2  0  0  0  0
  1  4  1  0  0  0  0
  4  5  1  0  0  0  0
  4  6  1  0  0  0  0
  4  7  1  0  0  0  0
  7  8  1  0  0  0  0
  7  9  2  0  0  0  0
  9 10  1  0  0  0  0
  9 11  1  0  0  0  0
 11 12  1  0  0  0  0
 11 13  1  0  0  0  0
 11 14  1  0  0  0  0
 14 15  1  0  0  0  0
 14 16  1  0  0  0  0
 14 17  1  0  0  0  0
M  END
> <VConfSearch Rank>
457

> <Conf_Id>
35

> <Delta U+W>
-0.102

> <U+W>
-49.529

> <U>
13.666

> <W>
-63.195

> <W(PB)>
-65.299

> <W(SA)>
2.103

> <Valence>
15.226

> <Coulomb>
-1.822

> <VdW>
0.261

> <VdW6>
-4.165

> <VdW12>
4.426

> <Bond>
0.044

> <Angle>
2.229

> <Pdih>
12.953

> <Idih>
0.000

> <Tether>
0.000

$$$$
VeraChem MOL file


 17 16  0  0  0  0  0  0  0  0999 V2000     
   18.3960   17.0713   23.3248 C   0  0  0  0  0  0  0  0  0  0  0  0
   18.9895   16.0226   23.4822 O   0  5  0  0  0  0  0  0  0  0  0  0
   17.6539   17.5549   24.1568 O   0  0  0  0  0  0  0  0  0  0  0  0
   18.5865   17.8136   22.0086 C   0  0  0  0  0  0  0  0  0  0  0  0
   17.7106   18.4529   21.8454 H   0  0  0  0  0  0  0  0  0  0  0  0
   18.5950   17.0701   21.2032 H   0  0  0  0  0  0  0  0  0  0  0  0
   19.8674   18.6260   21.9804 C   0  0  0  0  0  0  0  0  0  0  0  0
   20.7809   18.0339   21.9791 H   0  0  0  0  0  0  0  0  0  0  0  0
   19.9030   19.9643   21.9640 C   0  0  0  0  0  0  0  0  0  0  0  0
   18.9678   20.5233   21.9704 H   0  0  0  0  0  0  0  0  0  0  0  0
   21.1452   20.8389   21.9394 C   0  0  0  0  0  0  0  0  0  0  0  0
   21.1051   21.4909   21.0563 H   0  0  0  0  0  0  0  0  0  0  0  0
   21.1230   21.5139   22.8057 H   0  0  0  0  0  0  0  0  0  0  0  0
   22.4846   20.0694   21.9361 C   0  0  0  0  0  0  0  0  0  0  0  0
   22.5654   19.4229   21.0524 H   0  0  0  0  0  0  0  0  0  0  0  0
   23.3304   20.7689   21.9191 H   0  0  0  0  0  0  0  0  0  0  0  0
   22.5825   19.4454   22.8342 H   0  0  0  0  0  0  0  0  0  0  0  0
  1  2  1  0  0  0  0
  1  3  2  0  0  0  0
  1  4  1  0  0  0  0
  4  5  1  0  0  0  0
  4  6  1  0  0  0  0
  4  7  1  0  0  0  0
  7  8  1  0  0  0  0
  7  9  2  0  0  0  0
  9 10  1  0  0  0  0
  9 11  1  0  0  0  0
 11 12  1  0  0  0  0
 11 13  1  0  0  0  0
 11 14  1  0  0  0  0
 14 15  1  0  0  0  0
 14 16  1  0  0  0  0
 14 17  1  0  0  0  0
M  END
> <VConfSearch Rank>
458

> <Conf_Id>
19

> <Delta U+W>
-0.496

> <U+W>
-49.923

> <U>
13.863

> <W>
-63.786

> <W(PB)>
-65.856

> <W(SA)>
2.070

> <Valence>
14.117

> <Coulomb>
-1.228

> <VdW>
0.974

> <VdW6>
-4.885

> <VdW12>
5.859

> <Bond>
0.094

> <Angle>
2.818

> <Pdih>
11.205

> <Idih>
0.000

> <Tether>
0.000

$$$$
VeraChem MOL file


 17 16  0  0  0  0  0  0  0  0999 V2000     
   17.9251   18.2764   20.4757 C   0  0  0  0  0  0  0  0  0  0  0  0
   17.7396   17.1207   20.8021 O   0  5  0  0  0  0  0  0  0  0  0  0
   17.0310   19.0884   20.3408 O   0  0  0  0  0  0  0  0  0  0  0  0
   19.3542   18.7317   20.2101 C   0  0  0  0  0  0  0  0  0  0  0  0
   19.3426   19.3662   19.3164 H   0  0  0  0  0  0  0  0  0  0  0  0
   19.9566   17.8478   19.9685 H   0  0  0  0  0  0  0  0  0  0  0  0
   19.9487   19.4914   21.3807 C   0  0  0  0  0  0  0  0  0  0  0  0
   19.4963   20.4617   21.5833 H   0  0  0  0  0  0  0  0  0  0  0  0
   20.9502   19.0372   22.1402 C   0  0  0  0  0  0  0  0  0  0  0  0
   21.3988   18.0646   21.9403 H   0  0  0  0  0  0  0  0  0  0  0  0
   21.5396   19.7950   23.3088 C   0  0  0  0  0  0  0  0  0  0  0  0
   22.6356   19.7971   23.2348 H   0  0  0  0  0  0  0  0  0  0  0  0
   21.2200   20.8460   23.2859 H   0  0  0  0  0  0  0  0  0  0  0  0
   21.1162   19.1625   24.6488 C   0  0  0  0  0  0  0  0  0  0  0  0
   21.4573   18.1210   24.7154 H   0  0  0  0  0  0  0  0  0  0  0  0
   21.5463   19.7166   25.4932 H   0  0  0  0  0  0  0  0  0  0  0  0
   20.0235   19.1718   24.7560 H   0  0  0  0  0  0  0  0  0  0  0  0
  1  2  1  0  0  0  0
  1  3  2  0  0  0  0
  1  4  1  0  0  0  0
  4  5  1  0  0  0  0
  4  6  1  0  0  0  0
  4  7  1  0  0  0  0
  7  8  1  0  0  0  0
  7  9  2  0  0  0  0
  9 10  1  0  0  0  0
  9 11  1  0  0  0  0
 11 12  1  0  0  0  0
 11 13  1  0  0  0  0
 11 14  1  0  0  0  0
 14 15  1  0  0  0  0
 14 16  1  0  0  0  0
 14 17  1  0  0  0  0
M  END
> <VConfSearch Rank>
459

> <Conf_Id>
7

> <Delta U+W>
-0.041

> <U+W>
-49.468

> <U>
14.121

> <W>
-63.589

> <W(PB)>
-65.660

> <W(SA)>
2.071

> <Valence>
15.230

> <Coulomb>
-1.333

> <VdW>
0.224

> <VdW6>
-4.212

> <VdW12>
4.436

> <Bond>
0.044

> <Angle>
2.230

> <Pdih>
12.956

> <Idih>
0.000

> <Tether>
0.000

$$$$
VeraChem MOL file


 17 16  0  0  0  0  0  0  0  0999 V2000     
   20.3251   18.9027   19.5364 C   0  0  0  0  0  0  0  0  0  0  0  0
   21.3240   18.2137   19.4682 O   0  5  0  0  0  0  0  0  0  0  0  0
   20.1829   19.9414   18.9216 O   0  0  0  0  0  0  0  0  0  0  0  0
   19.1769   18.4241   20.4196 C   0  0  0  0  0  0  0  0  0  0  0  0
   19.1790   17.3279   20.4091 H   0  0  0  0  0  0  0  0  0  0  0  0
   18.2376   18.7282   19.9431 H   0  0  0  0  0  0  0  0  0  0  0  0
   19.2034   18.9205   21.8582 C   0  0  0  0  0  0  0  0  0  0  0  0
   18.3750   18.5672   22.4709 H   0  0  0  0  0  0  0  0  0  0  0  0
   20.1307   19.7209   22.3972 C   0  0  0  0  0  0  0  0  0  0  0  0
   20.9696   20.0875   21.8069 H   0  0  0  0  0  0  0  0  0  0  0  0
   20.1100   20.1876   23.8359 C   0  0  0  0  0  0  0  0  0  0  0  0
   20.2765   21.2726   23.8758 H   0  0  0  0  0  0  0  0  0  0  0  0
   19.1251   20.0032   24.2865 H   0  0  0  0  0  0  0  0  0  0  0  0
   21.1927   19.4709   24.6660 C   0  0  0  0  0  0  0  0  0  0  0  0
   21.1741   19.8143   25.7085 H   0  0  0  0  0  0  0  0  0  0  0  0
   21.0317   18.3848   24.6619 H   0  0  0  0  0  0  0  0  0  0  0  0
   22.1931   19.6696   24.2595 H   0  0  0  0  0  0  0  0  0  0  0  0
  1  2  1  0  0  0  0
  1  3  2  0  0  0  0
  1  4  1  0  0  0  0
  4  5  1  0  0  0  0
  4  6  1  0  0  0  0
  4  7  1  0  0  0  0
  7  8  1  0  0  0  0
  7  9  2  0  0  0  0
  9 10  1  0  0  0  0
  9 11  1  0  0  0  0
 11 12  1  0  0  0  0
 11 13  1  0  0  0  0
 11 14  1  0  0  0  0
 14 15  1  0  0  0  0
 14 16  1  0  0  0  0
 14 17  1  0  0  0  0
M  END
> <VConfSearch Rank>
460

> <Conf_Id>
39

> <Delta U+W>
-0.422

> <U+W>
-49.849

> <U>
14.465

> <W>
-64.314

> <W(PB)>
-66.406

> <W(SA)>
2.093

> <Valence>
14.072

> <Coulomb>
-0.199

> <VdW>
0.592

> <VdW6>
-5.019

> <VdW12>
5.611

> <Bond>
0.085

> <Angle>
2.748

> <Pdih>
11.238

> <Idih>
0.001

> <Tether>
0.000

$$$$
VeraChem MOL file


 17 16  0  0  0  0  0  0  0  0999 V2000     
   21.6554   20.4295   19.5973 C   0  0  0  0  0  0  0  0  0  0  0  0
   22.0447   19.6196   18.7791 O   0  5  0  0  0  0  0  0  0  0  0  0
   22.2999   21.4008   19.9407 O   0  0  0  0  0  0  0  0  0  0  0  0
   20.2823   20.2165   20.2210 C   0  0  0  0  0  0  0  0  0  0  0  0
   19.6027   19.8822   19.4287 H   0  0  0  0  0  0  0  0  0  0  0  0
   19.9115   21.1864   20.5736 H   0  0  0  0  0  0  0  0  0  0  0  0
   20.3074   19.2017   21.3481 C   0  0  0  0  0  0  0  0  0  0  0  0
   20.5119   18.1752   21.0452 H   0  0  0  0  0  0  0  0  0  0  0  0
   20.1015   19.5021   22.6340 C   0  0  0  0  0  0  0  0  0  0  0  0
   19.9000   20.5292   22.9366 H   0  0  0  0  0  0  0  0  0  0  0  0
   20.1306   18.4895   23.7570 C   0  0  0  0  0  0  0  0  0  0  0  0
   20.5861   17.5498   23.4155 H   0  0  0  0  0  0  0  0  0  0  0  0
   20.7577   18.8638   24.5775 H   0  0  0  0  0  0  0  0  0  0  0  0
   18.7104   18.2059   24.2840 C   0  0  0  0  0  0  0  0  0  0  0  0
   18.0711   17.8058   23.4860 H   0  0  0  0  0  0  0  0  0  0  0  0
   18.7380   17.4710   25.0990 H   0  0  0  0  0  0  0  0  0  0  0  0
   18.2447   19.1230   24.6680 H   0  0  0  0  0  0  0  0  0  0  0  0
  1  2  1  0  0  0  0
  1  3  2  0  0  0  0
  1  4  1  0  0  0  0
  4  5  1  0  0  0  0
  4  6  1  0  0  0  0
  4  7  1  0  0  0  0
  7  8  1  0  0  0  0
  7  9  2  0  0  0  0
  9 10  1  0  0  0  0
  9 11  1  0  0  0  0
 11 12  1  0  0  0  0
 11 13  1  0  0  0  0
 11 14  1  0  0  0  0
 14 15  1  0  0  0  0
 14 16  1  0  0  0  0
 14 17  1  0  0  0  0
M  END
> <VConfSearch Rank>
461

> <Conf_Id>
38

> <Delta U+W>
0.000

> <U+W>
-49.427

> <U>
13.666

> <W>
-63.093

> <W(PB)>
-65.225

> <W(SA)>
2.132

> <Valence>
15.226

> <Coulomb>
-1.822

> <VdW>
0.261

> <VdW6>
-4.165

> <VdW12>
4.426

> <Bond>
0.044

> <Angle>
2.229

> <Pdih>
12.953

> <Idih>
0.000

> <Tether>
0.000

$$$$
VeraChem MOL file


 17 16  0  0  0  0  0  0  0  0999 V2000     
   19.7276   21.5636   19.9563 C   0  0  0  0  0  0  0  0  0  0  0  0
   19.7599   21.0755   18.8438 O   0  5  0  0  0  0  0  0  0  0  0  0
   20.2120   22.6440   20.2304 O   0  0  0  0  0  0  0  0  0  0  0  0
   19.0383   20.7830   21.0677 C   0  0  0  0  0  0  0  0  0  0  0  0
   18.3195   20.0940   20.6081 H   0  0  0  0  0  0  0  0  0  0  0  0
   18.4608   21.4950   21.6685 H   0  0  0  0  0  0  0  0  0  0  0  0
   20.0213   20.0354   21.9483 C   0  0  0  0  0  0  0  0  0  0  0  0
   20.6655   20.6632   22.5631 H   0  0  0  0  0  0  0  0  0  0  0  0
   20.1252   18.7038   21.9956 C   0  0  0  0  0  0  0  0  0  0  0  0
   19.4828   18.0767   21.3782 H   0  0  0  0  0  0  0  0  0  0  0  0
   21.1087   17.9602   22.8714 C   0  0  0  0  0  0  0  0  0  0  0  0
   21.6339   17.2005   22.2768 H   0  0  0  0  0  0  0  0  0  0  0  0
   21.8763   18.6461   23.2556 H   0  0  0  0  0  0  0  0  0  0  0  0
   20.3928   17.2813   24.0554 C   0  0  0  0  0  0  0  0  0  0  0  0
   19.6448   16.5606   23.6997 H   0  0  0  0  0  0  0  0  0  0  0  0
   21.1114   16.7428   24.6868 H   0  0  0  0  0  0  0  0  0  0  0  0
   19.8810   18.0253   24.6800 H   0  0  0  0  0  0  0  0  0  0  0  0
  1  2  1  0  0  0  0
  1  3  2  0  0  0  0
  1  4  1  0  0  0  0
  4  5  1  0  0  0  0
  4  6  1  0  0  0  0
  4  7  1  0  0  0  0
  7  8  1  0  0  0  0
  7  9  2  0  0  0  0
  9 10  1  0  0  0  0
  9 11  1  0  0  0  0
 11 12  1  0  0  0  0
 11 13  1  0  0  0  0
 11 14  1  0  0  0  0
 14 15  1  0  0  0  0
 14 16  1  0  0  0  0
 14 17  1  0  0  0  0
M  END
> <VConfSearch Rank>
462

> <Conf_Id>
35

> <Delta U+W>
-0.102

> <U+W>
-49.529

> <U>
13.666

> <W>
-63.195

> <W(PB)>
-65.299

> <W(SA)>
2.103

> <Valence>
15.226

> <Coulomb>
-1.822

> <VdW>
0.261

> <VdW6>
-4.165

> <VdW12>
4.426

> <Bond>
0.044

> <Angle>
2.229

> <Pdih>
12.953

> <Idih>
0.000

> <Tether>
0.000

$$$$
VeraChem MOL file


 17 16  0  0  0  0  0  0  0  0999 V2000     
   21.6828   21.6425   21.8794 C   0  0  0  0  0  0  0  0  0  0  0  0
   22.1251   22.0044   22.9520 O   0  5  0  0  0  0  0  0  0  0  0  0
   22.3258   21.6563   20.8483 O   0  0  0  0  0  0  0  0  0  0  0  0
   20.2412   21.1542   21.8250 C   0  0  0  0  0  0  0  0  0  0  0  0
   19.8744   21.2817   20.7994 H   0  0  0  0  0  0  0  0  0  0  0  0
   19.6407   21.8119   22.4641 H   0  0  0  0  0  0  0  0  0  0  0  0
   20.0985   19.7142   22.2802 C   0  0  0  0  0  0  0  0  0  0  0  0
   20.2969   19.5503   23.3380 H   0  0  0  0  0  0  0  0  0  0  0  0
   19.7624   18.7038   21.4684 C   0  0  0  0  0  0  0  0  0  0  0  0
   19.5755   18.9057   20.4142 H   0  0  0  0  0  0  0  0  0  0  0  0
   19.6058   17.2428   21.8547 C   0  0  0  0  0  0  0  0  0  0  0  0
   18.5909   16.9121   21.5954 H   0  0  0  0  0  0  0  0  0  0  0  0
   20.2809   16.6362   21.2360 H   0  0  0  0  0  0  0  0  0  0  0  0
   19.8717   16.9299   23.3438 C   0  0  0  0  0  0  0  0  0  0  0  0
   19.1766   17.4793   23.9922 H   0  0  0  0  0  0  0  0  0  0  0  0
   19.7397   15.8582   23.5414 H   0  0  0  0  0  0  0  0  0  0  0  0
   20.8980   17.1997   23.6258 H   0  0  0  0  0  0  0  0  0  0  0  0
  1  2  1  0  0  0  0
  1  3  2  0  0  0  0
  1  4  1  0  0  0  0
  4  5  1  0  0  0  0
  4  6  1  0  0  0  0
  4  7  1  0  0  0  0
  7  8  1  0  0  0  0
  7  9  2  0  0  0  0
  9 10  1  0  0  0  0
  9 11  1  0  0  0  0
 11 12  1  0  0  0  0
 11 13  1  0  0  0  0
 11 14  1  0  0  0  0
 14 15  1  0  0  0  0
 14 16  1  0  0  0  0
 14 17  1  0  0  0  0
M  END
> <VConfSearch Rank>
463

> <Conf_Id>
19

> <Delta U+W>
-0.496

> <U+W>
-49.923

> <U>
13.863

> <W>
-63.786

> <W(PB)>
-65.856

> <W(SA)>
2.070

> <Valence>
14.117

> <Coulomb>
-1.228

> <VdW>
0.974

> <VdW6>
-4.885

> <VdW12>
5.859

> <Bond>
0.094

> <Angle>
2.818

> <Pdih>
11.205

> <Idih>
0.000

> <Tether>
0.000

$$$$
VeraChem MOL file


 17 16  0  0  0  0  0  0  0  0999 V2000     
   18.2242   19.4183   20.0310 C   0  0  0  0  0  0  0  0  0  0  0  0
   17.2630   19.8837   20.6110 O   0  5  0  0  0  0  0  0  0  0  0  0
   18.6599   19.8638   18.9876 O   0  0  0  0  0  0  0  0  0  0  0  0
   18.9154   18.2040   20.6372 C   0  0  0  0  0  0  0  0  0  0  0  0
   19.1519   17.5115   19.8211 H   0  0  0  0  0  0  0  0  0  0  0  0
   18.2001   17.6941   21.2937 H   0  0  0  0  0  0  0  0  0  0  0  0
   20.1792   18.5713   21.3914 C   0  0  0  0  0  0  0  0  0  0  0  0
   20.9974   18.9423   20.7749 H   0  0  0  0  0  0  0  0  0  0  0  0
   20.3192   18.4704   22.7167 C   0  0  0  0  0  0  0  0  0  0  0  0
   19.4989   18.1043   23.3332 H   0  0  0  0  0  0  0  0  0  0  0  0
   21.5792   18.8400   23.4671 C   0  0  0  0  0  0  0  0  0  0  0  0
   21.8471   18.0330   24.1624 H   0  0  0  0  0  0  0  0  0  0  0  0
   22.4226   18.9500   22.7715 H   0  0  0  0  0  0  0  0  0  0  0  0
   21.3910   20.1530   24.2517 C   0  0  0  0  0  0  0  0  0  0  0  0
   20.5778   20.0589   24.9833 H   0  0  0  0  0  0  0  0  0  0  0  0
   22.3084   20.4167   24.7939 H   0  0  0  0  0  0  0  0  0  0  0  0
   21.1462   20.9808   23.5731 H   0  0  0  0  0  0  0  0  0  0  0  0
  1  2  1  0  0  0  0
  1  3  2  0  0  0  0
  1  4  1  0  0  0  0
  4  5  1  0  0  0  0
  4  6  1  0  0  0  0
  4  7  1  0  0  0  0
  7  8  1  0  0  0  0
  7  9  2  0  0  0  0
  9 10  1  0  0  0  0
  9 11  1  0  0  0  0
 11 12  1  0  0  0  0
 11 13  1  0  0  0  0
 11 14  1  0  0  0  0
 14 15  1  0  0  0  0
 14 16  1  0  0  0  0
 14 17  1  0  0  0  0
M  END
> <VConfSearch Rank>
464

> <Conf_Id>
7

> <Delta U+W>
-0.041

> <U+W>
-49.468

> <U>
14.121

> <W>
-63.589

> <W(PB)>
-65.660

> <W(SA)>
2.071

> <Valence>
15.230

> <Coulomb>
-1.333

> <VdW>
0.224

> <VdW6>
-4.212

> <VdW12>
4.436

> <Bond>
0.044

> <Angle>
2.230

> <Pdih>
12.956

> <Idih>
0.000

> <Tether>
0.000

$$$$
VeraChem MOL file


 17 16  0  0  0  0  0  0  0  0999 V2000     
   20.7834   20.8713   24.4212 C   0  0  0  0  0  0  0  0  0  0  0  0
   19.9577   21.7562   24.3105 O   0  5  0  0  0  0  0  0  0  0  0  0
   21.9794   21.0747   24.4952 O   0  0  0  0  0  0  0  0  0  0  0  0
   20.2905   19.4296   24.4996 C   0  0  0  0  0  0  0  0  0  0  0  0
   19.3121   19.4351   24.9939 H   0  0  0  0  0  0  0  0  0  0  0  0
   20.9632   18.8808   25.1689 H   0  0  0  0  0  0  0  0  0  0  0  0
   20.1858   18.6978   23.1690 C   0  0  0  0  0  0  0  0  0  0  0  0
   19.8322   17.6705   23.2478 H   0  0  0  0  0  0  0  0  0  0  0  0
   20.4816   19.2054   21.9666 C   0  0  0  0  0  0  0  0  0  0  0  0
   20.8361   20.2300   21.8600 H   0  0  0  0  0  0  0  0  0  0  0  0
   20.3612   18.4334   20.6715 C   0  0  0  0  0  0  0  0  0  0  0  0
   21.2789   18.5559   20.0805 H   0  0  0  0  0  0  0  0  0  0  0  0
   20.2569   17.3582   20.8722 H   0  0  0  0  0  0  0  0  0  0  0  0
   19.1517   18.9180   19.8485 C   0  0  0  0  0  0  0  0  0  0  0  0
   19.0700   18.3554   18.9094 H   0  0  0  0  0  0  0  0  0  0  0  0
   18.2182   18.7813   20.4101 H   0  0  0  0  0  0  0  0  0  0  0  0
   19.2485   19.9832   19.6004 H   0  0  0  0  0  0  0  0  0  0  0  0
  1  2  1  0  0  0  0
  1  3  2  0  0  0  0
  1  4  1  0  0  0  0
  4  5  1  0  0  0  0
  4  6  1  0  0  0  0
  4  7  1  0  0  0  0
  7  8  1  0  0  0  0
  7  9  2  0  0  0  0
  9 10  1  0  0  0  0
  9 11  1  0  0  0  0
 11 12  1  0  0  0  0
 11 13  1  0  0  0  0
 11 14  1  0  0  0  0
 14 15  1  0  0  0  0
 14 16  1  0  0  0  0
 14 17  1  0  0  0  0
M  END
> <VConfSearch Rank>
465

> <Conf_Id>
39

> <Delta U+W>
-0.422

> <U+W>
-49.849

> <U>
14.465

> <W>
-64.314

> <W(PB)>
-66.406

> <W(SA)>
2.093

> <Valence>
14.072

> <Coulomb>
-0.199

> <VdW>
0.592

> <VdW6>
-5.019

> <VdW12>
5.611

> <Bond>
0.085

> <Angle>
2.748

> <Pdih>
11.238

> <Idih>
0.001

> <Tether>
0.000

$$$$
VeraChem MOL file


 17 16  0  0  0  0  0  0  0  0999 V2000     
   21.8558   21.5273   23.4791 C   0  0  0  0  0  0  0  0  0  0  0  0
   23.0467   21.3063   23.5782 O   0  5  0  0  0  0  0  0  0  0  0  0
   21.1979   22.0664   24.3470 O   0  0  0  0  0  0  0  0  0  0  0  0
   21.1527   21.1102   22.1940 C   0  0  0  0  0  0  0  0  0  0  0  0
   21.8167   21.3506   21.3557 H   0  0  0  0  0  0  0  0  0  0  0  0
   20.2539   21.7277   22.0787 H   0  0  0  0  0  0  0  0  0  0  0  0
   20.8042   19.6340   22.1755 C   0  0  0  0  0  0  0  0  0  0  0  0
   21.6555   18.9558   22.1254 H   0  0  0  0  0  0  0  0  0  0  0  0
   19.5568   19.1562   22.2187 C   0  0  0  0  0  0  0  0  0  0  0  0
   18.7062   19.8349   22.2719 H   0  0  0  0  0  0  0  0  0  0  0  0
   19.2114   17.6839   22.2040 C   0  0  0  0  0  0  0  0  0  0  0  0
   20.1043   17.0774   22.4090 H   0  0  0  0  0  0  0  0  0  0  0  0
   18.4908   17.4642   23.0034 H   0  0  0  0  0  0  0  0  0  0  0  0
   18.6139   17.2687   20.8454 C   0  0  0  0  0  0  0  0  0  0  0  0
   19.3276   17.4556   20.0322 H   0  0  0  0  0  0  0  0  0  0  0  0
   18.3646   16.1997   20.8410 H   0  0  0  0  0  0  0  0  0  0  0  0
   17.6967   17.8332   20.6320 H   0  0  0  0  0  0  0  0  0  0  0  0
  1  2  1  0  0  0  0
  1  3  2  0  0  0  0
  1  4  1  0  0  0  0
  4  5  1  0  0  0  0
  4  6  1  0  0  0  0
  4  7  1  0  0  0  0
  7  8  1  0  0  0  0
  7  9  2  0  0  0  0
  9 10  1  0  0  0  0
  9 11  1  0  0  0  0
 11 12  1  0  0  0  0
 11 13  1  0  0  0  0
 11 14  1  0  0  0  0
 14 15  1  0  0  0  0
 14 16  1  0  0  0  0
 14 17  1  0  0  0  0
M  END
> <VConfSearch Rank>
466

> <Conf_Id>
38

> <Delta U+W>
0.000

> <U+W>
-49.427

> <U>
13.666

> <W>
-63.093

> <W(PB)>
-65.225

> <W(SA)>
2.132

> <Valence>
15.226

> <Coulomb>
-1.822

> <VdW>
0.261

> <VdW6>
-4.165

> <VdW12>
4.426

> <Bond>
0.044

> <Angle>
2.229

> <Pdih>
12.953

> <Idih>
0.000

> <Tether>
0.000

$$$$
VeraChem MOL file


 17 16  0  0  0  0  0  0  0  0999 V2000     
   21.2906   19.6588   25.0055 C   0  0  0  0  0  0  0  0  0  0  0  0
   20.5992   19.0617   25.8069 O   0  5  0  0  0  0  0  0  0  0  0  0
   21.8126   20.7317   25.2362 O   0  0  0  0  0  0  0  0  0  0  0  0
   21.5211   19.0273   23.6388 C   0  0  0  0  0  0  0  0  0  0  0  0
   21.3706   17.9450   23.7311 H   0  0  0  0  0  0  0  0  0  0  0  0
   22.5726   19.1831   23.3710 H   0  0  0  0  0  0  0  0  0  0  0  0
   20.6190   19.6124   22.5690 C   0  0  0  0  0  0  0  0  0  0  0  0
   20.8210   20.6505   22.3070 H   0  0  0  0  0  0  0  0  0  0  0  0
   19.6335   18.9395   21.9671 C   0  0  0  0  0  0  0  0  0  0  0  0
   19.4300   17.9024   22.2318 H   0  0  0  0  0  0  0  0  0  0  0  0
   18.7324   19.5257   20.9033 C   0  0  0  0  0  0  0  0  0  0  0  0
   17.6835   19.3047   21.1431 H   0  0  0  0  0  0  0  0  0  0  0  0
   18.8267   20.6201   20.8801 H   0  0  0  0  0  0  0  0  0  0  0  0
   19.0728   18.9548   19.5129 C   0  0  0  0  0  0  0  0  0  0  0  0
   18.9498   17.8640   19.4965 H   0  0  0  0  0  0  0  0  0  0  0  0
   18.4152   19.3833   18.7454 H   0  0  0  0  0  0  0  0  0  0  0  0
   20.1109   19.1861   19.2400 H   0  0  0  0  0  0  0  0  0  0  0  0
  1  2  1  0  0  0  0
  1  3  2  0  0  0  0
  1  4  1  0  0  0  0
  4  5  1  0  0  0  0
  4  6  1  0  0  0  0
  4  7  1  0  0  0  0
  7  8  1  0  0  0  0
  7  9  2  0  0  0  0
  9 10  1  0  0  0  0
  9 11  1  0  0  0  0
 11 12  1  0  0  0  0
 11 13  1  0  0  0  0
 11 14  1  0  0  0  0
 14 15  1  0  0  0  0
 14 16  1  0  0  0  0
 14 17  1  0  0  0  0
M  END
> <VConfSearch Rank>
467

> <Conf_Id>
35

> <Delta U+W>
-0.102

> <U+W>
-49.529

> <U>
13.666

> <W>
-63.195

> <W(PB)>
-65.299

> <W(SA)>
2.103

> <Valence>
15.226

> <Coulomb>
-1.822

> <VdW>
0.261

> <VdW6>
-4.165

> <VdW12>
4.426

> <Bond>
0.044

> <Angle>
2.229

> <Pdih>
12.953

> <Idih>
0.000

> <Tether>
0.000

$$$$
VeraChem MOL file


 17 16  0  0  0  0  0  0  0  0999 V2000     
   18.0916   19.2703   24.2369 C   0  0  0  0  0  0  0  0  0  0  0  0
   17.3688   18.2964   24.1607 O   0  5  0  0  0  0  0  0  0  0  0  0
   18.5151   19.7124   25.2867 O   0  0  0  0  0  0  0  0  0  0  0  0
   18.4791   19.9797   22.9460 C   0  0  0  0  0  0  0  0  0  0  0  0
   18.7377   21.0172   23.1892 H   0  0  0  0  0  0  0  0  0  0  0  0
   17.5919   20.0129   22.3031 H   0  0  0  0  0  0  0  0  0  0  0  0
   19.6198   19.2882   22.2235 C   0  0  0  0  0  0  0  0  0  0  0  0
   19.3725   18.3096   21.8158 H   0  0  0  0  0  0  0  0  0  0  0  0
   20.8445   19.8119   22.0873 C   0  0  0  0  0  0  0  0  0  0  0  0
   21.0561   20.7924   22.5128 H   0  0  0  0  0  0  0  0  0  0  0  0
   22.0304   19.1756   21.3822 C   0  0  0  0  0  0  0  0  0  0  0  0
   22.3768   19.8499   20.5874 H   0  0  0  0  0  0  0  0  0  0  0  0
   22.8670   19.0996   22.0900 H   0  0  0  0  0  0  0  0  0  0  0  0
   21.7571   17.7815   20.7755 C   0  0  0  0  0  0  0  0  0  0  0  0
   20.9606   17.8292   20.0215 H   0  0  0  0  0  0  0  0  0  0  0  0
   22.6592   17.3908   20.2871 H   0  0  0  0  0  0  0  0  0  0  0  0
   21.4587   17.0655   21.5526 H   0  0  0  0  0  0  0  0  0  0  0  0
  1  2  1  0  0  0  0
  1  3  2  0  0  0  0
  1  4  1  0  0  0  0
  4  5  1  0  0  0  0
  4  6  1  0  0  0  0
  4  7  1  0  0  0  0
  7  8  1  0  0  0  0
  7  9  2  0  0  0  0
  9 10  1  0  0  0  0
  9 11  1  0  0  0  0
 11 12  1  0  0  0  0
 11 13  1  0  0  0  0
 11 14  1  0  0  0  0
 14 15  1  0  0  0  0
 14 16  1  0  0  0  0
 14 17  1  0  0  0  0
M  END
> <VConfSearch Rank>
468

> <Conf_Id>
19

> <Delta U+W>
-0.496

> <U+W>
-49.923

> <U>
13.863

> <W>
-63.786

> <W(PB)>
-65.856

> <W(SA)>
2.070

> <Valence>
14.117

> <Coulomb>
-1.228

> <VdW>
0.974

> <VdW6>
-4.885

> <VdW12>
5.859

> <Bond>
0.094

> <Angle>
2.818

> <Pdih>
11.205

> <Idih>
0.000

> <Tether>
0.000

$$$$
VeraChem MOL file


 17 16  0  0  0  0  0  0  0  0999 V2000     
   18.7262   21.5910   22.6447 C   0  0  0  0  0  0  0  0  0  0  0  0
   18.9227   21.8001   23.8255 O   0  5  0  0  0  0  0  0  0  0  0  0
   18.8502   22.4384   21.7824 O   0  0  0  0  0  0  0  0  0  0  0  0
   18.2905   20.1943   22.2210 C   0  0  0  0  0  0  0  0  0  0  0  0
   17.5031   20.3040   21.4664 H   0  0  0  0  0  0  0  0  0  0  0  0
   17.8374   19.6985   23.0879 H   0  0  0  0  0  0  0  0  0  0  0  0
   19.4367   19.3728   21.6624 C   0  0  0  0  0  0  0  0  0  0  0  0
   19.8383   19.7211   20.7113 H   0  0  0  0  0  0  0  0  0  0  0  0
   19.9530   18.2969   22.2643 C   0  0  0  0  0  0  0  0  0  0  0  0
   19.5544   17.9520   23.2178 H   0  0  0  0  0  0  0  0  0  0  0  0
   21.0978   17.4808   21.7070 C   0  0  0  0  0  0  0  0  0  0  0  0
   20.8443   16.4126   21.7437 H   0  0  0  0  0  0  0  0  0  0  0  0
   21.2677   17.7285   20.6501 H   0  0  0  0  0  0  0  0  0  0  0  0
   22.3936   17.7291   22.5034 C   0  0  0  0  0  0  0  0  0  0  0  0
   22.2641   17.4528   23.5581 H   0  0  0  0  0  0  0  0  0  0  0  0
   23.2211   17.1349   22.0946 H   0  0  0  0  0  0  0  0  0  0  0  0
   22.6805   18.7882   22.4603 H   0  0  0  0  0  0  0  0  0  0  0  0
  1  2  1  0  0  0  0
  1  3  2  0  0  0  0
  1  4  1  0  0  0  0
  4  5  1  0  0  0  0
  4  6  1  0  0  0  0
  4  7  1  0  0  0  0
  7  8  1  0  0  0  0
  7  9  2  0  0  0  0
  9 10  1  0  0  0  0
  9 11  1  0  0  0  0
 11 12  1  0  0  0  0
 11 13  1  0  0  0  0
 11 14  1  0  0  0  0
 14 15  1  0  0  0  0
 14 16  1  0  0  0  0
 14 17  1  0  0  0  0
M  END
> <VConfSearch Rank>
469

> <Conf_Id>
7

> <Delta U+W>
-0.041

> <U+W>
-49.468

> <U>
14.121

> <W>
-63.589

> <W(PB)>
-65.660

> <W(SA)>
2.071

> <Valence>
15.230

> <Coulomb>
-1.333

> <VdW>
0.224

> <VdW6>
-4.212

> <VdW12>
4.436

> <Bond>
0.044

> <Angle>
2.230

> <Pdih>
12.956

> <Idih>
0.000

> <Tether>
0.000

$$$$
VeraChem MOL file


 17 16  0  0  0  0  0  0  0  0999 V2000     
   17.7849   17.9182   21.7247 C   0  0  0  0  0  0  0  0  0  0  0  0
   17.1503   18.7784   21.1463 O   0  5  0  0  0  0  0  0  0  0  0  0
   17.3692   17.3153   22.6946 O   0  0  0  0  0  0  0  0  0  0  0  0
   19.1662   17.5562   21.1876 C   0  0  0  0  0  0  0  0  0  0  0  0
   19.1515   17.6956   20.1004 H   0  0  0  0  0  0  0  0  0  0  0  0
   19.3196   16.4833   21.3518 H   0  0  0  0  0  0  0  0  0  0  0  0
   20.3288   18.3354   21.7861 C   0  0  0  0  0  0  0  0  0  0  0  0
   21.3054   18.0613   21.3889 H   0  0  0  0  0  0  0  0  0  0  0  0
   20.2385   19.2897   22.7200 C   0  0  0  0  0  0  0  0  0  0  0  0
   19.2742   19.5834   23.1330 H   0  0  0  0  0  0  0  0  0  0  0  0
   21.4282   20.0345   23.2837 C   0  0  0  0  0  0  0  0  0  0  0  0
   21.3698   20.0500   24.3804 H   0  0  0  0  0  0  0  0  0  0  0  0
   22.3632   19.5188   23.0252 H   0  0  0  0  0  0  0  0  0  0  0  0
   21.4792   21.4799   22.7516 C   0  0  0  0  0  0  0  0  0  0  0  0
   22.3434   22.0160   23.1649 H   0  0  0  0  0  0  0  0  0  0  0  0
   21.5637   21.4895   21.6569 H   0  0  0  0  0  0  0  0  0  0  0  0
   20.5713   22.0315   23.0291 H   0  0  0  0  0  0  0  0  0  0  0  0
  1  2  1  0  0  0  0
  1  3  2  0  0  0  0
  1  4  1  0  0  0  0
  4  5  1  0  0  0  0
  4  6  1  0  0  0  0
  4  7  1  0  0  0  0
  7  8  1  0  0  0  0
  7  9  2  0  0  0  0
  9 10  1  0  0  0  0
  9 11  1  0  0  0  0
 11 12  1  0  0  0  0
 11 13  1  0  0  0  0
 11 14  1  0  0  0  0
 14 15  1  0  0  0  0
 14 16  1  0  0  0  0
 14 17  1  0  0  0  0
M  END
> <VConfSearch Rank>
470

> <Conf_Id>
39

> <Delta U+W>
-0.422

> <U+W>
-49.849

> <U>
14.465

> <W>
-64.314

> <W(PB)>
-66.406

> <W(SA)>
2.093

> <Valence>
14.072

> <Coulomb>
-0.199

> <VdW>
0.592

> <VdW6>
-5.019

> <VdW12>
5.611

> <Bond>
0.085

> <Angle>
2.748

> <Pdih>
11.238

> <Idih>
0.001

> <Tether>
0.000

$$$$
VeraChem MOL file


 17 16  0  0  0  0  0  0  0  0999 V2000     
   17.7665   17.1834   22.5045 C   0  0  0  0  0  0  0  0  0  0  0  0
   18.0918   16.0174   22.6126 O   0  5  0  0  0  0  0  0  0  0  0  0
   16.7923   17.5540   21.8796 O   0  0  0  0  0  0  0  0  0  0  0  0
   18.6246   18.2351   23.1950 C   0  0  0  0  0  0  0  0  0  0  0  0
   18.9067   17.8438   24.1793 H   0  0  0  0  0  0  0  0  0  0  0  0
   18.0053   19.1234   23.3685 H   0  0  0  0  0  0  0  0  0  0  0  0
   19.8669   18.5856   22.3984 C   0  0  0  0  0  0  0  0  0  0  0  0
   20.6093   17.7918   22.3213 H   0  0  0  0  0  0  0  0  0  0  0  0
   20.0755   19.7695   21.8143 C   0  0  0  0  0  0  0  0  0  0  0  0
   19.3314   20.5619   21.8893 H   0  0  0  0  0  0  0  0  0  0  0  0
   21.3131   20.1159   21.0172 C   0  0  0  0  0  0  0  0  0  0  0  0
   21.8799   19.2069   20.7729 H   0  0  0  0  0  0  0  0  0  0  0  0
   21.0226   20.5726   20.0613 H   0  0  0  0  0  0  0  0  0  0  0  0
   22.2198   21.0883   21.7966 C   0  0  0  0  0  0  0  0  0  0  0  0
   22.5443   20.6425   22.7461 H   0  0  0  0  0  0  0  0  0  0  0  0
   23.1158   21.3365   21.2129 H   0  0  0  0  0  0  0  0  0  0  0  0
   21.6898   22.0233   22.0212 H   0  0  0  0  0  0  0  0  0  0  0  0
  1  2  1  0  0  0  0
  1  3  2  0  0  0  0
  1  4  1  0  0  0  0
  4  5  1  0  0  0  0
  4  6  1  0  0  0  0
  4  7  1  0  0  0  0
  7  8  1  0  0  0  0
  7  9  2  0  0  0  0
  9 10  1  0  0  0  0
  9 11  1  0  0  0  0
 11 12  1  0  0  0  0
 11 13  1  0  0  0  0
 11 14  1  0  0  0  0
 14 15  1  0  0  0  0
 14 16  1  0  0  0  0
 14 17  1  0  0  0  0
M  END
> <VConfSearch Rank>
471

> <Conf_Id>
38

> <Delta U+W>
0.000

> <U+W>
-49.427

> <U>
13.666

> <W>
-63.093

> <W(PB)>
-65.225

> <W(SA)>
2.132

> <Valence>
15.226

> <Coulomb>
-1.822

> <VdW>
0.261

> <VdW6>
-4.165

> <VdW12>
4.426

> <Bond>
0.044

> <Angle>
2.229

> <Pdih>
12.953

> <Idih>
0.000

> <Tether>
0.000

$$$$
VeraChem MOL file


 17 16  0  0  0  0  0  0  0  0999 V2000     
   21.3764   17.4765   24.3728 C   0  0  0  0  0  0  0  0  0  0  0  0
   22.5141   17.1912   24.0549 O   0  5  0  0  0  0  0  0  0  0  0  0
   20.6293   16.7132   24.9526 O   0  0  0  0  0  0  0  0  0  0  0  0
   20.8586   18.8676   24.0320 C   0  0  0  0  0  0  0  0  0  0  0  0
   21.7202   19.5370   23.9219 H   0  0  0  0  0  0  0  0  0  0  0  0
   20.2794   19.2289   24.8896 H   0  0  0  0  0  0  0  0  0  0  0  0
   19.9993   18.8774   22.7820 C   0  0  0  0  0  0  0  0  0  0  0  0
   19.0430   18.3629   22.8710 H   0  0  0  0  0  0  0  0  0  0  0  0
   20.3523   19.4606   21.6325 C   0  0  0  0  0  0  0  0  0  0  0  0
   21.3101   19.9722   21.5432 H   0  0  0  0  0  0  0  0  0  0  0  0
   19.4959   19.4660   20.3859 C   0  0  0  0  0  0  0  0  0  0  0  0
   20.1017   19.1699   19.5187 H   0  0  0  0  0  0  0  0  0  0  0  0
   18.6869   18.7276   20.4722 H   0  0  0  0  0  0  0  0  0  0  0  0
   18.8893   20.8606   20.1367 C   0  0  0  0  0  0  0  0  0  0  0  0
   19.6779   21.6136   20.0083 H   0  0  0  0  0  0  0  0  0  0  0  0
   18.2696   20.8584   19.2306 H   0  0  0  0  0  0  0  0  0  0  0  0
   18.2576   21.1674   20.9808 H   0  0  0  0  0  0  0  0  0  0  0  0
  1  2  1  0  0  0  0
  1  3  2  0  0  0  0
  1  4  1  0  0  0  0
  4  5  1  0  0  0  0
  4  6  1  0  0  0  0
  4  7  1  0  0  0  0
  7  8  1  0  0  0  0
  7  9  2  0  0  0  0
  9 10  1  0  0  0  0
  9 11  1  0  0  0  0
 11 12  1  0  0  0  0
 11 13  1  0  0  0  0
 11 14  1  0  0  0  0
 14 15  1  0  0  0  0
 14 16  1  0  0  0  0
 14 17  1  0  0  0  0
M  END
> <VConfSearch Rank>
472

> <Conf_Id>
35

> <Delta U+W>
-0.102

> <U+W>
-49.529

> <U>
13.666

> <W>
-63.195

> <W(PB)>
-65.299

> <W(SA)>
2.103

> <Valence>
15.226

> <Coulomb>
-1.822

> <VdW>
0.261

> <VdW6>
-4.165

> <VdW12>
4.426

> <Bond>
0.044

> <Angle>
2.229

> <Pdih>
12.953

> <Idih>
0.000

> <Tether>
0.000

$$$$
VeraChem MOL file


 17 16  0  0  0  0  0  0  0  0999 V2000     
   19.5351   16.5841   23.5848 C   0  0  0  0  0  0  0  0  0  0  0  0
   20.5501   16.0086   23.9247 O   0  5  0  0  0  0  0  0  0  0  0  0
   18.5685   16.7254   24.3078 O   0  0  0  0  0  0  0  0  0  0  0  0
   19.4692   17.1500   22.1723 C   0  0  0  0  0  0  0  0  0  0  0  0
   18.4142   17.2324   21.8847 H   0  0  0  0  0  0  0  0  0  0  0  0
   19.9291   16.4192   21.4971 H   0  0  0  0  0  0  0  0  0  0  0  0
   20.1741   18.4877   22.0495 C   0  0  0  0  0  0  0  0  0  0  0  0
   21.2553   18.4441   22.1683 H   0  0  0  0  0  0  0  0  0  0  0  0
   19.5433   19.6462   21.8196 C   0  0  0  0  0  0  0  0  0  0  0  0
   18.4593   19.6512   21.7106 H   0  0  0  0  0  0  0  0  0  0  0  0
   20.1836   21.0179   21.6892 C   0  0  0  0  0  0  0  0  0  0  0  0
   19.9183   21.4440   20.7123 H   0  0  0  0  0  0  0  0  0  0  0  0
   19.7394   21.6908   22.4351 H   0  0  0  0  0  0  0  0  0  0  0  0
   21.7202   21.0378   21.8463 C   0  0  0  0  0  0  0  0  0  0  0  0
   22.2026   20.4166   21.0802 H   0  0  0  0  0  0  0  0  0  0  0  0
   22.1046   22.0606   21.7405 H   0  0  0  0  0  0  0  0  0  0  0  0
   22.0199   20.6667   22.8351 H   0  0  0  0  0  0  0  0  0  0  0  0
  1  2  1  0  0  0  0
  1  3  2  0  0  0  0
  1  4  1  0  0  0  0
  4  5  1  0  0  0  0
  4  6  1  0  0  0  0
  4  7  1  0  0  0  0
  7  8  1  0  0  0  0
  7  9  2  0  0  0  0
  9 10  1  0  0  0  0
  9 11  1  0  0  0  0
 11 12  1  0  0  0  0
 11 13  1  0  0  0  0
 11 14  1  0  0  0  0
 14 15  1  0  0  0  0
 14 16  1  0  0  0  0
 14 17  1  0  0  0  0
M  END
> <VConfSearch Rank>
473

> <Conf_Id>
19

> <Delta U+W>
-0.496

> <U+W>
-49.923

> <U>
13.863

> <W>
-63.786

> <W(PB)>
-65.856

> <W(SA)>
2.070

> <Valence>
14.117

> <Coulomb>
-1.228

> <VdW>
0.974

> <VdW6>
-4.885

> <VdW12>
5.859

> <Bond>
0.094

> <Angle>
2.818

> <Pdih>
11.205

> <Idih>
0.000

> <Tether>
0.000

$$$$
VeraChem MOL file


 17 16  0  0  0  0  0  0  0  0999 V2000     
   21.0798   20.6113   24.5306 C   0  0  0  0  0  0  0  0  0  0  0  0
   21.1387   19.7638   25.3995 O   0  5  0  0  0  0  0  0  0  0  0  0
   21.9590   21.4246   24.3244 O   0  0  0  0  0  0  0  0  0  0  0  0
   19.8324   20.6661   23.6583 C   0  0  0  0  0  0  0  0  0  0  0  0
   19.5616   21.7201   23.5275 H   0  0  0  0  0  0  0  0  0  0  0  0
   19.0102   20.1889   24.2049 H   0  0  0  0  0  0  0  0  0  0  0  0
   20.0397   20.0099   22.3065 C   0  0  0  0  0  0  0  0  0  0  0  0
   20.7343   20.5231   21.6421 H   0  0  0  0  0  0  0  0  0  0  0  0
   19.4403   18.8795   21.9203 C   0  0  0  0  0  0  0  0  0  0  0  0
   18.7498   18.3640   22.5871 H   0  0  0  0  0  0  0  0  0  0  0  0
   19.6507   18.2253   20.5731 C   0  0  0  0  0  0  0  0  0  0  0  0
   18.6790   17.9723   20.1277 H   0  0  0  0  0  0  0  0  0  0  0  0
   20.1434   18.9215   19.8805 H   0  0  0  0  0  0  0  0  0  0  0  0
   20.5035   16.9485   20.7051 C   0  0  0  0  0  0  0  0  0  0  0  0
   20.0151   16.2175   21.3626 H   0  0  0  0  0  0  0  0  0  0  0  0
   20.6534   16.4782   19.7246 H   0  0  0  0  0  0  0  0  0  0  0  0
   21.4906   17.1811   21.1261 H   0  0  0  0  0  0  0  0  0  0  0  0
  1  2  1  0  0  0  0
  1  3  2  0  0  0  0
  1  4  1  0  0  0  0
  4  5  1  0  0  0  0
  4  6  1  0  0  0  0
  4  7  1  0  0  0  0
  7  8  1  0  0  0  0
  7  9  2  0  0  0  0
  9 10  1  0  0  0  0
  9 11  1  0  0  0  0
 11 12  1  0  0  0  0
 11 13  1  0  0  0  0
 11 14  1  0  0  0  0
 14 15  1  0  0  0  0
 14 16  1  0  0  0  0
 14 17  1  0  0  0  0
M  END
> <VConfSearch Rank>
474

> <Conf_Id>
7

> <Delta U+W>
-0.041

> <U+W>
-49.468

> <U>
14.121

> <W>
-63.589

> <W(PB)>
-65.660

> <W(SA)>
2.071

> <Valence>
15.230

> <Coulomb>
-1.333

> <VdW>
0.224

> <VdW6>
-4.212

> <VdW12>
4.436

> <Bond>
0.044

> <Angle>
2.230

> <Pdih>
12.956

> <Idih>
0.000

> <Tether>
0.000

$$$$
VeraChem MOL file


 17 16  0  0  0  0  0  0  0  0999 V2000     
   21.1515   20.6782   20.1196 C   0  0  0  0  0  0  0  0  0  0  0  0
   20.7275   21.7933   20.3516 O   0  5  0  0  0  0  0  0  0  0  0  0
   20.9748   20.0986   19.0661 O   0  0  0  0  0  0  0  0  0  0  0  0
   21.9734   19.9796   21.1985 C   0  0  0  0  0  0  0  0  0  0  0  0
   22.5167   20.7495   21.7587 H   0  0  0  0  0  0  0  0  0  0  0  0
   22.7386   19.3745   20.6984 H   0  0  0  0  0  0  0  0  0  0  0  0
   21.1839   19.1075   22.1644 C   0  0  0  0  0  0  0  0  0  0  0  0
   21.7898   18.6183   22.9261 H   0  0  0  0  0  0  0  0  0  0  0  0
   19.8603   18.9113   22.1450 C   0  0  0  0  0  0  0  0  0  0  0  0
   19.2314   19.3893   21.3948 H   0  0  0  0  0  0  0  0  0  0  0  0
   19.1228   18.0312   23.1297 C   0  0  0  0  0  0  0  0  0  0  0  0
   18.4411   17.3608   22.5889 H   0  0  0  0  0  0  0  0  0  0  0  0
   19.8278   17.3898   23.6761 H   0  0  0  0  0  0  0  0  0  0  0  0
   18.3193   18.8784   24.1355 C   0  0  0  0  0  0  0  0  0  0  0  0
   17.7852   18.2348   24.8465 H   0  0  0  0  0  0  0  0  0  0  0  0
   18.9842   19.5394   24.7070 H   0  0  0  0  0  0  0  0  0  0  0  0
   17.5790   19.5026   23.6182 H   0  0  0  0  0  0  0  0  0  0  0  0
  1  2  1  0  0  0  0
  1  3  2  0  0  0  0
  1  4  1  0  0  0  0
  4  5  1  0  0  0  0
  4  6  1  0  0  0  0
  4  7  1  0  0  0  0
  7  8  1  0  0  0  0
  7  9  2  0  0  0  0
  9 10  1  0  0  0  0
  9 11  1  0  0  0  0
 11 12  1  0  0  0  0
 11 13  1  0  0  0  0
 11 14  1  0  0  0  0
 14 15  1  0  0  0  0
 14 16  1  0  0  0  0
 14 17  1  0  0  0  0
M  END
> <VConfSearch Rank>
475

> <Conf_Id>
39

> <Delta U+W>
-0.422

> <U+W>
-49.849

> <U>
14.465

> <W>
-64.314

> <W(PB)>
-66.406

> <W(SA)>
2.093

> <Valence>
14.072

> <Coulomb>
-0.199

> <VdW>
0.592

> <VdW6>
-5.019

> <VdW12>
5.611

> <Bond>
0.085

> <Angle>
2.748

> <Pdih>
11.238

> <Idih>
0.001

> <Tether>
0.000

$$$$
VeraChem MOL file


 17 16  0  0  0  0  0  0  0  0999 V2000     
   20.9492   18.3878   19.1853 C   0  0  0  0  0  0  0  0  0  0  0  0
   20.1891   18.6901   18.2866 O   0  5  0  0  0  0  0  0  0  0  0  0
   21.5291   17.3215   19.2449 O   0  0  0  0  0  0  0  0  0  0  0  0
   21.1908   19.4042   20.2936 C   0  0  0  0  0  0  0  0  0  0  0  0
   21.2730   20.3934   19.8287 H   0  0  0  0  0  0  0  0  0  0  0  0
   22.1614   19.1849   20.7546 H   0  0  0  0  0  0  0  0  0  0  0  0
   20.0843   19.4065   21.3310 C   0  0  0  0  0  0  0  0  0  0  0  0
   19.1191   19.7710   20.9806 H   0  0  0  0  0  0  0  0  0  0  0  0
   20.2379   18.9972   22.5940 C   0  0  0  0  0  0  0  0  0  0  0  0
   21.2026   18.6301   22.9429 H   0  0  0  0  0  0  0  0  0  0  0  0
   19.1324   18.9967   23.6260 C   0  0  0  0  0  0  0  0  0  0  0  0
   18.1548   19.1287   23.1422 H   0  0  0  0  0  0  0  0  0  0  0  0
   19.1026   18.0247   24.1368 H   0  0  0  0  0  0  0  0  0  0  0  0
   19.3431   20.1163   24.6639 C   0  0  0  0  0  0  0  0  0  0  0  0
   19.3507   21.1013   24.1787 H   0  0  0  0  0  0  0  0  0  0  0  0
   18.5382   20.1105   25.4104 H   0  0  0  0  0  0  0  0  0  0  0  0
   20.2975   19.9873   25.1910 H   0  0  0  0  0  0  0  0  0  0  0  0
  1  2  1  0  0  0  0
  1  3  2  0  0  0  0
  1  4  1  0  0  0  0
  4  5  1  0  0  0  0
  4  6  1  0  0  0  0
  4  7  1  0  0  0  0
  7  8  1  0  0  0  0
  7  9  2  0  0  0  0
  9 10  1  0  0  0  0
  9 11  1  0  0  0  0
 11 12  1  0  0  0  0
 11 13  1  0  0  0  0
 11 14  1  0  0  0  0
 14 15  1  0  0  0  0
 14 16  1  0  0  0  0
 14 17  1  0  0  0  0
M  END
> <VConfSearch Rank>
476

> <Conf_Id>
38

> <Delta U+W>
0.000

> <U+W>
-49.427

> <U>
13.666

> <W>
-63.093

> <W(PB)>
-65.225

> <W(SA)>
2.132

> <Valence>
15.226

> <Coulomb>
-1.822

> <VdW>
0.261

> <VdW6>
-4.165

> <VdW12>
4.426

> <Bond>
0.044

> <Angle>
2.229

> <Pdih>
12.953

> <Idih>
0.000

> <Tether>
0.000

$$$$
VeraChem MOL file


 17 16  0  0  0  0  0  0  0  0999 V2000     
   18.4208   21.4682   20.5553 C   0  0  0  0  0  0  0  0  0  0  0  0
   18.7163   21.4338   19.3770 O   0  5  0  0  0  0  0  0  0  0  0  0
   18.1856   22.4962   21.1593 O   0  0  0  0  0  0  0  0  0  0  0  0
   18.3347   20.1522   21.3171 C   0  0  0  0  0  0  0  0  0  0  0  0
   18.1482   19.3489   20.5942 H   0  0  0  0  0  0  0  0  0  0  0  0
   17.4587   20.2021   21.9740 H   0  0  0  0  0  0  0  0  0  0  0  0
   19.5821   19.8706   22.1329 C   0  0  0  0  0  0  0  0  0  0  0  0
   19.7462   20.5393   22.9774 H   0  0  0  0  0  0  0  0  0  0  0  0
   20.4460   18.8857   21.8685 C   0  0  0  0  0  0  0  0  0  0  0  0
   20.2830   18.2195   21.0220 H   0  0  0  0  0  0  0  0  0  0  0  0
   21.6914   18.6089   22.6808 C   0  0  0  0  0  0  0  0  0  0  0  0
   22.5530   18.4909   22.0098 H   0  0  0  0  0  0  0  0  0  0  0  0
   21.9182   19.4593   23.3385 H   0  0  0  0  0  0  0  0  0  0  0  0
   21.5253   17.3354   23.5326 C   0  0  0  0  0  0  0  0  0  0  0  0
   21.3353   16.4608   22.8966 H   0  0  0  0  0  0  0  0  0  0  0  0
   22.4323   17.1393   24.1191 H   0  0  0  0  0  0  0  0  0  0  0  0
   20.6842   17.4401   24.2305 H   0  0  0  0  0  0  0  0  0  0  0  0
  1  2  1  0  0  0  0
  1  3  2  0  0  0  0
  1  4  1  0  0  0  0
  4  5  1  0  0  0  0
  4  6  1  0  0  0  0
  4  7  1  0  0  0  0
  7  8  1  0  0  0  0
  7  9  2  0  0  0  0
  9 10  1  0  0  0  0
  9 11  1  0  0  0  0
 11 12  1  0  0  0  0
 11 13  1  0  0  0  0
 11 14  1  0  0  0  0
 14 15  1  0  0  0  0
 14 16  1  0  0  0  0
 14 17  1  0  0  0  0
M  END
> <VConfSearch Rank>
477

> <Conf_Id>
35

> <Delta U+W>
-0.102

> <U+W>
-49.529

> <U>
13.666

> <W>
-63.195

> <W(PB)>
-65.299

> <W(SA)>
2.103

> <Valence>
15.226

> <Coulomb>
-1.822

> <VdW>
0.261

> <VdW6>
-4.165

> <VdW12>
4.426

> <Bond>
0.044

> <Angle>
2.229

> <Pdih>
12.953

> <Idih>
0.000

> <Tether>
0.000

$$$$
VeraChem MOL file


 17 16  0  0  0  0  0  0  0  0999 V2000     
   19.3590   21.0409   24.2502 C   0  0  0  0  0  0  0  0  0  0  0  0
   18.9225   22.0400   23.7134 O   0  5  0  0  0  0  0  0  0  0  0  0
   18.8138   20.4872   25.1845 O   0  0  0  0  0  0  0  0  0  0  0  0
   20.6657   20.4580   23.7280 C   0  0  0  0  0  0  0  0  0  0  0  0
   21.1280   19.8761   24.5344 H   0  0  0  0  0  0  0  0  0  0  0  0
   21.3406   21.2933   23.5081 H   0  0  0  0  0  0  0  0  0  0  0  0
   20.4674   19.6085   22.4869 C   0  0  0  0  0  0  0  0  0  0  0  0
   20.1590   20.1622   21.6019 H   0  0  0  0  0  0  0  0  0  0  0  0
   20.6443   18.2817   22.4537 C   0  0  0  0  0  0  0  0  0  0  0  0
   20.9492   17.7609   23.3608 H   0  0  0  0  0  0  0  0  0  0  0  0
   20.4604   17.3714   21.2511 C   0  0  0  0  0  0  0  0  0  0  0  0
   21.3998   16.8339   21.0637 H   0  0  0  0  0  0  0  0  0  0  0  0
   19.7220   16.5972   21.4998 H   0  0  0  0  0  0  0  0  0  0  0  0
   20.0221   18.0858   19.9536 C   0  0  0  0  0  0  0  0  0  0  0  0
   20.7658   18.8317   19.6439 H   0  0  0  0  0  0  0  0  0  0  0  0
   19.9104   17.3628   19.1351 H   0  0  0  0  0  0  0  0  0  0  0  0
   19.0571   18.5916   20.0892 H   0  0  0  0  0  0  0  0  0  0  0  0
  1  2  1  0  0  0  0
  1  3  2  0  0  0  0
  1  4  1  0  0  0  0
  4  5  1  0  0  0  0
  4  6  1  0  0  0  0
  4  7  1  0  0  0  0
  7  8  1  0  0  0  0
  7  9  2  0  0  0  0
  9 10  1  0  0  0  0
  9 11  1  0  0  0  0
 11 12  1  0  0  0  0
 11 13  1  0  0  0  0
 11 14  1  0  0  0  0
 14 15  1  0  0  0  0
 14 16  1  0  0  0  0
 14 17  1  0  0  0  0
M  END
> <VConfSearch Rank>
478

> <Conf_Id>
19

> <Delta U+W>
-0.496

> <U+W>
-49.923

> <U>
13.863

> <W>
-63.786

> <W(PB)>
-65.856

> <W(SA)>
2.070

> <Valence>
14.117

> <Coulomb>
-1.228

> <VdW>
0.974

> <VdW6>
-4.885

> <VdW12>
5.859

> <Bond>
0.094

> <Angle>
2.818

> <Pdih>
11.205

> <Idih>
0.000

> <Tether>
0.000

$$$$
VeraChem MOL file


 17 16  0  0  0  0  0  0  0  0999 V2000     
   18.7698   19.5589   24.7513 C   0  0  0  0  0  0  0  0  0  0  0  0
   18.3559   18.4532   25.0389 O   0  5  0  0  0  0  0  0  0  0  0  0
   19.3305   20.2930   25.5411 O   0  0  0  0  0  0  0  0  0  0  0  0
   18.5665   20.0584   23.3268 C   0  0  0  0  0  0  0  0  0  0  0  0
   18.2644   21.1107   23.3812 H   0  0  0  0  0  0  0  0  0  0  0  0
   17.7279   19.5061   22.8859 H   0  0  0  0  0  0  0  0  0  0  0  0
   19.8160   19.9183   22.4783 C   0  0  0  0  0  0  0  0  0  0  0  0
   20.6480   20.5601   22.7662 H   0  0  0  0  0  0  0  0  0  0  0  0
   19.9336   19.0752   21.4479 C   0  0  0  0  0  0  0  0  0  0  0  0
   19.1030   18.4299   21.1637 H   0  0  0  0  0  0  0  0  0  0  0  0
   21.1814   18.9349   20.6049 C   0  0  0  0  0  0  0  0  0  0  0  0
   20.9149   18.9654   19.5398 H   0  0  0  0  0  0  0  0  0  0  0  0
   21.8629   19.7779   20.7838 H   0  0  0  0  0  0  0  0  0  0  0  0
   21.9124   17.6139   20.9141 C   0  0  0  0  0  0  0  0  0  0  0  0
   21.2662   16.7509   20.7068 H   0  0  0  0  0  0  0  0  0  0  0  0
   22.8172   17.5175   20.3001 H   0  0  0  0  0  0  0  0  0  0  0  0
   22.2109   17.5717   21.9700 H   0  0  0  0  0  0  0  0  0  0  0  0
  1  2  1  0  0  0  0
  1  3  2  0  0  0  0
  1  4  1  0  0  0  0
  4  5  1  0  0  0  0
  4  6  1  0  0  0  0
  4  7  1  0  0  0  0
  7  8  1  0  0  0  0
  7  9  2  0  0  0  0
  9 10  1  0  0  0  0
  9 11  1  0  0  0  0
 11 12  1  0  0  0  0
 11 13  1  0  0  0  0
 11 14  1  0  0  0  0
 14 15  1  0  0  0  0
 14 16  1  0  0  0  0
 14 17  1  0  0  0  0
M  END
> <VConfSearch Rank>
479

> <Conf_Id>
7

> <Delta U+W>
-0.041

> <U+W>
-49.468

> <U>
14.121

> <W>
-63.589

> <W(PB)>
-65.660

> <W(SA)>
2.071

> <Valence>
15.230

> <Coulomb>
-1.333

> <VdW>
0.224

> <VdW6>
-4.212

> <VdW12>
4.436

> <Bond>
0.044

> <Angle>
2.230

> <Pdih>
12.956

> <Idih>
0.000

> <Tether>
0.000

$$$$
VeraChem MOL file


 17 16  0  0  0  0  0  0  0  0999 V2000     
   19.5089   17.2129   23.9978 C   0  0  0  0  0  0  0  0  0  0  0  0
   20.1905   17.5074   24.9599 O   0  5  0  0  0  0  0  0  0  0  0  0
   19.5505   16.1275   23.4526 O   0  0  0  0  0  0  0  0  0  0  0  0
   18.5283   18.2519   23.4626 C   0  0  0  0  0  0  0  0  0  0  0  0
   18.1838   18.8568   24.3095 H   0  0  0  0  0  0  0  0  0  0  0  0
   17.6441   17.7199   23.0928 H   0  0  0  0  0  0  0  0  0  0  0  0
   19.0687   19.1643   22.3706 C   0  0  0  0  0  0  0  0  0  0  0  0
   18.3525   19.8981   22.0029 H   0  0  0  0  0  0  0  0  0  0  0  0
   20.3040   19.1304   21.8571 C   0  0  0  0  0  0  0  0  0  0  0  0
   21.0395   18.4073   22.2075 H   0  0  0  0  0  0  0  0  0  0  0  0
   20.7918   20.0611   20.7690 C   0  0  0  0  0  0  0  0  0  0  0  0
   21.2946   19.4811   19.9833 H   0  0  0  0  0  0  0  0  0  0  0  0
   19.9447   20.5716   20.2904 H   0  0  0  0  0  0  0  0  0  0  0  0
   21.7665   21.1119   21.3352 C   0  0  0  0  0  0  0  0  0  0  0  0
   22.1183   21.7835   20.5413 H   0  0  0  0  0  0  0  0  0  0  0  0
   21.2773   21.7220   22.1060 H   0  0  0  0  0  0  0  0  0  0  0  0
   22.6433   20.6294   21.7868 H   0  0  0  0  0  0  0  0  0  0  0  0
  1  2  1  0  0  0  0
  1  3  2  0  0  0  0
  1  4  1  0  0  0  0
  4  5  1  0  0  0  0
  4  6  1  0  0  0  0
  4  7  1  0  0  0  0
  7  8  1  0  0  0  0
  7  9  2  0  0  0  0
  9 10  1  0  0  0  0
  9 11  1  0  0  0  0
 11 12  1  0  0  0  0
 11 13  1  0  0  0  0
 11 14  1  0  0  0  0
 14 15  1  0  0  0  0
 14 16  1  0  0  0  0
 14 17  1  0  0  0  0
M  END
> <VConfSearch Rank>
480

> <Conf_Id>
39

> <Delta U+W>
-0.422

> <U+W>
-49.849

> <U>
14.465

> <W>
-64.314

> <W(PB)>
-66.406

> <W(SA)>
2.093

> <Valence>
14.072

> <Coulomb>
-0.199

> <VdW>
0.592

> <VdW6>
-5.019

> <VdW12>
5.611

> <Bond>
0.085

> <Angle>
2.748

> <Pdih>
11.238

> <Idih>
0.001

> <Tether>
0.000

$$$$
VeraChem MOL file


 17 16  0  0  0  0  0  0  0  0999 V2000     
   22.6423   20.7283   23.3237 C   0  0  0  0  0  0  0  0  0  0  0  0
   22.7955   21.8955   23.0218 O   0  5  0  0  0  0  0  0  0  0  0  0
   23.5554   19.9310   23.4096 O   0  0  0  0  0  0  0  0  0  0  0  0
   21.2288   20.2417   23.6150 C   0  0  0  0  0  0  0  0  0  0  0  0
   20.7199   21.0194   24.1960 H   0  0  0  0  0  0  0  0  0  0  0  0
   21.2967   19.3548   24.2565 H   0  0  0  0  0  0  0  0  0  0  0  0
   20.4463   19.9399   22.3511 C   0  0  0  0  0  0  0  0  0  0  0  0
   20.1993   20.8067   21.7389 H   0  0  0  0  0  0  0  0  0  0  0  0
   20.0689   18.7138   21.9761 C   0  0  0  0  0  0  0  0  0  0  0  0
   20.3188   17.8471   22.5873 H   0  0  0  0  0  0  0  0  0  0  0  0
   19.2920   18.4144   20.7136 C   0  0  0  0  0  0  0  0  0  0  0  0
   19.3060   19.2814   20.0389 H   0  0  0  0  0  0  0  0  0  0  0  0
   19.7691   17.5861   20.1724 H   0  0  0  0  0  0  0  0  0  0  0  0
   17.8316   18.0432   21.0369 C   0  0  0  0  0  0  0  0  0  0  0  0
   17.3256   18.8677   21.5563 H   0  0  0  0  0  0  0  0  0  0  0  0
   17.2731   17.8264   20.1170 H   0  0  0  0  0  0  0  0  0  0  0  0
   17.7864   17.1547   21.6802 H   0  0  0  0  0  0  0  0  0  0  0  0
  1  2  1  0  0  0  0
  1  3  2  0  0  0  0
  1  4  1  0  0  0  0
  4  5  1  0  0  0  0
  4  6  1  0  0  0  0
  4  7  1  0  0  0  0
  7  8  1  0  0  0  0
  7  9  2  0  0  0  0
  9 10  1  0  0  0  0
  9 11  1  0  0  0  0
 11 12  1  0  0  0  0
 11 13  1  0  0  0  0
 11 14  1  0  0  0  0
 14 15  1  0  0  0  0
 14 16  1  0  0  0  0
 14 17  1  0  0  0  0
M  END
> <VConfSearch Rank>
481

> <Conf_Id>
38

> <Delta U+W>
0.000

> <U+W>
-49.427

> <U>
13.666

> <W>
-63.093

> <W(PB)>
-65.225

> <W(SA)>
2.132

> <Valence>
15.226

> <Coulomb>
-1.822

> <VdW>
0.261

> <VdW6>
-4.165

> <VdW12>
4.426

> <Bond>
0.044

> <Angle>
2.229

> <Pdih>
12.953

> <Idih>
0.000

> <Tether>
0.000

$$$$
VeraChem MOL file


 17 16  0  0  0  0  0  0  0  0999 V2000     
   19.0790   21.8391   23.6511 C   0  0  0  0  0  0  0  0  0  0  0  0
   18.9028   21.5567   24.8199 O   0  5  0  0  0  0  0  0  0  0  0  0
   18.3660   22.6019   23.0292 O   0  0  0  0  0  0  0  0  0  0  0  0
   20.2604   21.2083   22.9259 C   0  0  0  0  0  0  0  0  0  0  0  0
   21.0083   20.9202   23.6743 H   0  0  0  0  0  0  0  0  0  0  0  0
   20.7178   21.9801   22.2962 H   0  0  0  0  0  0  0  0  0  0  0  0
   19.8533   20.0182   22.0781 C   0  0  0  0  0  0  0  0  0  0  0  0
   19.2352   20.2538   21.2122 H   0  0  0  0  0  0  0  0  0  0  0  0
   20.2029   18.7550   22.3395 C   0  0  0  0  0  0  0  0  0  0  0  0
   20.8183   18.5199   23.2073 H   0  0  0  0  0  0  0  0  0  0  0  0
   19.7927   17.5692   21.4952 C   0  0  0  0  0  0  0  0  0  0  0  0
   19.3998   16.7724   22.1412 H   0  0  0  0  0  0  0  0  0  0  0  0
   18.9809   17.8481   20.8094 H   0  0  0  0  0  0  0  0  0  0  0  0
   20.9851   17.0297   20.6815 C   0  0  0  0  0  0  0  0  0  0  0  0
   21.7982   16.7071   21.3450 H   0  0  0  0  0  0  0  0  0  0  0  0
   20.6816   16.1690   20.0714 H   0  0  0  0  0  0  0  0  0  0  0  0
   21.3792   17.8025   20.0083 H   0  0  0  0  0  0  0  0  0  0  0  0
  1  2  1  0  0  0  0
  1  3  2  0  0  0  0
  1  4  1  0  0  0  0
  4  5  1  0  0  0  0
  4  6  1  0  0  0  0
  4  7  1  0  0  0  0
  7  8  1  0  0  0  0
  7  9  2  0  0  0  0
  9 10  1  0  0  0  0
  9 11  1  0  0  0  0
 11 12  1  0  0  0  0
 11 13  1  0  0  0  0
 11 14  1  0  0  0  0
 14 15  1  0  0  0  0
 14 16  1  0  0  0  0
 14 17  1  0  0  0  0
M  END
> <VConfSearch Rank>
482

> <Conf_Id>
35

> <Delta U+W>
-0.102

> <U+W>
-49.529

> <U>
13.666

> <W>
-63.195

> <W(PB)>
-65.299

> <W(SA)>
2.103

> <Valence>
15.226

> <Coulomb>
-1.822

> <VdW>
0.261

> <VdW6>
-4.165

> <VdW12>
4.426

> <Bond>
0.044

> <Angle>
2.229

> <Pdih>
12.953

> <Idih>
0.000

> <Tether>
0.000

$$$$
VeraChem MOL file


 17 16  0  0  0  0  0  0  0  0999 V2000     
   17.5366   19.1311   23.4240 C   0  0  0  0  0  0  0  0  0  0  0  0
   17.2414   18.0145   23.8022 O   0  5  0  0  0  0  0  0  0  0  0  0
   17.3639   20.1334   24.0891 O   0  0  0  0  0  0  0  0  0  0  0  0
   18.1475   19.2813   22.0369 C   0  0  0  0  0  0  0  0  0  0  0  0
   17.9553   20.3024   21.6863 H   0  0  0  0  0  0  0  0  0  0  0  0
   17.6128   18.6044   21.3606 H   0  0  0  0  0  0  0  0  0  0  0  0
   19.6320   18.9690   22.0195 C   0  0  0  0  0  0  0  0  0  0  0  0
   19.8788   17.9251   22.2053 H   0  0  0  0  0  0  0  0  0  0  0  0
   20.5853   19.8835   21.8017 C   0  0  0  0  0  0  0  0  0  0  0  0
   20.3001   20.9199   21.6238 H   0  0  0  0  0  0  0  0  0  0  0  0
   22.0852   19.6422   21.7741 C   0  0  0  0  0  0  0  0  0  0  0  0
   22.4809   19.9666   20.8022 H   0  0  0  0  0  0  0  0  0  0  0  0
   22.5643   20.2915   22.5194 H   0  0  0  0  0  0  0  0  0  0  0  0
   22.5153   18.1809   22.0300 C   0  0  0  0  0  0  0  0  0  0  0  0
   22.0975   17.5082   21.2695 H   0  0  0  0  0  0  0  0  0  0  0  0
   23.6087   18.0898   21.9950 H   0  0  0  0  0  0  0  0  0  0  0  0
   22.1811   17.8393   23.0185 H   0  0  0  0  0  0  0  0  0  0  0  0
  1  2  1  0  0  0  0
  1  3  2  0  0  0  0
  1  4  1  0  0  0  0
  4  5  1  0  0  0  0
  4  6  1  0  0  0  0
  4  7  1  0  0  0  0
  7  8  1  0  0  0  0
  7  9  2  0  0  0  0
  9 10  1  0  0  0  0
  9 11  1  0  0  0  0
 11 12  1  0  0  0  0
 11 13  1  0  0  0  0
 11 14  1  0  0  0  0
 14 15  1  0  0  0  0
 14 16  1  0  0  0  0
 14 17  1  0  0  0  0
M  END
> <VConfSearch Rank>
483

> <Conf_Id>
19

> <Delta U+W>
-0.496

> <U+W>
-49.923

> <U>
13.863

> <W>
-63.786

> <W(PB)>
-65.856

> <W(SA)>
2.070

> <Valence>
14.117

> <Coulomb>
-1.228

> <VdW>
0.974

> <VdW6>
-4.885

> <VdW12>
5.859

> <Bond>
0.094

> <Angle>
2.818

> <Pdih>
11.205

> <Idih>
0.000

> <Tether>
0.000

$$$$
VeraChem MOL file


 17 16  0  0  0  0  0  0  0  0999 V2000     
   21.7502   21.3147   23.2219 C   0  0  0  0  0  0  0  0  0  0  0  0
   22.0628   21.8900   22.1981 O   0  5  0  0  0  0  0  0  0  0  0  0
   21.3220   21.8820   24.2077 O   0  0  0  0  0  0  0  0  0  0  0  0
   21.9132   19.8014   23.2788 C   0  0  0  0  0  0  0  0  0  0  0  0
   22.3274   19.5462   24.2610 H   0  0  0  0  0  0  0  0  0  0  0  0
   22.6588   19.5081   22.5300 H   0  0  0  0  0  0  0  0  0  0  0  0
   20.6041   19.0675   23.0589 C   0  0  0  0  0  0  0  0  0  0  0  0
   19.8646   19.1885   23.8499 H   0  0  0  0  0  0  0  0  0  0  0  0
   20.3323   18.3220   21.9835 C   0  0  0  0  0  0  0  0  0  0  0  0
   21.0702   18.2055   21.1904 H   0  0  0  0  0  0  0  0  0  0  0  0
   19.0251   17.5934   21.7648 C   0  0  0  0  0  0  0  0  0  0  0  0
   19.2244   16.5552   21.4667 H   0  0  0  0  0  0  0  0  0  0  0  0
   18.4492   17.5482   22.6994 H   0  0  0  0  0  0  0  0  0  0  0  0
   18.1802   18.2868   20.6784 C   0  0  0  0  0  0  0  0  0  0  0  0
   18.7171   18.3115   19.7210 H   0  0  0  0  0  0  0  0  0  0  0  0
   17.2327   17.7544   20.5240 H   0  0  0  0  0  0  0  0  0  0  0  0
   17.9473   19.3205   20.9665 H   0  0  0  0  0  0  0  0  0  0  0  0
  1  2  1  0  0  0  0
  1  3  2  0  0  0  0
  1  4  1  0  0  0  0
  4  5  1  0  0  0  0
  4  6  1  0  0  0  0
  4  7  1  0  0  0  0
  7  8  1  0  0  0  0
  7  9  2  0  0  0  0
  9 10  1  0  0  0  0
  9 11  1  0  0  0  0
 11 12  1  0  0  0  0
 11 13  1  0  0  0  0
 11 14  1  0  0  0  0
 14 15  1  0  0  0  0
 14 16  1  0  0  0  0
 14 17  1  0  0  0  0
M  END
> <VConfSearch Rank>
484

> <Conf_Id>
7

> <Delta U+W>
-0.041

> <U+W>
-49.468

> <U>
14.121

> <W>
-63.589

> <W(PB)>
-65.660

> <W(SA)>
2.071

> <Valence>
15.230

> <Coulomb>
-1.333

> <VdW>
0.224

> <VdW6>
-4.212

> <VdW12>
4.436

> <Bond>
0.044

> <Angle>
2.230

> <Pdih>
12.956

> <Idih>
0.000

> <Tether>
0.000

$$$$
VeraChem MOL file


 17 16  0  0  0  0  0  0  0  0999 V2000     
   21.8329   20.8651   23.7464 C   0  0  0  0  0  0  0  0  0  0  0  0
   22.2776   20.0551   24.5359 O   0  5  0  0  0  0  0  0  0  0  0  0
   21.3094   21.9100   24.0800 O   0  0  0  0  0  0  0  0  0  0  0  0
   21.9636   20.5672   22.2559 C   0  0  0  0  0  0  0  0  0  0  0  0
   22.8852   19.9925   22.1073 H   0  0  0  0  0  0  0  0  0  0  0  0
   22.1153   21.5199   21.7352 H   0  0  0  0  0  0  0  0  0  0  0  0
   20.7924   19.8241   21.6291 C   0  0  0  0  0  0  0  0  0  0  0  0
   20.9062   19.6218   20.5648 H   0  0  0  0  0  0  0  0  0  0  0  0
   19.6866   19.4194   22.2650 C   0  0  0  0  0  0  0  0  0  0  0  0
   19.5482   19.6080   23.3289 H   0  0  0  0  0  0  0  0  0  0  0  0
   18.5482   18.6836   21.5936 C   0  0  0  0  0  0  0  0  0  0  0  0
   17.5923   19.1490   21.8698 H   0  0  0  0  0  0  0  0  0  0  0  0
   18.6315   18.7600   20.5007 H   0  0  0  0  0  0  0  0  0  0  0  0
   18.5327   17.1975   22.0013 C   0  0  0  0  0  0  0  0  0  0  0  0
   17.7040   16.6690   21.5124 H   0  0  0  0  0  0  0  0  0  0  0  0
   19.4698   16.7041   21.7116 H   0  0  0  0  0  0  0  0  0  0  0  0
   18.4116   17.0907   23.0873 H   0  0  0  0  0  0  0  0  0  0  0  0
  1  2  1  0  0  0  0
  1  3  2  0  0  0  0
  1  4  1  0  0  0  0
  4  5  1  0  0  0  0
  4  6  1  0  0  0  0
  4  7  1  0  0  0  0
  7  8  1  0  0  0  0
  7  9  2  0  0  0  0
  9 10  1  0  0  0  0
  9 11  1  0  0  0  0
 11 12  1  0  0  0  0
 11 13  1  0  0  0  0
 11 14  1  0  0  0  0
 14 15  1  0  0  0  0
 14 16  1  0  0  0  0
 14 17  1  0  0  0  0
M  END
> <VConfSearch Rank>
485

> <Conf_Id>
39

> <Delta U+W>
-0.422

> <U+W>
-49.849

> <U>
14.465

> <W>
-64.314

> <W(PB)>
-66.406

> <W(SA)>
2.093

> <Valence>
14.072

> <Coulomb>
-0.199

> <VdW>
0.592

> <VdW6>
-5.019

> <VdW12>
5.611

> <Bond>
0.085

> <Angle>
2.748

> <Pdih>
11.238

> <Idih>
0.001

> <Tether>
0.000

$$$$
VeraChem MOL file


 17 16  0  0  0  0  0  0  0  0999 V2000     
   22.6591   17.5524   21.3625 C   0  0  0  0  0  0  0  0  0  0  0  0
   22.8144   17.2921   20.1856 O   0  5  0  0  0  0  0  0  0  0  0  0
   22.8818   16.7640   22.2601 O   0  0  0  0  0  0  0  0  0  0  0  0
   22.1637   18.9447   21.7306 C   0  0  0  0  0  0  0  0  0  0  0  0
   22.6768   19.6649   21.0829 H   0  0  0  0  0  0  0  0  0  0  0  0
   22.4762   19.1593   22.7596 H   0  0  0  0  0  0  0  0  0  0  0  0
   20.6611   19.0857   21.5782 C   0  0  0  0  0  0  0  0  0  0  0  0
   20.2917   19.0447   20.5540 H   0  0  0  0  0  0  0  0  0  0  0  0
   19.8145   19.2476   22.5996 C   0  0  0  0  0  0  0  0  0  0  0  0
   20.1843   19.2856   23.6237 H   0  0  0  0  0  0  0  0  0  0  0  0
   18.3161   19.3842   22.4460 C   0  0  0  0  0  0  0  0  0  0  0  0
   18.0040   19.0814   21.4370 H   0  0  0  0  0  0  0  0  0  0  0  0
   17.8085   18.7097   23.1487 H   0  0  0  0  0  0  0  0  0  0  0  0
   17.8625   20.8339   22.7067 C   0  0  0  0  0  0  0  0  0  0  0  0
   18.3383   21.5246   21.9981 H   0  0  0  0  0  0  0  0  0  0  0  0
   16.7745   20.9266   22.5944 H   0  0  0  0  0  0  0  0  0  0  0  0
   18.1283   21.1505   23.7238 H   0  0  0  0  0  0  0  0  0  0  0  0
  1  2  1  0  0  0  0
  1  3  2  0  0  0  0
  1  4  1  0  0  0  0
  4  5  1  0  0  0  0
  4  6  1  0  0  0  0
  4  7  1  0  0  0  0
  7  8  1  0  0  0  0
  7  9  2  0  0  0  0
  9 10  1  0  0  0  0
  9 11  1  0  0  0  0
 11 12  1  0  0  0  0
 11 13  1  0  0  0  0
 11 14  1  0  0  0  0
 14 15  1  0  0  0  0
 14 16  1  0  0  0  0
 14 17  1  0  0  0  0
M  END
> <VConfSearch Rank>
486

> <Conf_Id>
38

> <Delta U+W>
0.000

> <U+W>
-49.427

> <U>
13.666

> <W>
-63.093

> <W(PB)>
-65.225

> <W(SA)>
2.132

> <Valence>
15.226

> <Coulomb>
-1.822

> <VdW>
0.261

> <VdW6>
-4.165

> <VdW12>
4.426

> <Bond>
0.044

> <Angle>
2.229

> <Pdih>
12.953

> <Idih>
0.000

> <Tether>
0.000

$$$$
VeraChem MOL file


 17 16  0  0  0  0  0  0  0  0999 V2000     
   21.9428   21.8264   22.2520 C   0  0  0  0  0  0  0  0  0  0  0  0
   21.9869   22.3491   21.1558 O   0  5  0  0  0  0  0  0  0  0  0  0
   22.8943   21.7640   23.0055 O   0  0  0  0  0  0  0  0  0  0  0  0
   20.6228   21.2209   22.7108 C   0  0  0  0  0  0  0  0  0  0  0  0
   19.8109   21.7101   22.1594 H   0  0  0  0  0  0  0  0  0  0  0  0
   20.4888   21.4726   23.7692 H   0  0  0  0  0  0  0  0  0  0  0  0
   20.5777   19.7164   22.5234 C   0  0  0  0  0  0  0  0  0  0  0  0
   21.2512   19.1476   23.1638 H   0  0  0  0  0  0  0  0  0  0  0  0
   19.7861   19.0921   21.6460 C   0  0  0  0  0  0  0  0  0  0  0  0
   19.1152   19.6617   21.0037 H   0  0  0  0  0  0  0  0  0  0  0  0
   19.7454   17.5920   21.4578 C   0  0  0  0  0  0  0  0  0  0  0  0
   19.8100   17.3507   20.3881 H   0  0  0  0  0  0  0  0  0  0  0  0
   20.6125   17.1204   21.9404 H   0  0  0  0  0  0  0  0  0  0  0  0
   18.4498   16.9956   22.0416 C   0  0  0  0  0  0  0  0  0  0  0  0
   17.5658   17.4221   21.5496 H   0  0  0  0  0  0  0  0  0  0  0  0
   18.4256   15.9071   21.9014 H   0  0  0  0  0  0  0  0  0  0  0  0
   18.3756   17.2024   23.1174 H   0  0  0  0  0  0  0  0  0  0  0  0
  1  2  1  0  0  0  0
  1  3  2  0  0  0  0
  1  4  1  0  0  0  0
  4  5  1  0  0  0  0
  4  6  1  0  0  0  0
  4  7  1  0  0  0  0
  7  8  1  0  0  0  0
  7  9  2  0  0  0  0
  9 10  1  0  0  0  0
  9 11  1  0  0  0  0
 11 12  1  0  0  0  0
 11 13  1  0  0  0  0
 11 14  1  0  0  0  0
 14 15  1  0  0  0  0
 14 16  1  0  0  0  0
 14 17  1  0  0  0  0
M  END
> <VConfSearch Rank>
487

> <Conf_Id>
35

> <Delta U+W>
-0.102

> <U+W>
-49.529

> <U>
13.666

> <W>
-63.195

> <W(PB)>
-65.299

> <W(SA)>
2.103

> <Valence>
15.226

> <Coulomb>
-1.822

> <VdW>
0.261

> <VdW6>
-4.165

> <VdW12>
4.426

> <Bond>
0.044

> <Angle>
2.229

> <Pdih>
12.953

> <Idih>
0.000

> <Tether>
0.000

$$$$
VeraChem MOL file


 17 16  0  0  0  0  0  0  0  0999 V2000     
   23.0922   19.7624   22.0231 C   0  0  0  0  0  0  0  0  0  0  0  0
   23.7111   19.1533   22.8733 O   0  5  0  0  0  0  0  0  0  0  0  0
   23.4536   19.8563   20.8667 O   0  0  0  0  0  0  0  0  0  0  0  0
   21.7981   20.4528   22.4336 C   0  0  0  0  0  0  0  0  0  0  0  0
   21.6070   21.2704   21.7282 H   0  0  0  0  0  0  0  0  0  0  0  0
   21.9596   20.9093   23.4170 H   0  0  0  0  0  0  0  0  0  0  0  0
   20.6224   19.4958   22.4908 C   0  0  0  0  0  0  0  0  0  0  0  0
   20.6805   18.7517   23.2833 H   0  0  0  0  0  0  0  0  0  0  0  0
   19.5854   19.5350   21.6448 C   0  0  0  0  0  0  0  0  0  0  0  0
   19.5641   20.2916   20.8611 H   0  0  0  0  0  0  0  0  0  0  0  0
   18.3808   18.6089   21.6422 C   0  0  0  0  0  0  0  0  0  0  0  0
   17.4677   19.2110   21.7426 H   0  0  0  0  0  0  0  0  0  0  0  0
   18.3072   18.1228   20.6599 H   0  0  0  0  0  0  0  0  0  0  0  0
   18.3907   17.5230   22.7407 C   0  0  0  0  0  0  0  0  0  0  0  0
   18.4092   17.9747   23.7412 H   0  0  0  0  0  0  0  0  0  0  0  0
   17.4916   16.8970   22.6712 H   0  0  0  0  0  0  0  0  0  0  0  0
   19.2654   16.8673   22.6385 H   0  0  0  0  0  0  0  0  0  0  0  0
  1  2  1  0  0  0  0
  1  3  2  0  0  0  0
  1  4  1  0  0  0  0
  4  5  1  0  0  0  0
  4  6  1  0  0  0  0
  4  7  1  0  0  0  0
  7  8  1  0  0  0  0
  7  9  2  0  0  0  0
  9 10  1  0  0  0  0
  9 11  1  0  0  0  0
 11 12  1  0  0  0  0
 11 13  1  0  0  0  0
 11 14  1  0  0  0  0
 14 15  1  0  0  0  0
 14 16  1  0  0  0  0
 14 17  1  0  0  0  0
M  END
> <VConfSearch Rank>
488

> <Conf_Id>
19

> <Delta U+W>
-0.496

> <U+W>
-49.923

> <U>
13.863

> <W>
-63.786

> <W(PB)>
-65.856

> <W(SA)>
2.070

> <Valence>
14.117

> <Coulomb>
-1.228

> <VdW>
0.974

> <VdW6>
-4.885

> <VdW12>
5.859

> <Bond>
0.094

> <Angle>
2.818

> <Pdih>
11.205

> <Idih>
0.000

> <Tether>
0.000

$$$$
VeraChem MOL file


 17 16  0  0  0  0  0  0  0  0999 V2000     
   21.0942   17.9373   19.6678 C   0  0  0  0  0  0  0  0  0  0  0  0
   22.2001   18.4293   19.5588 O   0  5  0  0  0  0  0  0  0  0  0  0
   20.8611   16.7596   19.4786 O   0  0  0  0  0  0  0  0  0  0  0  0
   19.9339   18.8460   20.0519 C   0  0  0  0  0  0  0  0  0  0  0  0
   19.0720   18.5672   19.4346 H   0  0  0  0  0  0  0  0  0  0  0  0
   20.2009   19.8754   19.7841 H   0  0  0  0  0  0  0  0  0  0  0  0
   19.5768   18.7420   21.5224 C   0  0  0  0  0  0  0  0  0  0  0  0
   19.1539   17.7867   21.8318 H   0  0  0  0  0  0  0  0  0  0  0  0
   19.7584   19.7239   22.4108 C   0  0  0  0  0  0  0  0  0  0  0  0
   20.1861   20.6771   22.1018 H   0  0  0  0  0  0  0  0  0  0  0  0
   19.4044   19.6171   23.8773 C   0  0  0  0  0  0  0  0  0  0  0  0
   18.8329   20.5028   24.1864 H   0  0  0  0  0  0  0  0  0  0  0  0
   18.7575   18.7468   24.0542 H   0  0  0  0  0  0  0  0  0  0  0  0
   20.6720   19.4948   24.7451 C   0  0  0  0  0  0  0  0  0  0  0  0
   21.3203   20.3716   24.6173 H   0  0  0  0  0  0  0  0  0  0  0  0
   20.4093   19.4172   25.8081 H   0  0  0  0  0  0  0  0  0  0  0  0
   21.2477   18.6011   24.4700 H   0  0  0  0  0  0  0  0  0  0  0  0
  1  2  1  0  0  0  0
  1  3  2  0  0  0  0
  1  4  1  0  0  0  0
  4  5  1  0  0  0  0
  4  6  1  0  0  0  0
  4  7  1  0  0  0  0
  7  8  1  0  0  0  0
  7  9  2  0  0  0  0
  9 10  1  0  0  0  0
  9 11  1  0  0  0  0
 11 12  1  0  0  0  0
 11 13  1  0  0  0  0
 11 14  1  0  0  0  0
 14 15  1  0  0  0  0
 14 16  1  0  0  0  0
 14 17  1  0  0  0  0
M  END
> <VConfSearch Rank>
489

> <Conf_Id>
7

> <Delta U+W>
-0.041

> <U+W>
-49.468

> <U>
14.121

> <W>
-63.589

> <W(PB)>
-65.660

> <W(SA)>
2.071

> <Valence>
15.230

> <Coulomb>
-1.333

> <VdW>
0.224

> <VdW6>
-4.212

> <VdW12>
4.436

> <Bond>
0.044

> <Angle>
2.230

> <Pdih>
12.956

> <Idih>
0.000

> <Tether>
0.000

$$$$
VeraChem MOL file


 17 16  0  0  0  0  0  0  0  0999 V2000     
   19.2819   20.4252   19.9040 C   0  0  0  0  0  0  0  0  0  0  0  0
   18.0759   20.3349   20.0236 O   0  5  0  0  0  0  0  0  0  0  0  0
   19.8946   20.0040   18.9426 O   0  0  0  0  0  0  0  0  0  0  0  0
   20.0660   21.1298   21.0069 C   0  0  0  0  0  0  0  0  0  0  0  0
   19.4215   21.9072   21.4336 H   0  0  0  0  0  0  0  0  0  0  0  0
   20.9047   21.6575   20.5380 H   0  0  0  0  0  0  0  0  0  0  0  0
   20.5865   20.2313   22.1198 C   0  0  0  0  0  0  0  0  0  0  0  0
   21.1432   20.7544   22.8964 H   0  0  0  0  0  0  0  0  0  0  0  0
   20.4141   18.9071   22.2073 C   0  0  0  0  0  0  0  0  0  0  0  0
   19.8607   18.3600   21.4449 H   0  0  0  0  0  0  0  0  0  0  0  0
   20.9547   18.0581   23.3365 C   0  0  0  0  0  0  0  0  0  0  0  0
   21.4641   17.1760   22.9256 H   0  0  0  0  0  0  0  0  0  0  0  0
   21.7058   18.6160   23.9123 H   0  0  0  0  0  0  0  0  0  0  0  0
   19.8229   17.6049   24.2791 C   0  0  0  0  0  0  0  0  0  0  0  0
   20.2205   16.9882   25.0956 H   0  0  0  0  0  0  0  0  0  0  0  0
   19.3147   18.4713   24.7226 H   0  0  0  0  0  0  0  0  0  0  0  0
   19.0755   17.0112   23.7364 H   0  0  0  0  0  0  0  0  0  0  0  0
  1  2  1  0  0  0  0
  1  3  2  0  0  0  0
  1  4  1  0  0  0  0
  4  5  1  0  0  0  0
  4  6  1  0  0  0  0
  4  7  1  0  0  0  0
  7  8  1  0  0  0  0
  7  9  2  0  0  0  0
  9 10  1  0  0  0  0
  9 11  1  0  0  0  0
 11 12  1  0  0  0  0
 11 13  1  0  0  0  0
 11 14  1  0  0  0  0
 14 15  1  0  0  0  0
 14 16  1  0  0  0  0
 14 17  1  0  0  0  0
M  END
> <VConfSearch Rank>
490

> <Conf_Id>
39

> <Delta U+W>
-0.422

> <U+W>
-49.849

> <U>
14.465

> <W>
-64.314

> <W(PB)>
-66.406

> <W(SA)>
2.093

> <Valence>
14.072

> <Coulomb>
-0.199

> <VdW>
0.592

> <VdW6>
-5.019

> <VdW12>
5.611

> <Bond>
0.085

> <Angle>
2.748

> <Pdih>
11.238

> <Idih>
0.001

> <Tether>
0.000

$$$$
VeraChem MOL file


 17 16  0  0  0  0  0  0  0  0999 V2000     
   18.9595   21.5863   20.2760 C   0  0  0  0  0  0  0  0  0  0  0  0
   18.2728   22.4239   20.8272 O   0  5  0  0  0  0  0  0  0  0  0  0
   18.7156   21.1369   19.1735 O   0  0  0  0  0  0  0  0  0  0  0  0
   20.1954   21.0775   21.0061 C   0  0  0  0  0  0  0  0  0  0  0  0
   20.6768   21.9361   21.4883 H   0  0  0  0  0  0  0  0  0  0  0  0
   20.9004   20.6920   20.2597 H   0  0  0  0  0  0  0  0  0  0  0  0
   19.8644   20.0178   22.0396 C   0  0  0  0  0  0  0  0  0  0  0  0
   19.2972   20.3693   22.9009 H   0  0  0  0  0  0  0  0  0  0  0  0
   20.2208   18.7336   21.9393 C   0  0  0  0  0  0  0  0  0  0  0  0
   20.7854   18.3821   21.0763 H   0  0  0  0  0  0  0  0  0  0  0  0
   19.8866   17.6775   22.9691 C   0  0  0  0  0  0  0  0  0  0  0  0
   19.1137   18.0440   23.6587 H   0  0  0  0  0  0  0  0  0  0  0  0
   19.4697   16.7922   22.4702 H   0  0  0  0  0  0  0  0  0  0  0  0
   21.1373   17.2727   23.7734 C   0  0  0  0  0  0  0  0  0  0  0  0
   21.5576   18.1382   24.3025 H   0  0  0  0  0  0  0  0  0  0  0  0
   20.8887   16.5058   24.5184 H   0  0  0  0  0  0  0  0  0  0  0  0
   21.9137   16.8661   23.1120 H   0  0  0  0  0  0  0  0  0  0  0  0
  1  2  1  0  0  0  0
  1  3  2  0  0  0  0
  1  4  1  0  0  0  0
  4  5  1  0  0  0  0
  4  6  1  0  0  0  0
  4  7  1  0  0  0  0
  7  8  1  0  0  0  0
  7  9  2  0  0  0  0
  9 10  1  0  0  0  0
  9 11  1  0  0  0  0
 11 12  1  0  0  0  0
 11 13  1  0  0  0  0
 11 14  1  0  0  0  0
 14 15  1  0  0  0  0
 14 16  1  0  0  0  0
 14 17  1  0  0  0  0
M  END
> <VConfSearch Rank>
491

> <Conf_Id>
38

> <Delta U+W>
0.000

> <U+W>
-49.427

> <U>
13.666

> <W>
-63.093

> <W(PB)>
-65.225

> <W(SA)>
2.132

> <Valence>
15.226

> <Coulomb>
-1.822

> <VdW>
0.261

> <VdW6>
-4.165

> <VdW12>
4.426

> <Bond>
0.044

> <Angle>
2.229

> <Pdih>
12.953

> <Idih>
0.000

> <Tether>
0.000

$$$$
VeraChem MOL file


 17 16  0  0  0  0  0  0  0  0999 V2000     
   18.7999   21.5987   23.8165 C   0  0  0  0  0  0  0  0  0  0  0  0
   19.6224   22.0081   24.6120 O   0  5  0  0  0  0  0  0  0  0  0  0
   17.6150   21.4981   24.0668 O   0  0  0  0  0  0  0  0  0  0  0  0
   19.2773   21.1943   22.4279 C   0  0  0  0  0  0  0  0  0  0  0  0
   20.2174   21.7199   22.2217 H   0  0  0  0  0  0  0  0  0  0  0  0
   18.5409   21.5575   21.7017 H   0  0  0  0  0  0  0  0  0  0  0  0
   19.4511   19.6940   22.2875 C   0  0  0  0  0  0  0  0  0  0  0  0
   18.5293   19.1140   22.3202 H   0  0  0  0  0  0  0  0  0  0  0  0
   20.6313   19.0856   22.1356 C   0  0  0  0  0  0  0  0  0  0  0  0
   21.5529   19.6659   22.1062 H   0  0  0  0  0  0  0  0  0  0  0  0
   20.8030   17.5891   21.9997 C   0  0  0  0  0  0  0  0  0  0  0  0
   21.5919   17.2431   22.6813 H   0  0  0  0  0  0  0  0  0  0  0  0
   19.8814   17.0682   22.2938 H   0  0  0  0  0  0  0  0  0  0  0  0
   21.1680   17.2026   20.5532 C   0  0  0  0  0  0  0  0  0  0  0  0
   22.1075   17.6800   20.2453 H   0  0  0  0  0  0  0  0  0  0  0  0
   21.2919   16.1158   20.4609 H   0  0  0  0  0  0  0  0  0  0  0  0
   20.3803   17.5161   19.8553 H   0  0  0  0  0  0  0  0  0  0  0  0
  1  2  1  0  0  0  0
  1  3  2  0  0  0  0
  1  4  1  0  0  0  0
  4  5  1  0  0  0  0
  4  6  1  0  0  0  0
  4  7  1  0  0  0  0
  7  8  1  0  0  0  0
  7  9  2  0  0  0  0
  9 10  1  0  0  0  0
  9 11  1  0  0  0  0
 11 12  1  0  0  0  0
 11 13  1  0  0  0  0
 11 14  1  0  0  0  0
 14 15  1  0  0  0  0
 14 16  1  0  0  0  0
 14 17  1  0  0  0  0
M  END
> <VConfSearch Rank>
492

> <Conf_Id>
35

> <Delta U+W>
-0.102

> <U+W>
-49.529

> <U>
13.666

> <W>
-63.195

> <W(PB)>
-65.299

> <W(SA)>
2.103

> <Valence>
15.226

> <Coulomb>
-1.822

> <VdW>
0.261

> <VdW6>
-4.165

> <VdW12>
4.426

> <Bond>
0.044

> <Angle>
2.229

> <Pdih>
12.953

> <Idih>
0.000

> <Tether>
0.000

$$$$
VeraChem MOL file


 17 16  0  0  0  0  0  0  0  0999 V2000     
   20.7890   16.2042   22.2778 C   0  0  0  0  0  0  0  0  0  0  0  0
   21.9869   16.0198   22.3666 O   0  5  0  0  0  0  0  0  0  0  0  0
   19.9661   15.6085   22.9449 O   0  0  0  0  0  0  0  0  0  0  0  0
   20.2935   17.2314   21.2683 C   0  0  0  0  0  0  0  0  0  0  0  0
   19.2594   16.9805   21.0032 H   0  0  0  0  0  0  0  0  0  0  0  0
   20.8934   17.1218   20.3574 H   0  0  0  0  0  0  0  0  0  0  0  0
   20.3934   18.6525   21.7895 C   0  0  0  0  0  0  0  0  0  0  0  0
   21.4105   19.0172   21.9226 H   0  0  0  0  0  0  0  0  0  0  0  0
   19.3339   19.4190   22.0772 C   0  0  0  0  0  0  0  0  0  0  0  0
   18.3308   19.0181   21.9354 H   0  0  0  0  0  0  0  0  0  0  0  0
   19.3609   20.8439   22.6042 C   0  0  0  0  0  0  0  0  0  0  0  0
   18.8050   21.4908   21.9120 H   0  0  0  0  0  0  0  0  0  0  0  0
   18.8086   20.8834   23.5528 H   0  0  0  0  0  0  0  0  0  0  0  0
   20.7725   21.4329   22.8195 C   0  0  0  0  0  0  0  0  0  0  0  0
   21.3362   21.4594   21.8777 H   0  0  0  0  0  0  0  0  0  0  0  0
   20.7068   22.4602   23.2008 H   0  0  0  0  0  0  0  0  0  0  0  0
   21.3399   20.8395   23.5484 H   0  0  0  0  0  0  0  0  0  0  0  0
  1  2  1  0  0  0  0
  1  3  2  0  0  0  0
  1  4  1  0  0  0  0
  4  5  1  0  0  0  0
  4  6  1  0  0  0  0
  4  7  1  0  0  0  0
  7  8  1  0  0  0  0
  7  9  2  0  0  0  0
  9 10  1  0  0  0  0
  9 11  1  0  0  0  0
 11 12  1  0  0  0  0
 11 13  1  0  0  0  0
 11 14  1  0  0  0  0
 14 15  1  0  0  0  0
 14 16  1  0  0  0  0
 14 17  1  0  0  0  0
M  END
> <VConfSearch Rank>
493

> <Conf_Id>
19

> <Delta U+W>
-0.496

> <U+W>
-49.923

> <U>
13.863

> <W>
-63.786

> <W(PB)>
-65.856

> <W(SA)>
2.070

> <Valence>
14.117

> <Coulomb>
-1.228

> <VdW>
0.974

> <VdW6>
-4.885

> <VdW12>
5.859

> <Bond>
0.094

> <Angle>
2.818

> <Pdih>
11.205

> <Idih>
0.000

> <Tether>
0.000

$$$$
VeraChem MOL file


 17 16  0  0  0  0  0  0  0  0999 V2000     
   20.3216   19.2619   19.2871 C   0  0  0  0  0  0  0  0  0  0  0  0
   20.8386   18.2043   18.9854 O   0  5  0  0  0  0  0  0  0  0  0  0
   19.3497   19.7208   18.7198 O   0  0  0  0  0  0  0  0  0  0  0  0
   20.9295   20.0628   20.4311 C   0  0  0  0  0  0  0  0  0  0  0  0
   20.9362   21.1180   20.1343 H   0  0  0  0  0  0  0  0  0  0  0  0
   21.9758   19.7554   20.5473 H   0  0  0  0  0  0  0  0  0  0  0  0
   20.1653   19.8920   21.7302 C   0  0  0  0  0  0  0  0  0  0  0  0
   19.1623   20.3176   21.7391 H   0  0  0  0  0  0  0  0  0  0  0  0
   20.6463   19.2645   22.8078 C   0  0  0  0  0  0  0  0  0  0  0  0
   21.6473   18.8346   22.7965 H   0  0  0  0  0  0  0  0  0  0  0  0
   19.8815   19.0927   24.1012 C   0  0  0  0  0  0  0  0  0  0  0  0
   20.5179   19.3791   24.9494 H   0  0  0  0  0  0  0  0  0  0  0  0
   19.0082   19.7592   24.1228 H   0  0  0  0  0  0  0  0  0  0  0  0
   19.4145   17.6348   24.2783 C   0  0  0  0  0  0  0  0  0  0  0  0
   20.2715   16.9488   24.2993 H   0  0  0  0  0  0  0  0  0  0  0  0
   18.8597   17.5158   25.2181 H   0  0  0  0  0  0  0  0  0  0  0  0
   18.7557   17.3336   23.4531 H   0  0  0  0  0  0  0  0  0  0  0  0
  1  2  1  0  0  0  0
  1  3  2  0  0  0  0
  1  4  1  0  0  0  0
  4  5  1  0  0  0  0
  4  6  1  0  0  0  0
  4  7  1  0  0  0  0
  7  8  1  0  0  0  0
  7  9  2  0  0  0  0
  9 10  1  0  0  0  0
  9 11  1  0  0  0  0
 11 12  1  0  0  0  0
 11 13  1  0  0  0  0
 11 14  1  0  0  0  0
 14 15  1  0  0  0  0
 14 16  1  0  0  0  0
 14 17  1  0  0  0  0
M  END
> <VConfSearch Rank>
494

> <Conf_Id>
7

> <Delta U+W>
-0.041

> <U+W>
-49.468

> <U>
14.121

> <W>
-63.589

> <W(PB)>
-65.660

> <W(SA)>
2.071

> <Valence>
15.230

> <Coulomb>
-1.333

> <VdW>
0.224

> <VdW6>
-4.212

> <VdW12>
4.436

> <Bond>
0.044

> <Angle>
2.230

> <Pdih>
12.956

> <Idih>
0.000

> <Tether>
0.000

$$$$
VeraChem MOL file


 17 16  0  0  0  0  0  0  0  0999 V2000     
   21.3455   20.1259   24.5945 C   0  0  0  0  0  0  0  0  0  0  0  0
   22.5184   20.0086   24.2983 O   0  5  0  0  0  0  0  0  0  0  0  0
   20.8489   19.6215   25.5824 O   0  0  0  0  0  0  0  0  0  0  0  0
   20.4548   20.9750   23.6928 C   0  0  0  0  0  0  0  0  0  0  0  0
   21.0728   21.7727   23.2644 H   0  0  0  0  0  0  0  0  0  0  0  0
   19.7142   21.4755   24.3276 H   0  0  0  0  0  0  0  0  0  0  0  0
   19.7447   20.2241   22.5753 C   0  0  0  0  0  0  0  0  0  0  0  0
   19.1142   20.8488   21.9439 H   0  0  0  0  0  0  0  0  0  0  0  0
   19.8386   18.9127   22.3254 C   0  0  0  0  0  0  0  0  0  0  0  0
   20.4627   18.2658   22.9409 H   0  0  0  0  0  0  0  0  0  0  0  0
   19.1090   18.2134   21.2000 C   0  0  0  0  0  0  0  0  0  0  0  0
   18.6173   17.3089   21.5829 H   0  0  0  0  0  0  0  0  0  0  0  0
   18.3150   18.8570   20.7971 H   0  0  0  0  0  0  0  0  0  0  0  0
   20.0791   17.8296   20.0656 C   0  0  0  0  0  0  0  0  0  0  0  0
   19.5446   17.3214   19.2525 H   0  0  0  0  0  0  0  0  0  0  0  0
   20.5643   18.7222   19.6491 H   0  0  0  0  0  0  0  0  0  0  0  0
   20.8630   17.1542   20.4326 H   0  0  0  0  0  0  0  0  0  0  0  0
  1  2  1  0  0  0  0
  1  3  2  0  0  0  0
  1  4  1  0  0  0  0
  4  5  1  0  0  0  0
  4  6  1  0  0  0  0
  4  7  1  0  0  0  0
  7  8  1  0  0  0  0
  7  9  2  0  0  0  0
  9 10  1  0  0  0  0
  9 11  1  0  0  0  0
 11 12  1  0  0  0  0
 11 13  1  0  0  0  0
 11 14  1  0  0  0  0
 14 15  1  0  0  0  0
 14 16  1  0  0  0  0
 14 17  1  0  0  0  0
M  END
> <VConfSearch Rank>
495

> <Conf_Id>
39

> <Delta U+W>
-0.422

> <U+W>
-49.849

> <U>
14.465

> <W>
-64.314

> <W(PB)>
-66.406

> <W(SA)>
2.093

> <Valence>
14.072

> <Coulomb>
-0.199

> <VdW>
0.592

> <VdW6>
-5.019

> <VdW12>
5.611

> <Bond>
0.085

> <Angle>
2.748

> <Pdih>
11.238

> <Idih>
0.001

> <Tether>
0.000

$$$$
VeraChem MOL file


 17 16  0  0  0  0  0  0  0  0999 V2000     
   19.2796   21.2894   19.8107 C   0  0  0  0  0  0  0  0  0  0  0  0
   19.6600   21.0205   18.6882 O   0  5  0  0  0  0  0  0  0  0  0  0
   19.2595   22.4179   20.2611 O   0  0  0  0  0  0  0  0  0  0  0  0
   18.7971   20.1491   20.6976 C   0  0  0  0  0  0  0  0  0  0  0  0
   18.2027   19.4697   20.0759 H   0  0  0  0  0  0  0  0  0  0  0  0
   18.1213   20.5654   21.4543 H   0  0  0  0  0  0  0  0  0  0  0  0
   19.9413   19.3942   21.3469 C   0  0  0  0  0  0  0  0  0  0  0  0
   20.5659   18.8190   20.6641 H   0  0  0  0  0  0  0  0  0  0  0  0
   20.2023   19.4080   22.6576 C   0  0  0  0  0  0  0  0  0  0  0  0
   19.5792   19.9858   23.3395 H   0  0  0  0  0  0  0  0  0  0  0  0
   21.3460   18.6577   23.3028 C   0  0  0  0  0  0  0  0  0  0  0  0
   22.0634   18.3217   22.5415 H   0  0  0  0  0  0  0  0  0  0  0  0
   21.8944   19.3276   23.9788 H   0  0  0  0  0  0  0  0  0  0  0  0
   20.8326   17.4383   24.0931 C   0  0  0  0  0  0  0  0  0  0  0  0
   20.3021   16.7404   23.4319 H   0  0  0  0  0  0  0  0  0  0  0  0
   21.6668   16.8983   24.5595 H   0  0  0  0  0  0  0  0  0  0  0  0
   20.1414   17.7491   24.8876 H   0  0  0  0  0  0  0  0  0  0  0  0
  1  2  1  0  0  0  0
  1  3  2  0  0  0  0
  1  4  1  0  0  0  0
  4  5  1  0  0  0  0
  4  6  1  0  0  0  0
  4  7  1  0  0  0  0
  7  8  1  0  0  0  0
  7  9  2  0  0  0  0
  9 10  1  0  0  0  0
  9 11  1  0  0  0  0
 11 12  1  0  0  0  0
 11 13  1  0  0  0  0
 11 14  1  0  0  0  0
 14 15  1  0  0  0  0
 14 16  1  0  0  0  0
 14 17  1  0  0  0  0
M  END
> <VConfSearch Rank>
496

> <Conf_Id>
38

> <Delta U+W>
0.000

> <U+W>
-49.427

> <U>
13.666

> <W>
-63.093

> <W(PB)>
-65.225

> <W(SA)>
2.132

> <Valence>
15.226

> <Coulomb>
-1.822

> <VdW>
0.261

> <VdW6>
-4.165

> <VdW12>
4.426

> <Bond>
0.044

> <Angle>
2.229

> <Pdih>
12.953

> <Idih>
0.000

> <Tether>
0.000

$$$$
VeraChem MOL file


 17 16  0  0  0  0  0  0  0  0999 V2000     
   19.1562   21.7281   23.8653 C   0  0  0  0  0  0  0  0  0  0  0  0
   20.0542   22.0360   24.6240 O   0  5  0  0  0  0  0  0  0  0  0  0
   17.9794   21.7662   24.1663 O   0  0  0  0  0  0  0  0  0  0  0  0
   19.5230   21.2748   22.4583 C   0  0  0  0  0  0  0  0  0  0  0  0
   20.5086   21.6873   22.2110 H   0  0  0  0  0  0  0  0  0  0  0  0
   18.8039   21.7239   21.7635 H   0  0  0  0  0  0  0  0  0  0  0  0
   19.5138   19.7649   22.3136 C   0  0  0  0  0  0  0  0  0  0  0  0
   18.5326   19.2967   22.3870 H   0  0  0  0  0  0  0  0  0  0  0  0
   20.6070   19.0229   22.1126 C   0  0  0  0  0  0  0  0  0  0  0  0
   21.5882   19.4914   22.0425 H   0  0  0  0  0  0  0  0  0  0  0  0
   20.5963   17.5170   21.9725 C   0  0  0  0  0  0  0  0  0  0  0  0
   21.3676   17.0790   22.6204 H   0  0  0  0  0  0  0  0  0  0  0  0
   19.6335   17.1067   22.3069 H   0  0  0  0  0  0  0  0  0  0  0  0
   20.8513   17.0948   20.5125 C   0  0  0  0  0  0  0  0  0  0  0  0
   21.8263   17.4597   20.1637 H   0  0  0  0  0  0  0  0  0  0  0  0
   20.8430   16.0012   20.4172 H   0  0  0  0  0  0  0  0  0  0  0  0
   20.0767   17.5005   19.8484 H   0  0  0  0  0  0  0  0  0  0  0  0
  1  2  1  0  0  0  0
  1  3  2  0  0  0  0
  1  4  1  0  0  0  0
  4  5  1  0  0  0  0
  4  6  1  0  0  0  0
  4  7  1  0  0  0  0
  7  8  1  0  0  0  0
  7  9  2  0  0  0  0
  9 10  1  0  0  0  0
  9 11  1  0  0  0  0
 11 12  1  0  0  0  0
 11 13  1  0  0  0  0
 11 14  1  0  0  0  0
 14 15  1  0  0  0  0
 14 16  1  0  0  0  0
 14 17  1  0  0  0  0
M  END
> <VConfSearch Rank>
497

> <Conf_Id>
35

> <Delta U+W>
-0.102

> <U+W>
-49.529

> <U>
13.666

> <W>
-63.195

> <W(PB)>
-65.299

> <W(SA)>
2.103

> <Valence>
15.226

> <Coulomb>
-1.822

> <VdW>
0.261

> <VdW6>
-4.165

> <VdW12>
4.426

> <Bond>
0.044

> <Angle>
2.229

> <Pdih>
12.953

> <Idih>
0.000

> <Tether>
0.000

$$$$
VeraChem MOL file


 17 16  0  0  0  0  0  0  0  0999 V2000     
   22.9724   18.0320   22.2866 C   0  0  0  0  0  0  0  0  0  0  0  0
   23.6956   18.8005   22.8893 O   0  5  0  0  0  0  0  0  0  0  0  0
   22.9761   16.8293   22.4608 O   0  0  0  0  0  0  0  0  0  0  0  0
   22.0168   18.6086   21.2503 C   0  0  0  0  0  0  0  0  0  0  0  0
   21.7761   17.8187   20.5287 H   0  0  0  0  0  0  0  0  0  0  0  0
   22.5517   19.3921   20.7011 H   0  0  0  0  0  0  0  0  0  0  0  0
   20.7575   19.1784   21.8755 C   0  0  0  0  0  0  0  0  0  0  0  0
   20.9140   20.0692   22.4813 H   0  0  0  0  0  0  0  0  0  0  0  0
   19.5387   18.6470   21.7176 C   0  0  0  0  0  0  0  0  0  0  0  0
   19.4216   17.7520   21.1073 H   0  0  0  0  0  0  0  0  0  0  0  0
   18.2399   19.1613   22.3153 C   0  0  0  0  0  0  0  0  0  0  0  0
   17.5295   19.3654   21.5029 H   0  0  0  0  0  0  0  0  0  0  0  0
   17.7820   18.3621   22.9138 H   0  0  0  0  0  0  0  0  0  0  0  0
   18.3808   20.4265   23.1902 C   0  0  0  0  0  0  0  0  0  0  0  0
   18.7863   21.2647   22.6085 H   0  0  0  0  0  0  0  0  0  0  0  0
   17.4030   20.7329   23.5841 H   0  0  0  0  0  0  0  0  0  0  0  0
   19.0448   20.2424   24.0450 H   0  0  0  0  0  0  0  0  0  0  0  0
  1  2  1  0  0  0  0
  1  3  2  0  0  0  0
  1  4  1  0  0  0  0
  4  5  1  0  0  0  0
  4  6  1  0  0  0  0
  4  7  1  0  0  0  0
  7  8  1  0  0  0  0
  7  9  2  0  0  0  0
  9 10  1  0  0  0  0
  9 11  1  0  0  0  0
 11 12  1  0  0  0  0
 11 13  1  0  0  0  0
 11 14  1  0  0  0  0
 14 15  1  0  0  0  0
 14 16  1  0  0  0  0
 14 17  1  0  0  0  0
M  END
> <VConfSearch Rank>
498

> <Conf_Id>
19

> <Delta U+W>
-0.496

> <U+W>
-49.923

> <U>
13.863

> <W>
-63.786

> <W(PB)>
-65.856

> <W(SA)>
2.070

> <Valence>
14.117

> <Coulomb>
-1.228

> <VdW>
0.974

> <VdW6>
-4.885

> <VdW12>
5.859

> <Bond>
0.094

> <Angle>
2.818

> <Pdih>
11.205

> <Idih>
0.000

> <Tether>
0.000

$$$$
VeraChem MOL file


 17 16  0  0  0  0  0  0  0  0999 V2000     
   20.8791   16.8785   24.0342 C   0  0  0  0  0  0  0  0  0  0  0  0
   21.8304   16.3752   23.4700 O   0  5  0  0  0  0  0  0  0  0  0  0
   20.8609   17.1352   25.2220 O   0  0  0  0  0  0  0  0  0  0  0  0
   19.6368   17.1960   23.2122 C   0  0  0  0  0  0  0  0  0  0  0  0
   18.7608   16.9082   23.8049 H   0  0  0  0  0  0  0  0  0  0  0  0
   19.6438   16.5589   22.3196 H   0  0  0  0  0  0  0  0  0  0  0  0
   19.5502   18.6622   22.8330 C   0  0  0  0  0  0  0  0  0  0  0  0
   19.3845   19.3482   23.6631 H   0  0  0  0  0  0  0  0  0  0  0  0
   19.6711   19.1236   21.5845 C   0  0  0  0  0  0  0  0  0  0  0  0
   19.8419   18.4376   20.7555 H   0  0  0  0  0  0  0  0  0  0  0  0
   19.5874   20.5862   21.2089 C   0  0  0  0  0  0  0  0  0  0  0  0
   18.9066   20.7119   20.3562 H   0  0  0  0  0  0  0  0  0  0  0  0
   19.1667   21.1724   22.0375 H   0  0  0  0  0  0  0  0  0  0  0  0
   20.9768   21.1441   20.8439 C   0  0  0  0  0  0  0  0  0  0  0  0
   21.4054   20.6008   19.9915 H   0  0  0  0  0  0  0  0  0  0  0  0
   20.9104   22.2057   20.5726 H   0  0  0  0  0  0  0  0  0  0  0  0
   21.6689   21.0514   21.6913 H   0  0  0  0  0  0  0  0  0  0  0  0
  1  2  1  0  0  0  0
  1  3  2  0  0  0  0
  1  4  1  0  0  0  0
  4  5  1  0  0  0  0
  4  6  1  0  0  0  0
  4  7  1  0  0  0  0
  7  8  1  0  0  0  0
  7  9  2  0  0  0  0
  9 10  1  0  0  0  0
  9 11  1  0  0  0  0
 11 12  1  0  0  0  0
 11 13  1  0  0  0  0
 11 14  1  0  0  0  0
 14 15  1  0  0  0  0
 14 16  1  0  0  0  0
 14 17  1  0  0  0  0
M  END
> <VConfSearch Rank>
499

> <Conf_Id>
7

> <Delta U+W>
-0.041

> <U+W>
-49.468

> <U>
14.121

> <W>
-63.589

> <W(PB)>
-65.660

> <W(SA)>
2.071

> <Valence>
15.230

> <Coulomb>
-1.333

> <VdW>
0.224

> <VdW6>
-4.212

> <VdW12>
4.436

> <Bond>
0.044

> <Angle>
2.230

> <Pdih>
12.956

> <Idih>
0.000

> <Tether>
0.000

$$$$
VeraChem MOL file


 17 16  0  0  0  0  0  0  0  0999 V2000     
   20.1996   16.8724   23.6301 C   0  0  0  0  0  0  0  0  0  0  0  0
   21.3868   16.6165   23.5855 O   0  5  0  0  0  0  0  0  0  0  0  0
   19.3333   16.1068   23.2553 O   0  0  0  0  0  0  0  0  0  0  0  0
   19.7721   18.2156   24.2137 C   0  0  0  0  0  0  0  0  0  0  0  0
   20.4997   18.4940   24.9851 H   0  0  0  0  0  0  0  0  0  0  0  0
   18.8203   18.0667   24.7369 H   0  0  0  0  0  0  0  0  0  0  0  0
   19.6310   19.3525   23.2115 C   0  0  0  0  0  0  0  0  0  0  0  0
   19.3251   20.3020   23.6490 H   0  0  0  0  0  0  0  0  0  0  0  0
   19.8485   19.2709   21.8935 C   0  0  0  0  0  0  0  0  0  0  0  0
   20.1561   18.3338   21.4309 H   0  0  0  0  0  0  0  0  0  0  0  0
   19.6923   20.4334   20.9385 C   0  0  0  0  0  0  0  0  0  0  0  0
   19.1003   20.1206   20.0678 H   0  0  0  0  0  0  0  0  0  0  0  0
   19.1396   21.2535   21.4172 H   0  0  0  0  0  0  0  0  0  0  0  0
   21.0653   20.9509   20.4671 C   0  0  0  0  0  0  0  0  0  0  0  0
   20.9459   21.7933   19.7734 H   0  0  0  0  0  0  0  0  0  0  0  0
   21.6663   21.2937   21.3196 H   0  0  0  0  0  0  0  0  0  0  0  0
   21.6251   20.1604   19.9501 H   0  0  0  0  0  0  0  0  0  0  0  0
  1  2  1  0  0  0  0
  1  3  2  0  0  0  0
  1  4  1  0  0  0  0
  4  5  1  0  0  0  0
  4  6  1  0  0  0  0
  4  7  1  0  0  0  0
  7  8  1  0  0  0  0
  7  9  2  0  0  0  0
  9 10  1  0  0  0  0
  9 11  1  0  0  0  0
 11 12  1  0  0  0  0
 11 13  1  0  0  0  0
 11 14  1  0  0  0  0
 14 15  1  0  0  0  0
 14 16  1  0  0  0  0
 14 17  1  0  0  0  0
M  END
> <VConfSearch Rank>
500

> <Conf_Id>
39

> <Delta U+W>
-0.422

> <U+W>
-49.849

> <U>
14.465

> <W>
-64.314

> <W(PB)>
-66.406

> <W(SA)>
2.093

> <Valence>
14.072

> <Coulomb>
-0.199

> <VdW>
0.592

> <VdW6>
-5.019

> <VdW12>
5.611

> <Bond>
0.085

> <Angle>
2.748

> <Pdih>
11.238

> <Idih>
0.001

> <Tether>
0.000

$$$$
VeraChem MOL file


 17 16  0  0  0  0  0  0  0  0999 V2000     
   22.2972   20.5652   23.9925 C   0  0  0  0  0  0  0  0  0  0  0  0
   23.4524   20.4734   23.6264 O   0  5  0  0  0  0  0  0  0  0  0  0
   21.9472   20.4414   25.1497 O   0  0  0  0  0  0  0  0  0  0  0  0
   21.2325   20.8566   22.9431 C   0  0  0  0  0  0  0  0  0  0  0  0
   21.6393   21.6036   22.2517 H   0  0  0  0  0  0  0  0  0  0  0  0
   20.3735   21.3181   23.4449 H   0  0  0  0  0  0  0  0  0  0  0  0
   20.8136   19.6144   22.1802 C   0  0  0  0  0  0  0  0  0  0  0  0
   21.5762   19.1900   21.5279 H   0  0  0  0  0  0  0  0  0  0  0  0
   19.6072   19.0467   22.2736 C   0  0  0  0  0  0  0  0  0  0  0  0
   18.8461   19.4699   22.9284 H   0  0  0  0  0  0  0  0  0  0  0  0
   19.1925   17.8059   21.5150 C   0  0  0  0  0  0  0  0  0  0  0  0
   20.0723   17.3026   21.0908 H   0  0  0  0  0  0  0  0  0  0  0  0
   18.7216   17.0908   22.2030 H   0  0  0  0  0  0  0  0  0  0  0  0
   18.2077   18.1530   20.3815 C   0  0  0  0  0  0  0  0  0  0  0  0
   18.6664   18.8480   19.6658 H   0  0  0  0  0  0  0  0  0  0  0  0
   17.9099   17.2487   19.8351 H   0  0  0  0  0  0  0  0  0  0  0  0
   17.3001   18.6236   20.7816 H   0  0  0  0  0  0  0  0  0  0  0  0
  1  2  1  0  0  0  0
  1  3  2  0  0  0  0
  1  4  1  0  0  0  0
  4  5  1  0  0  0  0
  4  6  1  0  0  0  0
  4  7  1  0  0  0  0
  7  8  1  0  0  0  0
  7  9  2  0  0  0  0
  9 10  1  0  0  0  0
  9 11  1  0  0  0  0
 11 12  1  0  0  0  0
 11 13  1  0  0  0  0
 11 14  1  0  0  0  0
 14 15  1  0  0  0  0
 14 16  1  0  0  0  0
 14 17  1  0  0  0  0
M  END
> <VConfSearch Rank>
501

> <Conf_Id>
38

> <Delta U+W>
0.000

> <U+W>
-49.427

> <U>
13.666

> <W>
-63.093

> <W(PB)>
-65.225

> <W(SA)>
2.132

> <Valence>
15.226

> <Coulomb>
-1.822

> <VdW>
0.261

> <VdW6>
-4.165

> <VdW12>
4.426

> <Bond>
0.044

> <Angle>
2.229

> <Pdih>
12.953

> <Idih>
0.000

> <Tether>
0.000

$$$$
VeraChem MOL file


 17 16  0  0  0  0  0  0  0  0999 V2000     
   21.5847   21.5055   23.7672 C   0  0  0  0  0  0  0  0  0  0  0  0
   22.7618   21.5037   23.4651 O   0  5  0  0  0  0  0  0  0  0  0  0
   21.1808   21.7053   24.8958 O   0  0  0  0  0  0  0  0  0  0  0  0
   20.5577   21.2491   22.6721 C   0  0  0  0  0  0  0  0  0  0  0  0
   21.0112   21.5107   21.7084 H   0  0  0  0  0  0  0  0  0  0  0  0
   19.7204   21.9386   22.8300 H   0  0  0  0  0  0  0  0  0  0  0  0
   20.0591   19.8166   22.6673 C   0  0  0  0  0  0  0  0  0  0  0  0
   19.4560   19.5313   23.5287 H   0  0  0  0  0  0  0  0  0  0  0  0
   20.3194   18.9339   21.6981 C   0  0  0  0  0  0  0  0  0  0  0  0
   20.9252   19.2190   20.8386 H   0  0  0  0  0  0  0  0  0  0  0  0
   19.8246   17.5047   21.6970 C   0  0  0  0  0  0  0  0  0  0  0  0
   20.6564   16.8247   21.4688 H   0  0  0  0  0  0  0  0  0  0  0  0
   19.4533   17.2257   22.6927 H   0  0  0  0  0  0  0  0  0  0  0  0
   18.7013   17.3084   20.6603 C   0  0  0  0  0  0  0  0  0  0  0  0
   19.0565   17.5439   19.6485 H   0  0  0  0  0  0  0  0  0  0  0  0
   18.3468   16.2694   20.6636 H   0  0  0  0  0  0  0  0  0  0  0  0
   17.8466   17.9607   20.8833 H   0  0  0  0  0  0  0  0  0  0  0  0
  1  2  1  0  0  0  0
  1  3  2  0  0  0  0
  1  4  1  0  0  0  0
  4  5  1  0  0  0  0
  4  6  1  0  0  0  0
  4  7  1  0  0  0  0
  7  8  1  0  0  0  0
  7  9  2  0  0  0  0
  9 10  1  0  0  0  0
  9 11  1  0  0  0  0
 11 12  1  0  0  0  0
 11 13  1  0  0  0  0
 11 14  1  0  0  0  0
 14 15  1  0  0  0  0
 14 16  1  0  0  0  0
 14 17  1  0  0  0  0
M  END
> <VConfSearch Rank>
502

> <Conf_Id>
35

> <Delta U+W>
-0.102

> <U+W>
-49.529

> <U>
13.666

> <W>
-63.195

> <W(PB)>
-65.299

> <W(SA)>
2.103

> <Valence>
15.226

> <Coulomb>
-1.822

> <VdW>
0.261

> <VdW6>
-4.165

> <VdW12>
4.426

> <Bond>
0.044

> <Angle>
2.229

> <Pdih>
12.953

> <Idih>
0.000

> <Tether>
0.000

$$$$
VeraChem MOL file


 17 16  0  0  0  0  0  0  0  0999 V2000     
   19.8853   16.3757   21.1190 C   0  0  0  0  0  0  0  0  0  0  0  0
   20.9638   15.8187   21.0584 O   0  5  0  0  0  0  0  0  0  0  0  0
   18.8797   15.8478   21.5513 O   0  0  0  0  0  0  0  0  0  0  0  0
   19.7889   17.8103   20.6165 C   0  0  0  0  0  0  0  0  0  0  0  0
   18.7469   18.0063   20.3367 H   0  0  0  0  0  0  0  0  0  0  0  0
   20.3860   17.8848   19.7003 H   0  0  0  0  0  0  0  0  0  0  0  0
   20.2777   18.8179   21.6398 C   0  0  0  0  0  0  0  0  0  0  0  0
   21.3465   18.7771   21.8429 H   0  0  0  0  0  0  0  0  0  0  0  0
   19.4817   19.6953   22.2637 C   0  0  0  0  0  0  0  0  0  0  0  0
   18.4159   19.7035   22.0376 H   0  0  0  0  0  0  0  0  0  0  0  0
   19.9018   20.7259   23.2980 C   0  0  0  0  0  0  0  0  0  0  0  0
   19.6128   21.7248   22.9441 H   0  0  0  0  0  0  0  0  0  0  0  0
   19.3264   20.5613   24.2191 H   0  0  0  0  0  0  0  0  0  0  0  0
   21.4081   20.7298   23.6402 C   0  0  0  0  0  0  0  0  0  0  0  0
   22.0138   20.9458   22.7504 H   0  0  0  0  0  0  0  0  0  0  0  0
   21.6299   21.4981   24.3923 H   0  0  0  0  0  0  0  0  0  0  0  0
   21.7218   19.7599   24.0480 H   0  0  0  0  0  0  0  0  0  0  0  0
  1  2  1  0  0  0  0
  1  3  2  0  0  0  0
  1  4  1  0  0  0  0
  4  5  1  0  0  0  0
  4  6  1  0  0  0  0
  4  7  1  0  0  0  0
  7  8  1  0  0  0  0
  7  9  2  0  0  0  0
  9 10  1  0  0  0  0
  9 11  1  0  0  0  0
 11 12  1  0  0  0  0
 11 13  1  0  0  0  0
 11 14  1  0  0  0  0
 14 15  1  0  0  0  0
 14 16  1  0  0  0  0
 14 17  1  0  0  0  0
M  END
> <VConfSearch Rank>
503

> <Conf_Id>
19

> <Delta U+W>
-0.496

> <U+W>
-49.923

> <U>
13.863

> <W>
-63.786

> <W(PB)>
-65.856

> <W(SA)>
2.070

> <Valence>
14.117

> <Coulomb>
-1.228

> <VdW>
0.974

> <VdW6>
-4.885

> <VdW12>
5.859

> <Bond>
0.094

> <Angle>
2.818

> <Pdih>
11.205

> <Idih>
0.000

> <Tether>
0.000

$$$$
VeraChem MOL file


 17 16  0  0  0  0  0  0  0  0999 V2000     
   17.6917   18.5546   23.7213 C   0  0  0  0  0  0  0  0  0  0  0  0
   17.3329   19.6775   24.0166 O   0  5  0  0  0  0  0  0  0  0  0  0
   16.9459   17.7075   23.2705 O   0  0  0  0  0  0  0  0  0  0  0  0
   19.1530   18.1830   23.9371 C   0  0  0  0  0  0  0  0  0  0  0  0
   19.1823   17.1710   24.3571 H   0  0  0  0  0  0  0  0  0  0  0  0
   19.5702   18.8572   24.6948 H   0  0  0  0  0  0  0  0  0  0  0  0
   19.9619   18.2388   22.6552 C   0  0  0  0  0  0  0  0  0  0  0  0
   19.7039   17.4873   21.9096 H   0  0  0  0  0  0  0  0  0  0  0  0
   20.9250   19.1332   22.4130 C   0  0  0  0  0  0  0  0  0  0  0  0
   21.1790   19.8876   23.1569 H   0  0  0  0  0  0  0  0  0  0  0  0
   21.7284   19.1888   21.1329 C   0  0  0  0  0  0  0  0  0  0  0  0
   22.7985   19.2639   21.3694 H   0  0  0  0  0  0  0  0  0  0  0  0
   21.5971   18.2629   20.5561 H   0  0  0  0  0  0  0  0  0  0  0  0
   21.3077   20.3925   20.2674 C   0  0  0  0  0  0  0  0  0  0  0  0
   21.4651   21.3362   20.8059 H   0  0  0  0  0  0  0  0  0  0  0  0
   21.8935   20.4278   19.3396 H   0  0  0  0  0  0  0  0  0  0  0  0
   20.2454   20.3261   19.9975 H   0  0  0  0  0  0  0  0  0  0  0  0
  1  2  1  0  0  0  0
  1  3  2  0  0  0  0
  1  4  1  0  0  0  0
  4  5  1  0  0  0  0
  4  6  1  0  0  0  0
  4  7  1  0  0  0  0
  7  8  1  0  0  0  0
  7  9  2  0  0  0  0
  9 10  1  0  0  0  0
  9 11  1  0  0  0  0
 11 12  1  0  0  0  0
 11 13  1  0  0  0  0
 11 14  1  0  0  0  0
 14 15  1  0  0  0  0
 14 16  1  0  0  0  0
 14 17  1  0  0  0  0
M  END
> <VConfSearch Rank>
504

> <Conf_Id>
7

> <Delta U+W>
-0.041

> <U+W>
-49.468

> <U>
14.121

> <W>
-63.589

> <W(PB)>
-65.660

> <W(SA)>
2.071

> <Valence>
15.230

> <Coulomb>
-1.333

> <VdW>
0.224

> <VdW6>
-4.212

> <VdW12>
4.436

> <Bond>
0.044

> <Angle>
2.230

> <Pdih>
12.956

> <Idih>
0.000

> <Tether>
0.000

$$$$
VeraChem MOL file


 17 16  0  0  0  0  0  0  0  0999 V2000     
   19.2598   17.4958   20.3395 C   0  0  0  0  0  0  0  0  0  0  0  0
   18.0625   17.4978   20.5482 O   0  5  0  0  0  0  0  0  0  0  0  0
   19.9342   16.4852   20.3098 O   0  0  0  0  0  0  0  0  0  0  0  0
   19.9483   18.8308   20.0730 C   0  0  0  0  0  0  0  0  0  0  0  0
   19.2284   19.4858   19.5685 H   0  0  0  0  0  0  0  0  0  0  0  0
   20.7536   18.6548   19.3502 H   0  0  0  0  0  0  0  0  0  0  0  0
   20.5087   19.5375   21.2991 C   0  0  0  0  0  0  0  0  0  0  0  0
   20.9959   20.4882   21.0865 H   0  0  0  0  0  0  0  0  0  0  0  0
   20.4454   19.0940   22.5602 C   0  0  0  0  0  0  0  0  0  0  0  0
   19.9631   18.1471   22.8003 H   0  0  0  0  0  0  0  0  0  0  0  0
   21.0211   19.8360   23.7460 C   0  0  0  0  0  0  0  0  0  0  0  0
   21.6149   19.1468   24.3615 H   0  0  0  0  0  0  0  0  0  0  0  0
   21.7051   20.6274   23.4100 H   0  0  0  0  0  0  0  0  0  0  0  0
   19.9034   20.4588   24.6050 C   0  0  0  0  0  0  0  0  0  0  0  0
   20.3267   20.9947   25.4645 H   0  0  0  0  0  0  0  0  0  0  0  0
   19.3112   21.1720   24.0165 H   0  0  0  0  0  0  0  0  0  0  0  0
   19.2252   19.6843   24.9865 H   0  0  0  0  0  0  0  0  0  0  0  0
  1  2  1  0  0  0  0
  1  3  2  0  0  0  0
  1  4  1  0  0  0  0
  4  5  1  0  0  0  0
  4  6  1  0  0  0  0
  4  7  1  0  0  0  0
  7  8  1  0  0  0  0
  7  9  2  0  0  0  0
  9 10  1  0  0  0  0
  9 11  1  0  0  0  0
 11 12  1  0  0  0  0
 11 13  1  0  0  0  0
 11 14  1  0  0  0  0
 14 15  1  0  0  0  0
 14 16  1  0  0  0  0
 14 17  1  0  0  0  0
M  END
> <VConfSearch Rank>
505

> <Conf_Id>
39

> <Delta U+W>
-0.422

> <U+W>
-49.849

> <U>
14.465

> <W>
-64.314

> <W(PB)>
-66.406

> <W(SA)>
2.093

> <Valence>
14.072

> <Coulomb>
-0.199

> <VdW>
0.592

> <VdW6>
-5.019

> <VdW12>
5.611

> <Bond>
0.085

> <Angle>
2.748

> <Pdih>
11.238

> <Idih>
0.001

> <Tether>
0.000

$$$$
VeraChem MOL file


 17 16  0  0  0  0  0  0  0  0999 V2000     
   21.8213   20.4761   19.7305 C   0  0  0  0  0  0  0  0  0  0  0  0
   21.2758   21.3117   19.0369 O   0  5  0  0  0  0  0  0  0  0  0  0
   22.5531   19.6113   19.2906 O   0  0  0  0  0  0  0  0  0  0  0  0
   21.5773   20.5201   21.2333 C   0  0  0  0  0  0  0  0  0  0  0  0
   21.5920   21.5710   21.5443 H   0  0  0  0  0  0  0  0  0  0  0  0
   22.4197   20.0261   21.7322 H   0  0  0  0  0  0  0  0  0  0  0  0
   20.2603   19.8788   21.6269 C   0  0  0  0  0  0  0  0  0  0  0  0
   19.3677   20.4109   21.2994 H   0  0  0  0  0  0  0  0  0  0  0  0
   20.1566   18.7424   22.3227 C   0  0  0  0  0  0  0  0  0  0  0  0
   21.0496   18.2093   22.6474 H   0  0  0  0  0  0  0  0  0  0  0  0
   18.8425   18.1024   22.7111 C   0  0  0  0  0  0  0  0  0  0  0  0
   18.0154   18.5451   22.1391 H   0  0  0  0  0  0  0  0  0  0  0  0
   18.8624   17.0332   22.4602 H   0  0  0  0  0  0  0  0  0  0  0  0
   18.5682   18.2714   24.2182 C   0  0  0  0  0  0  0  0  0  0  0  0
   18.5183   19.3344   24.4886 H   0  0  0  0  0  0  0  0  0  0  0  0
   17.6138   17.8045   24.4941 H   0  0  0  0  0  0  0  0  0  0  0  0
   19.3616   17.8034   24.8156 H   0  0  0  0  0  0  0  0  0  0  0  0
  1  2  1  0  0  0  0
  1  3  2  0  0  0  0
  1  4  1  0  0  0  0
  4  5  1  0  0  0  0
  4  6  1  0  0  0  0
  4  7  1  0  0  0  0
  7  8  1  0  0  0  0
  7  9  2  0  0  0  0
  9 10  1  0  0  0  0
  9 11  1  0  0  0  0
 11 12  1  0  0  0  0
 11 13  1  0  0  0  0
 11 14  1  0  0  0  0
 14 15  1  0  0  0  0
 14 16  1  0  0  0  0
 14 17  1  0  0  0  0
M  END
> <VConfSearch Rank>
506

> <Conf_Id>
38

> <Delta U+W>
0.000

> <U+W>
-49.427

> <U>
13.666

> <W>
-63.093

> <W(PB)>
-65.225

> <W(SA)>
2.132

> <Valence>
15.226

> <Coulomb>
-1.822

> <VdW>
0.261

> <VdW6>
-4.165

> <VdW12>
4.426

> <Bond>
0.044

> <Angle>
2.229

> <Pdih>
12.953

> <Idih>
0.000

> <Tether>
0.000

$$$$
VeraChem MOL file


 17 16  0  0  0  0  0  0  0  0999 V2000     
   17.6705   17.3137   21.5018 C   0  0  0  0  0  0  0  0  0  0  0  0
   17.9769   16.1870   21.8389 O   0  5  0  0  0  0  0  0  0  0  0  0
   17.0042   17.5625   20.5164 O   0  0  0  0  0  0  0  0  0  0  0  0
   18.1416   18.4784   22.3627 C   0  0  0  0  0  0  0  0  0  0  0  0
   18.3331   18.1016   23.3746 H   0  0  0  0  0  0  0  0  0  0  0  0
   17.3153   19.1947   22.4384 H   0  0  0  0  0  0  0  0  0  0  0  0
   19.3716   19.1603   21.7946 C   0  0  0  0  0  0  0  0  0  0  0  0
   19.2151   19.6988   20.8604 H   0  0  0  0  0  0  0  0  0  0  0  0
   20.5800   19.1263   22.3647 C   0  0  0  0  0  0  0  0  0  0  0  0
   20.7365   18.5850   23.2972 H   0  0  0  0  0  0  0  0  0  0  0  0
   21.8063   19.8036   21.7947 C   0  0  0  0  0  0  0  0  0  0  0  0
   22.6490   19.0991   21.7872 H   0  0  0  0  0  0  0  0  0  0  0  0
   21.6323   20.0983   20.7506 H   0  0  0  0  0  0  0  0  0  0  0  0
   22.1850   21.0489   22.6198 C   0  0  0  0  0  0  0  0  0  0  0  0
   22.4021   20.7775   23.6613 H   0  0  0  0  0  0  0  0  0  0  0  0
   23.0758   21.5356   22.2019 H   0  0  0  0  0  0  0  0  0  0  0  0
   21.3659   21.7801   22.6204 H   0  0  0  0  0  0  0  0  0  0  0  0
  1  2  1  0  0  0  0
  1  3  2  0  0  0  0
  1  4  1  0  0  0  0
  4  5  1  0  0  0  0
  4  6  1  0  0  0  0
  4  7  1  0  0  0  0
  7  8  1  0  0  0  0
  7  9  2  0  0  0  0
  9 10  1  0  0  0  0
  9 11  1  0  0  0  0
 11 12  1  0  0  0  0
 11 13  1  0  0  0  0
 11 14  1  0  0  0  0
 14 15  1  0  0  0  0
 14 16  1  0  0  0  0
 14 17  1  0  0  0  0
M  END
> <VConfSearch Rank>
507

> <Conf_Id>
35

> <Delta U+W>
-0.102

> <U+W>
-49.529

> <U>
13.666

> <W>
-63.195

> <W(PB)>
-65.299

> <W(SA)>
2.103

> <Valence>
15.226

> <Coulomb>
-1.822

> <VdW>
0.261

> <VdW6>
-4.165

> <VdW12>
4.426

> <Bond>
0.044

> <Angle>
2.229

> <Pdih>
12.953

> <Idih>
0.000

> <Tether>
0.000

$$$$
VeraChem MOL file


 17 16  0  0  0  0  0  0  0  0999 V2000     
   19.0516   16.7646   23.5764 C   0  0  0  0  0  0  0  0  0  0  0  0
   17.8819   16.6480   23.2680 O   0  5  0  0  0  0  0  0  0  0  0  0
   19.8327   15.8344   23.6138 O   0  0  0  0  0  0  0  0  0  0  0  0
   19.5621   18.1514   23.9450 C   0  0  0  0  0  0  0  0  0  0  0  0
   20.4448   18.0331   24.5849 H   0  0  0  0  0  0  0  0  0  0  0  0
   18.7911   18.6420   24.5503 H   0  0  0  0  0  0  0  0  0  0  0  0
   19.8816   18.9954   22.7256 C   0  0  0  0  0  0  0  0  0  0  0  0
   19.0154   19.2820   22.1318 H   0  0  0  0  0  0  0  0  0  0  0  0
   21.1199   19.3686   22.3789 C   0  0  0  0  0  0  0  0  0  0  0  0
   21.9630   19.0589   22.9956 H   0  0  0  0  0  0  0  0  0  0  0  0
   21.5112   20.2070   21.1737 C   0  0  0  0  0  0  0  0  0  0  0  0
   22.0551   21.0965   21.5194 H   0  0  0  0  0  0  0  0  0  0  0  0
   22.2283   19.6412   20.5637 H   0  0  0  0  0  0  0  0  0  0  0  0
   20.3332   20.6535   20.2798 C   0  0  0  0  0  0  0  0  0  0  0  0
   19.6211   21.2692   20.8448 H   0  0  0  0  0  0  0  0  0  0  0  0
   20.6969   21.2512   19.4340 H   0  0  0  0  0  0  0  0  0  0  0  0
   19.7971   19.7862   19.8726 H   0  0  0  0  0  0  0  0  0  0  0  0
  1  2  1  0  0  0  0
  1  3  2  0  0  0  0
  1  4  1  0  0  0  0
  4  5  1  0  0  0  0
  4  6  1  0  0  0  0
  4  7  1  0  0  0  0
  7  8  1  0  0  0  0
  7  9  2  0  0  0  0
  9 10  1  0  0  0  0
  9 11  1  0  0  0  0
 11 12  1  0  0  0  0
 11 13  1  0  0  0  0
 11 14  1  0  0  0  0
 14 15  1  0  0  0  0
 14 16  1  0  0  0  0
 14 17  1  0  0  0  0
M  END
> <VConfSearch Rank>
508

> <Conf_Id>
19

> <Delta U+W>
-0.496

> <U+W>
-49.923

> <U>
13.863

> <W>
-63.786

> <W(PB)>
-65.856

> <W(SA)>
2.070

> <Valence>
14.117

> <Coulomb>
-1.228

> <VdW>
0.974

> <VdW6>
-4.885

> <VdW12>
5.859

> <Bond>
0.094

> <Angle>
2.818

> <Pdih>
11.205

> <Idih>
0.000

> <Tether>
0.000

$$$$
VeraChem MOL file


 17 16  0  0  0  0  0  0  0  0999 V2000     
   19.9181   21.6724   20.8848 C   0  0  0  0  0  0  0  0  0  0  0  0
   20.3113   22.4365   21.7441 O   0  5  0  0  0  0  0  0  0  0  0  0
   20.2756   21.7247   19.7244 O   0  0  0  0  0  0  0  0  0  0  0  0
   18.9146   20.5966   21.2790 C   0  0  0  0  0  0  0  0  0  0  0  0
   18.1592   20.5373   20.4869 H   0  0  0  0  0  0  0  0  0  0  0  0
   18.3995   20.9250   22.1898 H   0  0  0  0  0  0  0  0  0  0  0  0
   19.5651   19.2413   21.4809 C   0  0  0  0  0  0  0  0  0  0  0  0
   19.9649   18.7785   20.5791 H   0  0  0  0  0  0  0  0  0  0  0  0
   19.6693   18.6267   22.6631 C   0  0  0  0  0  0  0  0  0  0  0  0
   19.2739   19.0924   23.5652 H   0  0  0  0  0  0  0  0  0  0  0  0
   20.3210   17.2766   22.8627 C   0  0  0  0  0  0  0  0  0  0  0  0
   19.6659   16.6340   23.4664 H   0  0  0  0  0  0  0  0  0  0  0  0
   20.4580   16.7695   21.8976 H   0  0  0  0  0  0  0  0  0  0  0  0
   21.6869   17.4195   23.5619 C   0  0  0  0  0  0  0  0  0  0  0  0
   21.5749   17.8892   24.5479 H   0  0  0  0  0  0  0  0  0  0  0  0
   22.1555   16.4370   23.7038 H   0  0  0  0  0  0  0  0  0  0  0  0
   22.3680   18.0388   22.9635 H   0  0  0  0  0  0  0  0  0  0  0  0
  1  2  1  0  0  0  0
  1  3  2  0  0  0  0
  1  4  1  0  0  0  0
  4  5  1  0  0  0  0
  4  6  1  0  0  0  0
  4  7  1  0  0  0  0
  7  8  1  0  0  0  0
  7  9  2  0  0  0  0
  9 10  1  0  0  0  0
  9 11  1  0  0  0  0
 11 12  1  0  0  0  0
 11 13  1  0  0  0  0
 11 14  1  0  0  0  0
 14 15  1  0  0  0  0
 14 16  1  0  0  0  0
 14 17  1  0  0  0  0
M  END
> <VConfSearch Rank>
509

> <Conf_Id>
7

> <Delta U+W>
-0.041

> <U+W>
-49.468

> <U>
14.121

> <W>
-63.589

> <W(PB)>
-65.660

> <W(SA)>
2.071

> <Valence>
15.230

> <Coulomb>
-1.333

> <VdW>
0.224

> <VdW6>
-4.212

> <VdW12>
4.436

> <Bond>
0.044

> <Angle>
2.230

> <Pdih>
12.956

> <Idih>
0.000

> <Tether>
0.000

$$$$
VeraChem MOL file


 17 16  0  0  0  0  0  0  0  0999 V2000     
   17.9038   17.7418   21.6939 C   0  0  0  0  0  0  0  0  0  0  0  0
   17.3025   17.8065   22.7480 O   0  5  0  0  0  0  0  0  0  0  0  0
   18.1951   16.6944   21.1504 O   0  0  0  0  0  0  0  0  0  0  0  0
   18.2894   19.0454   21.0015 C   0  0  0  0  0  0  0  0  0  0  0  0
   17.5209   19.7911   21.2365 H   0  0  0  0  0  0  0  0  0  0  0  0
   18.2292   18.8813   19.9193 H   0  0  0  0  0  0  0  0  0  0  0  0
   19.6621   19.5978   21.3582 C   0  0  0  0  0  0  0  0  0  0  0  0
   19.9173   20.5285   20.8530 H   0  0  0  0  0  0  0  0  0  0  0  0
   20.5346   19.0469   22.2104 C   0  0  0  0  0  0  0  0  0  0  0  0
   20.3040   18.1173   22.7294 H   0  0  0  0  0  0  0  0  0  0  0  0
   21.8902   19.6370   22.5298 C   0  0  0  0  0  0  0  0  0  0  0  0
   22.6595   18.8558   22.4626 H   0  0  0  0  0  0  0  0  0  0  0  0
   22.1582   20.4072   21.7934 H   0  0  0  0  0  0  0  0  0  0  0  0
   21.9067   20.2540   23.9419 C   0  0  0  0  0  0  0  0  0  0  0  0
   22.8929   20.6794   24.1688 H   0  0  0  0  0  0  0  0  0  0  0  0
   21.1619   21.0565   24.0253 H   0  0  0  0  0  0  0  0  0  0  0  0
   21.6791   19.4961   24.7029 H   0  0  0  0  0  0  0  0  0  0  0  0
  1  2  1  0  0  0  0
  1  3  2  0  0  0  0
  1  4  1  0  0  0  0
  4  5  1  0  0  0  0
  4  6  1  0  0  0  0
  4  7  1  0  0  0  0
  7  8  1  0  0  0  0
  7  9  2  0  0  0  0
  9 10  1  0  0  0  0
  9 11  1  0  0  0  0
 11 12  1  0  0  0  0
 11 13  1  0  0  0  0
 11 14  1  0  0  0  0
 14 15  1  0  0  0  0
 14 16  1  0  0  0  0
 14 17  1  0  0  0  0
M  END
> <VConfSearch Rank>
510

> <Conf_Id>
39

> <Delta U+W>
-0.422

> <U+W>
-49.849

> <U>
14.465

> <W>
-64.314

> <W(PB)>
-66.406

> <W(SA)>
2.093

> <Valence>
14.072

> <Coulomb>
-0.199

> <VdW>
0.592

> <VdW6>
-5.019

> <VdW12>
5.611

> <Bond>
0.085

> <Angle>
2.748

> <Pdih>
11.238

> <Idih>
0.001

> <Tether>
0.000

$$$$
VeraChem MOL file


 17 16  0  0  0  0  0  0  0  0999 V2000     
   17.4594   19.3236   23.8355 C   0  0  0  0  0  0  0  0  0  0  0  0
   17.2078   20.3628   24.4133 O   0  5  0  0  0  0  0  0  0  0  0  0
   17.2815   18.2242   24.3218 O   0  0  0  0  0  0  0  0  0  0  0  0
   18.0232   19.4059   22.4230 C   0  0  0  0  0  0  0  0  0  0  0  0
   17.4846   20.2000   21.8931 H   0  0  0  0  0  0  0  0  0  0  0  0
   17.7959   18.4650   21.9076 H   0  0  0  0  0  0  0  0  0  0  0  0
   19.5135   19.6878   22.4080 C   0  0  0  0  0  0  0  0  0  0  0  0
   19.8031   20.6778   22.7590 H   0  0  0  0  0  0  0  0  0  0  0  0
   20.4394   18.8128   22.0039 C   0  0  0  0  0  0  0  0  0  0  0  0
   20.1494   17.8220   21.6558 H   0  0  0  0  0  0  0  0  0  0  0  0
   21.9253   19.0944   21.9931 C   0  0  0  0  0  0  0  0  0  0  0  0
   22.1510   19.9906   22.5873 H   0  0  0  0  0  0  0  0  0  0  0  0
   22.4640   18.2605   22.4633 H   0  0  0  0  0  0  0  0  0  0  0  0
   22.4410   19.2931   20.5545 C   0  0  0  0  0  0  0  0  0  0  0  0
   21.9342   20.1392   20.0720 H   0  0  0  0  0  0  0  0  0  0  0  0
   23.5198   19.4964   20.5531 H   0  0  0  0  0  0  0  0  0  0  0  0
   22.2626   18.3961   19.9470 H   0  0  0  0  0  0  0  0  0  0  0  0
  1  2  1  0  0  0  0
  1  3  2  0  0  0  0
  1  4  1  0  0  0  0
  4  5  1  0  0  0  0
  4  6  1  0  0  0  0
  4  7  1  0  0  0  0
  7  8  1  0  0  0  0
  7  9  2  0  0  0  0
  9 10  1  0  0  0  0
  9 11  1  0  0  0  0
 11 12  1  0  0  0  0
 11 13  1  0  0  0  0
 11 14  1  0  0  0  0
 14 15  1  0  0  0  0
 14 16  1  0  0  0  0
 14 17  1  0  0  0  0
M  END
> <VConfSearch Rank>
511

> <Conf_Id>
38

> <Delta U+W>
0.000

> <U+W>
-49.427

> <U>
13.666

> <W>
-63.093

> <W(PB)>
-65.225

> <W(SA)>
2.132

> <Valence>
15.226

> <Coulomb>
-1.822

> <VdW>
0.261

> <VdW6>
-4.165

> <VdW12>
4.426

> <Bond>
0.044

> <Angle>
2.229

> <Pdih>
12.953

> <Idih>
0.000

> <Tether>
0.000

$$$$
VeraChem MOL file


 17 16  0  0  0  0  0  0  0  0999 V2000     
   18.5819   21.0086   24.2785 C   0  0  0  0  0  0  0  0  0  0  0  0
   17.9848   20.2695   25.0361 O   0  5  0  0  0  0  0  0  0  0  0  0
   18.1512   22.0835   23.9097 O   0  0  0  0  0  0  0  0  0  0  0  0
   19.9469   20.5682   23.7662 C   0  0  0  0  0  0  0  0  0  0  0  0
   20.3639   19.8459   24.4783 H   0  0  0  0  0  0  0  0  0  0  0  0
   20.6063   21.4438   23.7744 H   0  0  0  0  0  0  0  0  0  0  0  0
   19.8810   19.9790   22.3701 C   0  0  0  0  0  0  0  0  0  0  0  0
   19.6280   20.6844   21.5791 H   0  0  0  0  0  0  0  0  0  0  0  0
   20.1069   18.6927   22.0862 C   0  0  0  0  0  0  0  0  0  0  0  0
   20.3567   17.9872   22.8780 H   0  0  0  0  0  0  0  0  0  0  0  0
   20.0368   18.1061   20.6939 C   0  0  0  0  0  0  0  0  0  0  0  0
   19.4313   17.1898   20.7078 H   0  0  0  0  0  0  0  0  0  0  0  0
   19.5373   18.8038   20.0076 H   0  0  0  0  0  0  0  0  0  0  0  0
   21.4450   17.7834   20.1574 C   0  0  0  0  0  0  0  0  0  0  0  0
   21.9540   17.0572   20.8048 H   0  0  0  0  0  0  0  0  0  0  0  0
   21.3877   17.3575   19.1472 H   0  0  0  0  0  0  0  0  0  0  0  0
   22.0616   18.6906   20.1101 H   0  0  0  0  0  0  0  0  0  0  0  0
  1  2  1  0  0  0  0
  1  3  2  0  0  0  0
  1  4  1  0  0  0  0
  4  5  1  0  0  0  0
  4  6  1  0  0  0  0
  4  7  1  0  0  0  0
  7  8  1  0  0  0  0
  7  9  2  0  0  0  0
  9 10  1  0  0  0  0
  9 11  1  0  0  0  0
 11 12  1  0  0  0  0
 11 13  1  0  0  0  0
 11 14  1  0  0  0  0
 14 15  1  0  0  0  0
 14 16  1  0  0  0  0
 14 17  1  0  0  0  0
M  END
> <VConfSearch Rank>
512

> <Conf_Id>
35

> <Delta U+W>
-0.102

> <U+W>
-49.529

> <U>
13.666

> <W>
-63.195

> <W(PB)>
-65.299

> <W(SA)>
2.103

> <Valence>
15.226

> <Coulomb>
-1.822

> <VdW>
0.261

> <VdW6>
-4.165

> <VdW12>
4.426

> <Bond>
0.044

> <Angle>
2.229

> <Pdih>
12.953

> <Idih>
0.000

> <Tether>
0.000

$$$$
VeraChem MOL file


 17 16  0  0  0  0  0  0  0  0999 V2000     
   19.5545   21.2705   24.0860 C   0  0  0  0  0  0  0  0  0  0  0  0
   19.0497   20.8064   25.0894 O   0  5  0  0  0  0  0  0  0  0  0  0
   20.4185   22.1249   24.1020 O   0  0  0  0  0  0  0  0  0  0  0  0
   19.0698   20.7587   22.7359 C   0  0  0  0  0  0  0  0  0  0  0  0
   19.2742   21.5298   21.9834 H   0  0  0  0  0  0  0  0  0  0  0  0
   17.9809   20.6464   22.7918 H   0  0  0  0  0  0  0  0  0  0  0  0
   19.7102   19.4383   22.3517 C   0  0  0  0  0  0  0  0  0  0  0  0
   19.4169   18.5934   22.9724 H   0  0  0  0  0  0  0  0  0  0  0  0
   20.5745   19.2937   21.3393 C   0  0  0  0  0  0  0  0  0  0  0  0
   20.8478   20.1633   20.7425 H   0  0  0  0  0  0  0  0  0  0  0  0
   21.2542   18.0068   20.9030 C   0  0  0  0  0  0  0  0  0  0  0  0
   21.0122   17.8152   19.8489 H   0  0  0  0  0  0  0  0  0  0  0  0
   22.3427   18.1504   20.9344 H   0  0  0  0  0  0  0  0  0  0  0  0
   20.8874   16.7601   21.7380 C   0  0  0  0  0  0  0  0  0  0  0  0
   19.8104   16.5536   21.6855 H   0  0  0  0  0  0  0  0  0  0  0  0
   21.4179   15.8755   21.3623 H   0  0  0  0  0  0  0  0  0  0  0  0
   21.1650   16.8961   22.7916 H   0  0  0  0  0  0  0  0  0  0  0  0
  1  2  1  0  0  0  0
  1  3  2  0  0  0  0
  1  4  1  0  0  0  0
  4  5  1  0  0  0  0
  4  6  1  0  0  0  0
  4  7  1  0  0  0  0
  7  8  1  0  0  0  0
  7  9  2  0  0  0  0
  9 10  1  0  0  0  0
  9 11  1  0  0  0  0
 11 12  1  0  0  0  0
 11 13  1  0  0  0  0
 11 14  1  0  0  0  0
 14 15  1  0  0  0  0
 14 16  1  0  0  0  0
 14 17  1  0  0  0  0
M  END
> <VConfSearch Rank>
513

> <Conf_Id>
19

> <Delta U+W>
-0.496

> <U+W>
-49.923

> <U>
13.863

> <W>
-63.786

> <W(PB)>
-65.856

> <W(SA)>
2.070

> <Valence>
14.117

> <Coulomb>
-1.228

> <VdW>
0.974

> <VdW6>
-4.885

> <VdW12>
5.859

> <Bond>
0.094

> <Angle>
2.818

> <Pdih>
11.205

> <Idih>
0.000

> <Tether>
0.000

$$$$
VeraChem MOL file


 17 16  0  0  0  0  0  0  0  0999 V2000     
   17.8640   19.5035   23.9911 C   0  0  0  0  0  0  0  0  0  0  0  0
   16.9656   18.9394   23.3982 O   0  5  0  0  0  0  0  0  0  0  0  0
   18.0692   19.3730   25.1818 O   0  0  0  0  0  0  0  0  0  0  0  0
   18.7771   20.4336   23.2030 C   0  0  0  0  0  0  0  0  0  0  0  0
   18.9519   21.3271   23.8134 H   0  0  0  0  0  0  0  0  0  0  0  0
   18.2413   20.7593   22.3033 H   0  0  0  0  0  0  0  0  0  0  0  0
   20.0987   19.7821   22.8429 C   0  0  0  0  0  0  0  0  0  0  0  0
   20.7575   19.5704   23.6846 H   0  0  0  0  0  0  0  0  0  0  0  0
   20.4656   19.4661   21.5972 C   0  0  0  0  0  0  0  0  0  0  0  0
   19.8043   19.6733   20.7565 H   0  0  0  0  0  0  0  0  0  0  0  0
   21.7827   18.8139   21.2405 C   0  0  0  0  0  0  0  0  0  0  0  0
   22.2501   19.3538   20.4060 H   0  0  0  0  0  0  0  0  0  0  0  0
   22.4822   18.8730   22.0857 H   0  0  0  0  0  0  0  0  0  0  0  0
   21.5806   17.3373   20.8483 C   0  0  0  0  0  0  0  0  0  0  0  0
   20.9148   17.2503   19.9797 H   0  0  0  0  0  0  0  0  0  0  0  0
   22.5395   16.8688   20.5910 H   0  0  0  0  0  0  0  0  0  0  0  0
   21.1363   16.7711   21.6777 H   0  0  0  0  0  0  0  0  0  0  0  0
  1  2  1  0  0  0  0
  1  3  2  0  0  0  0
  1  4  1  0  0  0  0
  4  5  1  0  0  0  0
  4  6  1  0  0  0  0
  4  7  1  0  0  0  0
  7  8  1  0  0  0  0
  7  9  2  0  0  0  0
  9 10  1  0  0  0  0
  9 11  1  0  0  0  0
 11 12  1  0  0  0  0
 11 13  1  0  0  0  0
 11 14  1  0  0  0  0
 14 15  1  0  0  0  0
 14 16  1  0  0  0  0
 14 17  1  0  0  0  0
M  END
> <VConfSearch Rank>
514

> <Conf_Id>
7

> <Delta U+W>
-0.041

> <U+W>
-49.468

> <U>
14.121

> <W>
-63.589

> <W(PB)>
-65.660

> <W(SA)>
2.071

> <Valence>
15.230

> <Coulomb>
-1.333

> <VdW>
0.224

> <VdW6>
-4.212

> <VdW12>
4.436

> <Bond>
0.044

> <Angle>
2.230

> <Pdih>
12.956

> <Idih>
0.000

> <Tether>
0.000

$$$$
VeraChem MOL file


 17 16  0  0  0  0  0  0  0  0999 V2000     
   22.2863   18.3379   20.8161 C   0  0  0  0  0  0  0  0  0  0  0  0
   22.0938   17.1389   20.8642 O   0  5  0  0  0  0  0  0  0  0  0  0
   23.3284   18.8645   21.1532 O   0  0  0  0  0  0  0  0  0  0  0  0
   21.1697   19.2272   20.2775 C   0  0  0  0  0  0  0  0  0  0  0  0
   20.6164   18.6536   19.5248 H   0  0  0  0  0  0  0  0  0  0  0  0
   21.6350   20.0610   19.7389 H   0  0  0  0  0  0  0  0  0  0  0  0
   20.2013   19.7695   21.3191 C   0  0  0  0  0  0  0  0  0  0  0  0
   19.4125   20.4017   20.9134 H   0  0  0  0  0  0  0  0  0  0  0  0
   20.2482   19.5328   22.6355 C   0  0  0  0  0  0  0  0  0  0  0  0
   21.0258   18.9035   23.0668 H   0  0  0  0  0  0  0  0  0  0  0  0
   19.2596   20.0987   23.6307 C   0  0  0  0  0  0  0  0  0  0  0  0
   19.7994   20.5332   24.4829 H   0  0  0  0  0  0  0  0  0  0  0  0
   18.6795   20.9137   23.1764 H   0  0  0  0  0  0  0  0  0  0  0  0
   18.2961   19.0070   24.1356 C   0  0  0  0  0  0  0  0  0  0  0  0
   17.5820   19.4228   24.8583 H   0  0  0  0  0  0  0  0  0  0  0  0
   17.7257   18.5750   23.3027 H   0  0  0  0  0  0  0  0  0  0  0  0
   18.8475   18.1960   24.6292 H   0  0  0  0  0  0  0  0  0  0  0  0
  1  2  1  0  0  0  0
  1  3  2  0  0  0  0
  1  4  1  0  0  0  0
  4  5  1  0  0  0  0
  4  6  1  0  0  0  0
  4  7  1  0  0  0  0
  7  8  1  0  0  0  0
  7  9  2  0  0  0  0
  9 10  1  0  0  0  0
  9 11  1  0  0  0  0
 11 12  1  0  0  0  0
 11 13  1  0  0  0  0
 11 14  1  0  0  0  0
 14 15  1  0  0  0  0
 14 16  1  0  0  0  0
 14 17  1  0  0  0  0
M  END
> <VConfSearch Rank>
515

> <Conf_Id>
39

> <Delta U+W>
-0.422

> <U+W>
-49.849

> <U>
14.465

> <W>
-64.314

> <W(PB)>
-66.406

> <W(SA)>
2.093

> <Valence>
14.072

> <Coulomb>
-0.199

> <VdW>
0.592

> <VdW6>
-5.019

> <VdW12>
5.611

> <Bond>
0.085

> <Angle>
2.748

> <Pdih>
11.238

> <Idih>
0.001

> <Tether>
0.000

$$$$
VeraChem MOL file


 17 16  0  0  0  0  0  0  0  0999 V2000     
   19.9119   19.7214   18.9785 C   0  0  0  0  0  0  0  0  0  0  0  0
   20.9561   19.6846   18.3578 O   0  5  0  0  0  0  0  0  0  0  0  0
   19.0194   20.5127   18.7458 O   0  0  0  0  0  0  0  0  0  0  0  0
   19.7106   18.7167   20.1052 C   0  0  0  0  0  0  0  0  0  0  0  0
   20.1019   17.7505   19.7663 H   0  0  0  0  0  0  0  0  0  0  0  0
   18.6329   18.5889   20.2626 H   0  0  0  0  0  0  0  0  0  0  0  0
   20.4014   19.1370   21.3885 C   0  0  0  0  0  0  0  0  0  0  0  0
   21.4904   19.1303   21.3542 H   0  0  0  0  0  0  0  0  0  0  0  0
   19.7593   19.4996   22.5032 C   0  0  0  0  0  0  0  0  0  0  0  0
   18.6703   19.5089   22.5359 H   0  0  0  0  0  0  0  0  0  0  0  0
   20.4497   19.9220   23.7807 C   0  0  0  0  0  0  0  0  0  0  0  0
   21.5113   20.1332   23.5922 H   0  0  0  0  0  0  0  0  0  0  0  0
   20.0039   20.8547   24.1521 H   0  0  0  0  0  0  0  0  0  0  0  0
   20.3311   18.8299   24.8616 C   0  0  0  0  0  0  0  0  0  0  0  0
   20.7936   17.8937   24.5223 H   0  0  0  0  0  0  0  0  0  0  0  0
   20.8333   19.1424   25.7864 H   0  0  0  0  0  0  0  0  0  0  0  0
   19.2786   18.6254   25.0980 H   0  0  0  0  0  0  0  0  0  0  0  0
  1  2  1  0  0  0  0
  1  3  2  0  0  0  0
  1  4  1  0  0  0  0
  4  5  1  0  0  0  0
  4  6  1  0  0  0  0
  4  7  1  0  0  0  0
  7  8  1  0  0  0  0
  7  9  2  0  0  0  0
  9 10  1  0  0  0  0
  9 11  1  0  0  0  0
 11 12  1  0  0  0  0
 11 13  1  0  0  0  0
 11 14  1  0  0  0  0
 14 15  1  0  0  0  0
 14 16  1  0  0  0  0
 14 17  1  0  0  0  0
M  END
> <VConfSearch Rank>
516

> <Conf_Id>
38

> <Delta U+W>
0.000

> <U+W>
-49.427

> <U>
13.666

> <W>
-63.093

> <W(PB)>
-65.225

> <W(SA)>
2.132

> <Valence>
15.226

> <Coulomb>
-1.822

> <VdW>
0.261

> <VdW6>
-4.165

> <VdW12>
4.426

> <Bond>
0.044

> <Angle>
2.229

> <Pdih>
12.953

> <Idih>
0.000

> <Tether>
0.000

$$$$
VeraChem MOL file


 17 16  0  0  0  0  0  0  0  0999 V2000     
   21.8722   21.8695   21.8672 C   0  0  0  0  0  0  0  0  0  0  0  0
   21.9240   22.2110   20.7021 O   0  5  0  0  0  0  0  0  0  0  0  0
   22.8102   21.9559   22.6351 O   0  0  0  0  0  0  0  0  0  0  0  0
   20.5598   21.3073   22.3974 C   0  0  0  0  0  0  0  0  0  0  0  0
   19.7462   21.6784   21.7626 H   0  0  0  0  0  0  0  0  0  0  0  0
   20.3987   21.7211   23.3996 H   0  0  0  0  0  0  0  0  0  0  0  0
   20.5576   19.7915   22.4533 C   0  0  0  0  0  0  0  0  0  0  0  0
   21.2332   19.3522   23.1867 H   0  0  0  0  0  0  0  0  0  0  0  0
   19.7998   19.0123   21.6757 C   0  0  0  0  0  0  0  0  0  0  0  0
   19.1268   19.4522   20.9403 H   0  0  0  0  0  0  0  0  0  0  0  0
   19.8018   17.5009   21.7301 C   0  0  0  0  0  0  0  0  0  0  0  0
   19.8935   17.0935   20.7141 H   0  0  0  0  0  0  0  0  0  0  0  0
   20.6714   17.1378   22.2951 H   0  0  0  0  0  0  0  0  0  0  0  0
   18.5112   16.9685   22.3825 C   0  0  0  0  0  0  0  0  0  0  0  0
   17.6261   17.2850   21.8152 H   0  0  0  0  0  0  0  0  0  0  0  0
   18.5181   15.8713   22.4186 H   0  0  0  0  0  0  0  0  0  0  0  0
   18.4107   17.3425   23.4100 H   0  0  0  0  0  0  0  0  0  0  0  0
  1  2  1  0  0  0  0
  1  3  2  0  0  0  0
  1  4  1  0  0  0  0
  4  5  1  0  0  0  0
  4  6  1  0  0  0  0
  4  7  1  0  0  0  0
  7  8  1  0  0  0  0
  7  9  2  0  0  0  0
  9 10  1  0  0  0  0
  9 11  1  0  0  0  0
 11 12  1  0  0  0  0
 11 13  1  0  0  0  0
 11 14  1  0  0  0  0
 14 15  1  0  0  0  0
 14 16  1  0  0  0  0
 14 17  1  0  0  0  0
M  END
> <VConfSearch Rank>
517

> <Conf_Id>
35

> <Delta U+W>
-0.102

> <U+W>
-49.529

> <U>
13.666

> <W>
-63.195

> <W(PB)>
-65.299

> <W(SA)>
2.103

> <Valence>
15.226

> <Coulomb>
-1.822

> <VdW>
0.261

> <VdW6>
-4.165

> <VdW12>
4.426

> <Bond>
0.044

> <Angle>
2.229

> <Pdih>
12.953

> <Idih>
0.000

> <Tether>
0.000

$$$$
VeraChem MOL file


 17 16  0  0  0  0  0  0  0  0999 V2000     
   19.5347   18.3066   19.4458 C   0  0  0  0  0  0  0  0  0  0  0  0
   20.5459   18.2148   18.7779 O   0  5  0  0  0  0  0  0  0  0  0  0
   18.6425   17.4816   19.4311 O   0  0  0  0  0  0  0  0  0  0  0  0
   19.3746   19.5275   20.3421 C   0  0  0  0  0  0  0  0  0  0  0  0
   18.3040   19.6841   20.5203 H   0  0  0  0  0  0  0  0  0  0  0  0
   19.7379   20.4002   19.7871 H   0  0  0  0  0  0  0  0  0  0  0  0
   20.1310   19.3906   21.6500 C   0  0  0  0  0  0  0  0  0  0  0  0
   21.2150   19.3902   21.5500 H   0  0  0  0  0  0  0  0  0  0  0  0
   19.5403   19.2723   22.8457 C   0  0  0  0  0  0  0  0  0  0  0  0
   18.4524   19.2723   22.9061 H   0  0  0  0  0  0  0  0  0  0  0  0
   20.2335   19.1283   24.1901 C   0  0  0  0  0  0  0  0  0  0  0  0
   19.9057   19.9433   24.8496 H   0  0  0  0  0  0  0  0  0  0  0  0
   19.8891   18.2028   24.6713 H   0  0  0  0  0  0  0  0  0  0  0  0
   21.7770   19.1193   24.1303 C   0  0  0  0  0  0  0  0  0  0  0  0
   22.1602   20.0553   23.7032 H   0  0  0  0  0  0  0  0  0  0  0  0
   22.2005   19.0112   25.1373 H   0  0  0  0  0  0  0  0  0  0  0  0
   22.1426   18.2828   23.5204 H   0  0  0  0  0  0  0  0  0  0  0  0
  1  2  1  0  0  0  0
  1  3  2  0  0  0  0
  1  4  1  0  0  0  0
  4  5  1  0  0  0  0
  4  6  1  0  0  0  0
  4  7  1  0  0  0  0
  7  8  1  0  0  0  0
  7  9  2  0  0  0  0
  9 10  1  0  0  0  0
  9 11  1  0  0  0  0
 11 12  1  0  0  0  0
 11 13  1  0  0  0  0
 11 14  1  0  0  0  0
 14 15  1  0  0  0  0
 14 16  1  0  0  0  0
 14 17  1  0  0  0  0
M  END
> <VConfSearch Rank>
518

> <Conf_Id>
19

> <Delta U+W>
-0.496

> <U+W>
-49.923

> <U>
13.863

> <W>
-63.786

> <W(PB)>
-65.856

> <W(SA)>
2.070

> <Valence>
14.117

> <Coulomb>
-1.228

> <VdW>
0.974

> <VdW6>
-4.885

> <VdW12>
5.859

> <Bond>
0.094

> <Angle>
2.818

> <Pdih>
11.205

> <Idih>
0.000

> <Tether>
0.000

$$$$
VeraChem MOL file


 17 16  0  0  0  0  0  0  0  0999 V2000     
   17.7094   18.0230   20.9706 C   0  0  0  0  0  0  0  0  0  0  0  0
   16.9633   18.9805   21.0281 O   0  5  0  0  0  0  0  0  0  0  0  0
   17.8544   17.3428   19.9739 O   0  0  0  0  0  0  0  0  0  0  0  0
   18.4988   17.6464   22.2176 C   0  0  0  0  0  0  0  0  0  0  0  0
   18.4757   16.5545   22.3111 H   0  0  0  0  0  0  0  0  0  0  0  0
   17.9759   18.0544   23.0910 H   0  0  0  0  0  0  0  0  0  0  0  0
   19.9339   18.1346   22.1660 C   0  0  0  0  0  0  0  0  0  0  0  0
   20.5618   17.6544   21.4161 H   0  0  0  0  0  0  0  0  0  0  0  0
   20.4319   19.0883   22.9589 C   0  0  0  0  0  0  0  0  0  0  0  0
   19.8023   19.5718   23.7051 H   0  0  0  0  0  0  0  0  0  0  0  0
   21.8626   19.5758   22.9038 C   0  0  0  0  0  0  0  0  0  0  0  0
   22.2843   19.6036   23.9177 H   0  0  0  0  0  0  0  0  0  0  0  0
   22.4836   18.8801   22.3228 H   0  0  0  0  0  0  0  0  0  0  0  0
   21.9448   20.9800   22.2743 C   0  0  0  0  0  0  0  0  0  0  0  0
   21.3633   21.7056   22.8580 H   0  0  0  0  0  0  0  0  0  0  0  0
   22.9851   21.3287   22.2364 H   0  0  0  0  0  0  0  0  0  0  0  0
   21.5506   20.9713   21.2495 H   0  0  0  0  0  0  0  0  0  0  0  0
  1  2  1  0  0  0  0
  1  3  2  0  0  0  0
  1  4  1  0  0  0  0
  4  5  1  0  0  0  0
  4  6  1  0  0  0  0
  4  7  1  0  0  0  0
  7  8  1  0  0  0  0
  7  9  2  0  0  0  0
  9 10  1  0  0  0  0
  9 11  1  0  0  0  0
 11 12  1  0  0  0  0
 11 13  1  0  0  0  0
 11 14  1  0  0  0  0
 14 15  1  0  0  0  0
 14 16  1  0  0  0  0
 14 17  1  0  0  0  0
M  END
> <VConfSearch Rank>
519

> <Conf_Id>
7

> <Delta U+W>
-0.041

> <U+W>
-49.468

> <U>
14.121

> <W>
-63.589

> <W(PB)>
-65.660

> <W(SA)>
2.071

> <Valence>
15.230

> <Coulomb>
-1.333

> <VdW>
0.224

> <VdW6>
-4.212

> <VdW12>
4.436

> <Bond>
0.044

> <Angle>
2.230

> <Pdih>
12.956

> <Idih>
0.000

> <Tether>
0.000

$$$$
VeraChem MOL file


 17 16  0  0  0  0  0  0  0  0999 V2000     
   18.1435   17.3558   22.3447 C   0  0  0  0  0  0  0  0  0  0  0  0
   18.1516   17.0638   23.5244 O   0  5  0  0  0  0  0  0  0  0  0  0
   18.2575   16.5405   21.4506 O   0  0  0  0  0  0  0  0  0  0  0  0
   17.9519   18.8209   21.9649 C   0  0  0  0  0  0  0  0  0  0  0  0
   17.3151   19.2853   22.7269 H   0  0  0  0  0  0  0  0  0  0  0  0
   17.3778   18.8535   21.0316 H   0  0  0  0  0  0  0  0  0  0  0  0
   19.2306   19.6311   21.8060 C   0  0  0  0  0  0  0  0  0  0  0  0
   19.0711   20.6740   21.5347 H   0  0  0  0  0  0  0  0  0  0  0  0
   20.4774   19.1735   21.9707 C   0  0  0  0  0  0  0  0  0  0  0  0
   20.6646   18.1354   22.2428 H   0  0  0  0  0  0  0  0  0  0  0  0
   21.7177   20.0221   21.7989 C   0  0  0  0  0  0  0  0  0  0  0  0
   22.4443   19.4927   21.1679 H   0  0  0  0  0  0  0  0  0  0  0  0
   21.4742   20.9596   21.2803 H   0  0  0  0  0  0  0  0  0  0  0  0
   22.3604   20.3454   23.1618 C   0  0  0  0  0  0  0  0  0  0  0  0
   23.2605   20.9600   23.0311 H   0  0  0  0  0  0  0  0  0  0  0  0
   21.6600   20.8982   23.8016 H   0  0  0  0  0  0  0  0  0  0  0  0
   22.6492   19.4252   23.6865 H   0  0  0  0  0  0  0  0  0  0  0  0
  1  2  1  0  0  0  0
  1  3  2  0  0  0  0
  1  4  1  0  0  0  0
  4  5  1  0  0  0  0
  4  6  1  0  0  0  0
  4  7  1  0  0  0  0
  7  8  1  0  0  0  0
  7  9  2  0  0  0  0
  9 10  1  0  0  0  0
  9 11  1  0  0  0  0
 11 12  1  0  0  0  0
 11 13  1  0  0  0  0
 11 14  1  0  0  0  0
 14 15  1  0  0  0  0
 14 16  1  0  0  0  0
 14 17  1  0  0  0  0
M  END
> <VConfSearch Rank>
520

> <Conf_Id>
39

> <Delta U+W>
-0.422

> <U+W>
-49.849

> <U>
14.465

> <W>
-64.314

> <W(PB)>
-66.406

> <W(SA)>
2.093

> <Valence>
14.072

> <Coulomb>
-0.199

> <VdW>
0.592

> <VdW6>
-5.019

> <VdW12>
5.611

> <Bond>
0.085

> <Angle>
2.748

> <Pdih>
11.238

> <Idih>
0.001

> <Tether>
0.000

$$$$
VeraChem MOL file


 17 16  0  0  0  0  0  0  0  0999 V2000     
   19.1582   22.1278   23.0885 C   0  0  0  0  0  0  0  0  0  0  0  0
   18.8491   22.2233   24.2599 O   0  5  0  0  0  0  0  0  0  0  0  0
   18.5563   22.6783   22.1877 O   0  0  0  0  0  0  0  0  0  0  0  0
   20.3694   21.2757   22.7328 C   0  0  0  0  0  0  0  0  0  0  0  0
   21.1468   21.4698   23.4808 H   0  0  0  0  0  0  0  0  0  0  0  0
   20.7598   21.6203   21.7676 H   0  0  0  0  0  0  0  0  0  0  0  0
   20.0454   19.7945   22.6907 C   0  0  0  0  0  0  0  0  0  0  0  0
   19.8036   19.3438   23.6527 H   0  0  0  0  0  0  0  0  0  0  0  0
   20.0425   19.0577   21.5756 C   0  0  0  0  0  0  0  0  0  0  0  0
   20.2814   19.5097   20.6135 H   0  0  0  0  0  0  0  0  0  0  0  0
   19.7155   17.5817   21.5350 C   0  0  0  0  0  0  0  0  0  0  0  0
   19.2431   17.2666   22.4756 H   0  0  0  0  0  0  0  0  0  0  0  0
   18.9882   17.3850   20.7357 H   0  0  0  0  0  0  0  0  0  0  0  0
   20.9837   16.7398   21.2942 C   0  0  0  0  0  0  0  0  0  0  0  0
   21.7165   16.9007   22.0959 H   0  0  0  0  0  0  0  0  0  0  0  0
   20.7400   15.6699   21.2651 H   0  0  0  0  0  0  0  0  0  0  0  0
   21.4563   17.0076   20.3401 H   0  0  0  0  0  0  0  0  0  0  0  0
  1  2  1  0  0  0  0
  1  3  2  0  0  0  0
  1  4  1  0  0  0  0
  4  5  1  0  0  0  0
  4  6  1  0  0  0  0
  4  7  1  0  0  0  0
  7  8  1  0  0  0  0
  7  9  2  0  0  0  0
  9 10  1  0  0  0  0
  9 11  1  0  0  0  0
 11 12  1  0  0  0  0
 11 13  1  0  0  0  0
 11 14  1  0  0  0  0
 14 15  1  0  0  0  0
 14 16  1  0  0  0  0
 14 17  1  0  0  0  0
M  END
> <VConfSearch Rank>
521

> <Conf_Id>
38

> <Delta U+W>
0.000

> <U+W>
-49.427

> <U>
13.666

> <W>
-63.093

> <W(PB)>
-65.225

> <W(SA)>
2.132

> <Valence>
15.226

> <Coulomb>
-1.822

> <VdW>
0.261

> <VdW6>
-4.165

> <VdW12>
4.426

> <Bond>
0.044

> <Angle>
2.229

> <Pdih>
12.953

> <Idih>
0.000

> <Tether>
0.000

$$$$
VeraChem MOL file


 17 16  0  0  0  0  0  0  0  0999 V2000     
   20.2711   16.2681   23.0973 C   0  0  0  0  0  0  0  0  0  0  0  0
   19.6848   15.5519   22.3098 O   0  5  0  0  0  0  0  0  0  0  0  0
   20.2628   16.0927   24.2999 O   0  0  0  0  0  0  0  0  0  0  0  0
   21.0645   17.4469   22.5491 C   0  0  0  0  0  0  0  0  0  0  0  0
   21.3245   17.2302   21.5060 H   0  0  0  0  0  0  0  0  0  0  0  0
   22.0054   17.5064   23.1083 H   0  0  0  0  0  0  0  0  0  0  0  0
   20.3090   18.7575   22.6601 C   0  0  0  0  0  0  0  0  0  0  0  0
   20.1547   19.1208   23.6757 H   0  0  0  0  0  0  0  0  0  0  0  0
   19.8457   19.4483   21.6140 C   0  0  0  0  0  0  0  0  0  0  0  0
   19.9976   19.0828   20.5989 H   0  0  0  0  0  0  0  0  0  0  0  0
   19.0891   20.7530   21.7267 C   0  0  0  0  0  0  0  0  0  0  0  0
   18.1827   20.7105   21.1078 H   0  0  0  0  0  0  0  0  0  0  0  0
   18.7571   20.9166   22.7612 H   0  0  0  0  0  0  0  0  0  0  0  0
   19.9627   21.9405   21.2775 C   0  0  0  0  0  0  0  0  0  0  0  0
   20.2778   21.8217   20.2325 H   0  0  0  0  0  0  0  0  0  0  0  0
   19.4081   22.8842   21.3609 H   0  0  0  0  0  0  0  0  0  0  0  0
   20.8640   22.0188   21.8998 H   0  0  0  0  0  0  0  0  0  0  0  0
  1  2  1  0  0  0  0
  1  3  2  0  0  0  0
  1  4  1  0  0  0  0
  4  5  1  0  0  0  0
  4  6  1  0  0  0  0
  4  7  1  0  0  0  0
  7  8  1  0  0  0  0
  7  9  2  0  0  0  0
  9 10  1  0  0  0  0
  9 11  1  0  0  0  0
 11 12  1  0  0  0  0
 11 13  1  0  0  0  0
 11 14  1  0  0  0  0
 14 15  1  0  0  0  0
 14 16  1  0  0  0  0
 14 17  1  0  0  0  0
M  END
> <VConfSearch Rank>
522

> <Conf_Id>
35

> <Delta U+W>
-0.102

> <U+W>
-49.529

> <U>
13.666

> <W>
-63.195

> <W(PB)>
-65.299

> <W(SA)>
2.103

> <Valence>
15.226

> <Coulomb>
-1.822

> <VdW>
0.261

> <VdW6>
-4.165

> <VdW12>
4.426

> <Bond>
0.044

> <Angle>
2.229

> <Pdih>
12.953

> <Idih>
0.000

> <Tether>
0.000

$$$$
VeraChem MOL file


 17 16  0  0  0  0  0  0  0  0999 V2000     
   22.1923   19.9620   20.1830 C   0  0  0  0  0  0  0  0  0  0  0  0
   23.3144   19.6740   20.5506 O   0  5  0  0  0  0  0  0  0  0  0  0
   21.7842   19.7680   19.0549 O   0  0  0  0  0  0  0  0  0  0  0  0
   21.2511   20.6100   21.1900 C   0  0  0  0  0  0  0  0  0  0  0  0
   20.4949   21.1788   20.6358 H   0  0  0  0  0  0  0  0  0  0  0  0
   21.8320   21.3334   21.7738 H   0  0  0  0  0  0  0  0  0  0  0  0
   20.6026   19.5965   22.1139 C   0  0  0  0  0  0  0  0  0  0  0  0
   21.2874   19.1090   22.8058 H   0  0  0  0  0  0  0  0  0  0  0  0
   19.2970   19.3000   22.0991 C   0  0  0  0  0  0  0  0  0  0  0  0
   18.6430   19.8054   21.3892 H   0  0  0  0  0  0  0  0  0  0  0  0
   18.5839   18.2968   22.9899 C   0  0  0  0  0  0  0  0  0  0  0  0
   17.7824   18.8118   23.5367 H   0  0  0  0  0  0  0  0  0  0  0  0
   18.0794   17.5540   22.3573 H   0  0  0  0  0  0  0  0  0  0  0  0
   19.4914   17.5623   24.0013 C   0  0  0  0  0  0  0  0  0  0  0  0
   19.9718   18.2720   24.6875 H   0  0  0  0  0  0  0  0  0  0  0  0
   18.9042   16.8573   24.6040 H   0  0  0  0  0  0  0  0  0  0  0  0
   20.2750   16.9919   23.4854 H   0  0  0  0  0  0  0  0  0  0  0  0
  1  2  1  0  0  0  0
  1  3  2  0  0  0  0
  1  4  1  0  0  0  0
  4  5  1  0  0  0  0
  4  6  1  0  0  0  0
  4  7  1  0  0  0  0
  7  8  1  0  0  0  0
  7  9  2  0  0  0  0
  9 10  1  0  0  0  0
  9 11  1  0  0  0  0
 11 12  1  0  0  0  0
 11 13  1  0  0  0  0
 11 14  1  0  0  0  0
 14 15  1  0  0  0  0
 14 16  1  0  0  0  0
 14 17  1  0  0  0  0
M  END
> <VConfSearch Rank>
523

> <Conf_Id>
19

> <Delta U+W>
-0.496

> <U+W>
-49.923

> <U>
13.863

> <W>
-63.786

> <W(PB)>
-65.856

> <W(SA)>
2.070

> <Valence>
14.117

> <Coulomb>
-1.228

> <VdW>
0.974

> <VdW6>
-4.885

> <VdW12>
5.859

> <Bond>
0.094

> <Angle>
2.818

> <Pdih>
11.205

> <Idih>
0.000

> <Tether>
0.000

$$$$
VeraChem MOL file


 17 16  0  0  0  0  0  0  0  0999 V2000     
   18.7353   21.6168   21.9255 C   0  0  0  0  0  0  0  0  0  0  0  0
   19.2033   22.2764   22.8325 O   0  5  0  0  0  0  0  0  0  0  0  0
   18.5958   22.0351   20.7930 O   0  0  0  0  0  0  0  0  0  0  0  0
   18.2889   20.1916   22.2243 C   0  0  0  0  0  0  0  0  0  0  0  0
   17.3356   20.0248   21.7097 H   0  0  0  0  0  0  0  0  0  0  0  0
   18.0911   20.1124   23.3001 H   0  0  0  0  0  0  0  0  0  0  0  0
   19.3077   19.1589   21.7814 C   0  0  0  0  0  0  0  0  0  0  0  0
   19.4433   19.0719   20.7038 H   0  0  0  0  0  0  0  0  0  0  0  0
   20.0159   18.3950   22.6188 C   0  0  0  0  0  0  0  0  0  0  0  0
   19.8836   18.4861   23.6964 H   0  0  0  0  0  0  0  0  0  0  0  0
   21.0334   17.3679   22.1751 C   0  0  0  0  0  0  0  0  0  0  0  0
   20.8577   16.4200   22.7016 H   0  0  0  0  0  0  0  0  0  0  0  0
   20.9246   17.1575   21.1022 H   0  0  0  0  0  0  0  0  0  0  0  0
   22.4687   17.8535   22.4563 C   0  0  0  0  0  0  0  0  0  0  0  0
   22.6178   18.0348   23.5288 H   0  0  0  0  0  0  0  0  0  0  0  0
   23.2030   17.1046   22.1320 H   0  0  0  0  0  0  0  0  0  0  0  0
   22.6758   18.7887   21.9195 H   0  0  0  0  0  0  0  0  0  0  0  0
  1  2  1  0  0  0  0
  1  3  2  0  0  0  0
  1  4  1  0  0  0  0
  4  5  1  0  0  0  0
  4  6  1  0  0  0  0
  4  7  1  0  0  0  0
  7  8  1  0  0  0  0
  7  9  2  0  0  0  0
  9 10  1  0  0  0  0
  9 11  1  0  0  0  0
 11 12  1  0  0  0  0
 11 13  1  0  0  0  0
 11 14  1  0  0  0  0
 14 15  1  0  0  0  0
 14 16  1  0  0  0  0
 14 17  1  0  0  0  0
M  END
> <VConfSearch Rank>
524

> <Conf_Id>
7

> <Delta U+W>
-0.041

> <U+W>
-49.468

> <U>
14.121

> <W>
-63.589

> <W(PB)>
-65.660

> <W(SA)>
2.071

> <Valence>
15.230

> <Coulomb>
-1.333

> <VdW>
0.224

> <VdW6>
-4.212

> <VdW12>
4.436

> <Bond>
0.044

> <Angle>
2.230

> <Pdih>
12.956

> <Idih>
0.000

> <Tether>
0.000

$$$$
VeraChem MOL file


 17 16  0  0  0  0  0  0  0  0999 V2000     
   18.8139   21.0232   23.9488 C   0  0  0  0  0  0  0  0  0  0  0  0
   18.7289   20.3521   24.9585 O   0  5  0  0  0  0  0  0  0  0  0  0
   17.8597   21.5479   23.4092 O   0  0  0  0  0  0  0  0  0  0  0  0
   20.1964   21.2419   23.3417 C   0  0  0  0  0  0  0  0  0  0  0  0
   20.9255   21.2514   24.1602 H   0  0  0  0  0  0  0  0  0  0  0  0
   20.2171   22.2484   22.9079 H   0  0  0  0  0  0  0  0  0  0  0  0
   20.6213   20.2249   22.2919 C   0  0  0  0  0  0  0  0  0  0  0  0
   21.6109   20.3996   21.8715 H   0  0  0  0  0  0  0  0  0  0  0  0
   19.8989   19.1799   21.8712 C   0  0  0  0  0  0  0  0  0  0  0  0
   18.9070   18.9820   22.2758 H   0  0  0  0  0  0  0  0  0  0  0  0
   20.3680   18.1971   20.8214 C   0  0  0  0  0  0  0  0  0  0  0  0
   19.5759   18.0455   20.0756 H   0  0  0  0  0  0  0  0  0  0  0  0
   21.2373   18.5964   20.2810 H   0  0  0  0  0  0  0  0  0  0  0  0
   20.7405   16.8436   21.4573 C   0  0  0  0  0  0  0  0  0  0  0  0
   21.0788   16.1341   20.6910 H   0  0  0  0  0  0  0  0  0  0  0  0
   21.5497   16.9665   22.1892 H   0  0  0  0  0  0  0  0  0  0  0  0
   19.8774   16.4026   21.9730 H   0  0  0  0  0  0  0  0  0  0  0  0
  1  2  1  0  0  0  0
  1  3  2  0  0  0  0
  1  4  1  0  0  0  0
  4  5  1  0  0  0  0
  4  6  1  0  0  0  0
  4  7  1  0  0  0  0
  7  8  1  0  0  0  0
  7  9  2  0  0  0  0
  9 10  1  0  0  0  0
  9 11  1  0  0  0  0
 11 12  1  0  0  0  0
 11 13  1  0  0  0  0
 11 14  1  0  0  0  0
 14 15  1  0  0  0  0
 14 16  1  0  0  0  0
 14 17  1  0  0  0  0
M  END
> <VConfSearch Rank>
525

> <Conf_Id>
39

> <Delta U+W>
-0.422

> <U+W>
-49.849

> <U>
14.465

> <W>
-64.314

> <W(PB)>
-66.406

> <W(SA)>
2.093

> <Valence>
14.072

> <Coulomb>
-0.199

> <VdW>
0.592

> <VdW6>
-5.019

> <VdW12>
5.611

> <Bond>
0.085

> <Angle>
2.748

> <Pdih>
11.238

> <Idih>
0.001

> <Tether>
0.000

$$$$
VeraChem MOL file


 17 16  0  0  0  0  0  0  0  0999 V2000     
   20.2845   17.6137   24.7944 C   0  0  0  0  0  0  0  0  0  0  0  0
   19.4827   17.8992   25.6619 O   0  5  0  0  0  0  0  0  0  0  0  0
   21.4474   17.3405   25.0177 O   0  0  0  0  0  0  0  0  0  0  0  0
   19.8022   17.5924   23.3499 C   0  0  0  0  0  0  0  0  0  0  0  0
   18.8071   17.1330   23.3357 H   0  0  0  0  0  0  0  0  0  0  0  0
   20.4669   16.9356   22.7759 H   0  0  0  0  0  0  0  0  0  0  0  0
   19.7448   18.9783   22.7362 C   0  0  0  0  0  0  0  0  0  0  0  0
   18.9868   19.6406   23.1533 H   0  0  0  0  0  0  0  0  0  0  0  0
   20.5486   19.3991   21.7549 C   0  0  0  0  0  0  0  0  0  0  0  0
   21.3084   18.7374   21.3403 H   0  0  0  0  0  0  0  0  0  0  0  0
   20.4924   20.7827   21.1468 C   0  0  0  0  0  0  0  0  0  0  0  0
   19.8961   21.4561   21.7778 H   0  0  0  0  0  0  0  0  0  0  0  0
   21.5039   21.2084   21.0997 H   0  0  0  0  0  0  0  0  0  0  0  0
   19.8863   20.7410   19.7305 C   0  0  0  0  0  0  0  0  0  0  0  0
   18.8636   20.3422   19.7557 H   0  0  0  0  0  0  0  0  0  0  0  0
   19.8487   21.7477   19.2942 H   0  0  0  0  0  0  0  0  0  0  0  0
   20.4855   20.1042   19.0665 H   0  0  0  0  0  0  0  0  0  0  0  0
  1  2  1  0  0  0  0
  1  3  2  0  0  0  0
  1  4  1  0  0  0  0
  4  5  1  0  0  0  0
  4  6  1  0  0  0  0
  4  7  1  0  0  0  0
  7  8  1  0  0  0  0
  7  9  2  0  0  0  0
  9 10  1  0  0  0  0
  9 11  1  0  0  0  0
 11 12  1  0  0  0  0
 11 13  1  0  0  0  0
 11 14  1  0  0  0  0
 14 15  1  0  0  0  0
 14 16  1  0  0  0  0
 14 17  1  0  0  0  0
M  END
> <VConfSearch Rank>
526

> <Conf_Id>
38

> <Delta U+W>
0.000

> <U+W>
-49.427

> <U>
13.666

> <W>
-63.093

> <W(PB)>
-65.225

> <W(SA)>
2.132

> <Valence>
15.226

> <Coulomb>
-1.822

> <VdW>
0.261

> <VdW6>
-4.165

> <VdW12>
4.426

> <Bond>
0.044

> <Angle>
2.229

> <Pdih>
12.953

> <Idih>
0.000

> <Tether>
0.000

$$$$
VeraChem MOL file


 17 16  0  0  0  0  0  0  0  0999 V2000     
   20.0396   16.5092   23.6559 C   0  0  0  0  0  0  0  0  0  0  0  0
   18.8855   16.1740   23.8365 O   0  5  0  0  0  0  0  0  0  0  0  0
   20.9269   16.3271   24.4662 O   0  0  0  0  0  0  0  0  0  0  0  0
   20.3967   17.1898   22.3410 C   0  0  0  0  0  0  0  0  0  0  0  0
   19.6484   16.9035   21.5922 H   0  0  0  0  0  0  0  0  0  0  0  0
   21.3581   16.7849   22.0046 H   0  0  0  0  0  0  0  0  0  0  0  0
   20.4843   18.6983   22.4728 C   0  0  0  0  0  0  0  0  0  0  0  0
   21.3127   19.0649   23.0783 H   0  0  0  0  0  0  0  0  0  0  0  0
   19.6270   19.5529   21.9063 C   0  0  0  0  0  0  0  0  0  0  0  0
   18.7970   19.1855   21.3036 H   0  0  0  0  0  0  0  0  0  0  0  0
   19.7136   21.0566   22.0421 C   0  0  0  0  0  0  0  0  0  0  0  0
   18.7289   21.4619   22.3114 H   0  0  0  0  0  0  0  0  0  0  0  0
   20.4002   21.3303   22.8550 H   0  0  0  0  0  0  0  0  0  0  0  0
   20.1942   21.7045   20.7289 C   0  0  0  0  0  0  0  0  0  0  0  0
   19.5041   21.4787   19.9053 H   0  0  0  0  0  0  0  0  0  0  0  0
   20.2544   22.7957   20.8333 H   0  0  0  0  0  0  0  0  0  0  0  0
   21.1898   21.3333   20.4525 H   0  0  0  0  0  0  0  0  0  0  0  0
  1  2  1  0  0  0  0
  1  3  2  0  0  0  0
  1  4  1  0  0  0  0
  4  5  1  0  0  0  0
  4  6  1  0  0  0  0
  4  7  1  0  0  0  0
  7  8  1  0  0  0  0
  7  9  2  0  0  0  0
  9 10  1  0  0  0  0
  9 11  1  0  0  0  0
 11 12  1  0  0  0  0
 11 13  1  0  0  0  0
 11 14  1  0  0  0  0
 14 15  1  0  0  0  0
 14 16  1  0  0  0  0
 14 17  1  0  0  0  0
M  END
> <VConfSearch Rank>
527

> <Conf_Id>
35

> <Delta U+W>
-0.102

> <U+W>
-49.529

> <U>
13.666

> <W>
-63.195

> <W(PB)>
-65.299

> <W(SA)>
2.103

> <Valence>
15.226

> <Coulomb>
-1.822

> <VdW>
0.261

> <VdW6>
-4.165

> <VdW12>
4.426

> <Bond>
0.044

> <Angle>
2.229

> <Pdih>
12.953

> <Idih>
0.000

> <Tether>
0.000

$$$$
VeraChem MOL file


 17 16  0  0  0  0  0  0  0  0999 V2000     
   18.9642   20.7614   24.2911 C   0  0  0  0  0  0  0  0  0  0  0  0
   19.3217   20.3851   25.3900 O   0  5  0  0  0  0  0  0  0  0  0  0
   18.9226   21.9304   23.9618 O   0  0  0  0  0  0  0  0  0  0  0  0
   18.5363   19.7095   23.2762 C   0  0  0  0  0  0  0  0  0  0  0  0
   17.8658   20.1856   22.5508 H   0  0  0  0  0  0  0  0  0  0  0  0
   17.9481   18.9519   23.8069 H   0  0  0  0  0  0  0  0  0  0  0  0
   19.7176   19.0588   22.5815 C   0  0  0  0  0  0  0  0  0  0  0  0
   20.3367   18.4364   23.2253 H   0  0  0  0  0  0  0  0  0  0  0  0
   20.0044   19.2227   21.2840 C   0  0  0  0  0  0  0  0  0  0  0  0
   19.3640   19.8569   20.6718 H   0  0  0  0  0  0  0  0  0  0  0  0
   21.1688   18.6066   20.5270 C   0  0  0  0  0  0  0  0  0  0  0  0
   20.7768   18.0218   19.6839 H   0  0  0  0  0  0  0  0  0  0  0  0
   21.7659   19.4107   20.0760 H   0  0  0  0  0  0  0  0  0  0  0  0
   22.0954   17.7076   21.3751 C   0  0  0  0  0  0  0  0  0  0  0  0
   21.5416   16.8597   21.7990 H   0  0  0  0  0  0  0  0  0  0  0  0
   22.9089   17.3033   20.7588 H   0  0  0  0  0  0  0  0  0  0  0  0
   22.5481   18.2748   22.1991 H   0  0  0  0  0  0  0  0  0  0  0  0
  1  2  1  0  0  0  0
  1  3  2  0  0  0  0
  1  4  1  0  0  0  0
  4  5  1  0  0  0  0
  4  6  1  0  0  0  0
  4  7  1  0  0  0  0
  7  8  1  0  0  0  0
  7  9  2  0  0  0  0
  9 10  1  0  0  0  0
  9 11  1  0  0  0  0
 11 12  1  0  0  0  0
 11 13  1  0  0  0  0
 11 14  1  0  0  0  0
 14 15  1  0  0  0  0
 14 16  1  0  0  0  0
 14 17  1  0  0  0  0
M  END
> <VConfSearch Rank>
528

> <Conf_Id>
19

> <Delta U+W>
-0.496

> <U+W>
-49.923

> <U>
13.863

> <W>
-63.786

> <W(PB)>
-65.856

> <W(SA)>
2.070

> <Valence>
14.117

> <Coulomb>
-1.228

> <VdW>
0.974

> <VdW6>
-4.885

> <VdW12>
5.859

> <Bond>
0.094

> <Angle>
2.818

> <Pdih>
11.205

> <Idih>
0.000

> <Tether>
0.000

$$$$
VeraChem MOL file


 17 16  0  0  0  0  0  0  0  0999 V2000     
   22.1792   16.9368   22.2911 C   0  0  0  0  0  0  0  0  0  0  0  0
   23.1395   17.4735   21.7748 O   0  5  0  0  0  0  0  0  0  0  0  0
   22.2429   16.2880   23.3168 O   0  0  0  0  0  0  0  0  0  0  0  0
   20.8229   17.0743   21.6119 C   0  0  0  0  0  0  0  0  0  0  0  0
   20.3265   16.0979   21.6550 H   0  0  0  0  0  0  0  0  0  0  0  0
   20.9912   17.3023   20.5525 H   0  0  0  0  0  0  0  0  0  0  0  0
   19.9514   18.1309   22.2636 C   0  0  0  0  0  0  0  0  0  0  0  0
   19.6130   17.8971   23.2726 H   0  0  0  0  0  0  0  0  0  0  0  0
   19.6057   19.2833   21.6815 C   0  0  0  0  0  0  0  0  0  0  0  0
   19.9486   19.5188   20.6745 H   0  0  0  0  0  0  0  0  0  0  0  0
   18.7390   20.3368   22.3342 C   0  0  0  0  0  0  0  0  0  0  0  0
   17.9497   20.6513   21.6381 H   0  0  0  0  0  0  0  0  0  0  0  0
   18.2338   19.9250   23.2187 H   0  0  0  0  0  0  0  0  0  0  0  0
   19.5760   21.5623   22.7496 C   0  0  0  0  0  0  0  0  0  0  0  0
   20.0624   22.0184   21.8773 H   0  0  0  0  0  0  0  0  0  0  0  0
   18.9423   22.3235   23.2231 H   0  0  0  0  0  0  0  0  0  0  0  0
   20.3575   21.2758   23.4658 H   0  0  0  0  0  0  0  0  0  0  0  0
  1  2  1  0  0  0  0
  1  3  2  0  0  0  0
  1  4  1  0  0  0  0
  4  5  1  0  0  0  0
  4  6  1  0  0  0  0
  4  7  1  0  0  0  0
  7  8  1  0  0  0  0
  7  9  2  0  0  0  0
  9 10  1  0  0  0  0
  9 11  1  0  0  0  0
 11 12  1  0  0  0  0
 11 13  1  0  0  0  0
 11 14  1  0  0  0  0
 14 15  1  0  0  0  0
 14 16  1  0  0  0  0
 14 17  1  0  0  0  0
M  END
> <VConfSearch Rank>
529

> <Conf_Id>
7

> <Delta U+W>
-0.041

> <U+W>
-49.468

> <U>
14.121

> <W>
-63.589

> <W(PB)>
-65.660

> <W(SA)>
2.071

> <Valence>
15.230

> <Coulomb>
-1.333

> <VdW>
0.224

> <VdW6>
-4.212

> <VdW12>
4.436

> <Bond>
0.044

> <Angle>
2.230

> <Pdih>
12.956

> <Idih>
0.000

> <Tether>
0.000

$$$$
VeraChem MOL file


 17 16  0  0  0  0  0  0  0  0999 V2000     
   18.0263   21.0588   22.3763 C   0  0  0  0  0  0  0  0  0  0  0  0
   17.0777   20.3009   22.3252 O   0  5  0  0  0  0  0  0  0  0  0  0
   18.1794   21.9948   21.6164 O   0  0  0  0  0  0  0  0  0  0  0  0
   19.0667   20.8404   23.4706 C   0  0  0  0  0  0  0  0  0  0  0  0
   18.5527   20.4244   24.3451 H   0  0  0  0  0  0  0  0  0  0  0  0
   19.4401   21.8236   23.7799 H   0  0  0  0  0  0  0  0  0  0  0  0
   20.2385   19.9449   23.0940 C   0  0  0  0  0  0  0  0  0  0  0  0
   20.9691   19.8025   23.8892 H   0  0  0  0  0  0  0  0  0  0  0  0
   20.4234   19.3474   21.9108 C   0  0  0  0  0  0  0  0  0  0  0  0
   19.7077   19.4725   21.0992 H   0  0  0  0  0  0  0  0  0  0  0  0
   21.6091   18.4661   21.5863 C   0  0  0  0  0  0  0  0  0  0  0  0
   22.0387   18.7640   20.6203 H   0  0  0  0  0  0  0  0  0  0  0  0
   22.4014   18.5948   22.3366 H   0  0  0  0  0  0  0  0  0  0  0  0
   21.1969   16.9822   21.5294 C   0  0  0  0  0  0  0  0  0  0  0  0
   22.0607   16.3477   21.2923 H   0  0  0  0  0  0  0  0  0  0  0  0
   20.7874   16.6542   22.4940 H   0  0  0  0  0  0  0  0  0  0  0  0
   20.4316   16.8178   20.7596 H   0  0  0  0  0  0  0  0  0  0  0  0
  1  2  1  0  0  0  0
  1  3  2  0  0  0  0
  1  4  1  0  0  0  0
  4  5  1  0  0  0  0
  4  6  1  0  0  0  0
  4  7  1  0  0  0  0
  7  8  1  0  0  0  0
  7  9  2  0  0  0  0
  9 10  1  0  0  0  0
  9 11  1  0  0  0  0
 11 12  1  0  0  0  0
 11 13  1  0  0  0  0
 11 14  1  0  0  0  0
 14 15  1  0  0  0  0
 14 16  1  0  0  0  0
 14 17  1  0  0  0  0
M  END
> <VConfSearch Rank>
530

> <Conf_Id>
39

> <Delta U+W>
-0.422

> <U+W>
-49.849

> <U>
14.465

> <W>
-64.314

> <W(PB)>
-66.406

> <W(SA)>
2.093

> <Valence>
14.072

> <Coulomb>
-0.199

> <VdW>
0.592

> <VdW6>
-5.019

> <VdW12>
5.611

> <Bond>
0.085

> <Angle>
2.748

> <Pdih>
11.238

> <Idih>
0.001

> <Tether>
0.000

$$$$
VeraChem MOL file


 17 16  0  0  0  0  0  0  0  0999 V2000     
   17.7578   18.1888   20.2857 C   0  0  0  0  0  0  0  0  0  0  0  0
   17.1615   17.2119   20.6945 O   0  5  0  0  0  0  0  0  0  0  0  0
   18.0480   18.3590   19.1180 O   0  0  0  0  0  0  0  0  0  0  0  0
   18.1575   19.2593   21.2927 C   0  0  0  0  0  0  0  0  0  0  0  0
   17.3226   19.3910   21.9906 H   0  0  0  0  0  0  0  0  0  0  0  0
   18.2790   20.2075   20.7553 H   0  0  0  0  0  0  0  0  0  0  0  0
   19.4199   18.8994   22.0527 C   0  0  0  0  0  0  0  0  0  0  0  0
   19.3266   18.0564   22.7366 H   0  0  0  0  0  0  0  0  0  0  0  0
   20.5845   19.5417   21.9213 C   0  0  0  0  0  0  0  0  0  0  0  0
   20.6779   20.3828   21.2350 H   0  0  0  0  0  0  0  0  0  0  0  0
   21.8433   19.1791   22.6772 C   0  0  0  0  0  0  0  0  0  0  0  0
   21.7425   18.1869   23.1382 H   0  0  0  0  0  0  0  0  0  0  0  0
   22.6898   19.1182   21.9799 H   0  0  0  0  0  0  0  0  0  0  0  0
   22.1522   20.2204   23.7705 C   0  0  0  0  0  0  0  0  0  0  0  0
   21.3295   20.2806   24.4952 H   0  0  0  0  0  0  0  0  0  0  0  0
   23.0669   19.9523   24.3151 H   0  0  0  0  0  0  0  0  0  0  0  0
   22.2961   21.2170   23.3329 H   0  0  0  0  0  0  0  0  0  0  0  0
  1  2  1  0  0  0  0
  1  3  2  0  0  0  0
  1  4  1  0  0  0  0
  4  5  1  0  0  0  0
  4  6  1  0  0  0  0
  4  7  1  0  0  0  0
  7  8  1  0  0  0  0
  7  9  2  0  0  0  0
  9 10  1  0  0  0  0
  9 11  1  0  0  0  0
 11 12  1  0  0  0  0
 11 13  1  0  0  0  0
 11 14  1  0  0  0  0
 14 15  1  0  0  0  0
 14 16  1  0  0  0  0
 14 17  1  0  0  0  0
M  END
> <VConfSearch Rank>
531

> <Conf_Id>
38

> <Delta U+W>
0.000

> <U+W>
-49.427

> <U>
13.666

> <W>
-63.093

> <W(PB)>
-65.225

> <W(SA)>
2.132

> <Valence>
15.226

> <Coulomb>
-1.822

> <VdW>
0.261

> <VdW6>
-4.165

> <VdW12>
4.426

> <Bond>
0.044

> <Angle>
2.229

> <Pdih>
12.953

> <Idih>
0.000

> <Tether>
0.000

$$$$
VeraChem MOL file


 17 16  0  0  0  0  0  0  0  0999 V2000     
   17.2930   17.8170   21.7710 C   0  0  0  0  0  0  0  0  0  0  0  0
   17.4740   16.7076   21.3091 O   0  5  0  0  0  0  0  0  0  0  0  0
   16.3473   18.5214   21.4768 O   0  0  0  0  0  0  0  0  0  0  0  0
   18.3021   18.3536   22.7777 C   0  0  0  0  0  0  0  0  0  0  0  0
   18.8105   17.5001   23.2421 H   0  0  0  0  0  0  0  0  0  0  0  0
   17.7445   18.8651   23.5708 H   0  0  0  0  0  0  0  0  0  0  0  0
   19.3018   19.3046   22.1475 C   0  0  0  0  0  0  0  0  0  0  0  0
   18.8894   20.2535   21.8059 H   0  0  0  0  0  0  0  0  0  0  0  0
   20.6028   19.0370   21.9995 C   0  0  0  0  0  0  0  0  0  0  0  0
   21.0139   18.0866   22.3384 H   0  0  0  0  0  0  0  0  0  0  0  0
   21.5974   19.9849   21.3673 C   0  0  0  0  0  0  0  0  0  0  0  0
   22.1999   19.4474   20.6226 H   0  0  0  0  0  0  0  0  0  0  0  0
   21.0747   20.7880   20.8297 H   0  0  0  0  0  0  0  0  0  0  0  0
   22.5261   20.6031   22.4304 C   0  0  0  0  0  0  0  0  0  0  0  0
   23.0908   19.8235   22.9583 H   0  0  0  0  0  0  0  0  0  0  0  0
   23.2460   21.2894   21.9656 H   0  0  0  0  0  0  0  0  0  0  0  0
   21.9472   21.1682   23.1728 H   0  0  0  0  0  0  0  0  0  0  0  0
  1  2  1  0  0  0  0
  1  3  2  0  0  0  0
  1  4  1  0  0  0  0
  4  5  1  0  0  0  0
  4  6  1  0  0  0  0
  4  7  1  0  0  0  0
  7  8  1  0  0  0  0
  7  9  2  0  0  0  0
  9 10  1  0  0  0  0
  9 11  1  0  0  0  0
 11 12  1  0  0  0  0
 11 13  1  0  0  0  0
 11 14  1  0  0  0  0
 14 15  1  0  0  0  0
 14 16  1  0  0  0  0
 14 17  1  0  0  0  0
M  END
> <VConfSearch Rank>
532

> <Conf_Id>
35

> <Delta U+W>
-0.102

> <U+W>
-49.529

> <U>
13.666

> <W>
-63.195

> <W(PB)>
-65.299

> <W(SA)>
2.103

> <Valence>
15.226

> <Coulomb>
-1.822

> <VdW>
0.261

> <VdW6>
-4.165

> <VdW12>
4.426

> <Bond>
0.044

> <Angle>
2.229

> <Pdih>
12.953

> <Idih>
0.000

> <Tether>
0.000

$$$$
VeraChem MOL file


 17 16  0  0  0  0  0  0  0  0999 V2000     
   17.5961   19.8597   21.0952 C   0  0  0  0  0  0  0  0  0  0  0  0
   17.4515   21.0644   21.1653 O   0  5  0  0  0  0  0  0  0  0  0  0
   17.3262   19.2069   20.1064 O   0  0  0  0  0  0  0  0  0  0  0  0
   18.1362   19.1292   22.3177 C   0  0  0  0  0  0  0  0  0  0  0  0
   17.8098   18.0837   22.2643 H   0  0  0  0  0  0  0  0  0  0  0  0
   17.6645   19.5672   23.2049 H   0  0  0  0  0  0  0  0  0  0  0  0
   19.6461   19.2242   22.4305 C   0  0  0  0  0  0  0  0  0  0  0  0
   20.0238   20.2225   22.6445 H   0  0  0  0  0  0  0  0  0  0  0  0
   20.4736   18.1826   22.2783 C   0  0  0  0  0  0  0  0  0  0  0  0
   20.0590   17.1989   22.0604 H   0  0  0  0  0  0  0  0  0  0  0  0
   21.9898   18.2066   22.3739 C   0  0  0  0  0  0  0  0  0  0  0  0
   22.3096   17.4971   23.1491 H   0  0  0  0  0  0  0  0  0  0  0  0
   22.4121   17.8266   21.4338 H   0  0  0  0  0  0  0  0  0  0  0  0
   22.6023   19.5920   22.6762 C   0  0  0  0  0  0  0  0  0  0  0  0
   22.2432   19.9801   23.6384 H   0  0  0  0  0  0  0  0  0  0  0  0
   23.6968   19.5259   22.7281 H   0  0  0  0  0  0  0  0  0  0  0  0
   22.3461   20.3157   21.8913 H   0  0  0  0  0  0  0  0  0  0  0  0
  1  2  1  0  0  0  0
  1  3  2  0  0  0  0
  1  4  1  0  0  0  0
  4  5  1  0  0  0  0
  4  6  1  0  0  0  0
  4  7  1  0  0  0  0
  7  8  1  0  0  0  0
  7  9  2  0  0  0  0
  9 10  1  0  0  0  0
  9 11  1  0  0  0  0
 11 12  1  0  0  0  0
 11 13  1  0  0  0  0
 11 14  1  0  0  0  0
 14 15  1  0  0  0  0
 14 16  1  0  0  0  0
 14 17  1  0  0  0  0
M  END
> <VConfSearch Rank>
533

> <Conf_Id>
19

> <Delta U+W>
-0.496

> <U+W>
-49.923

> <U>
13.863

> <W>
-63.786

> <W(PB)>
-65.856

> <W(SA)>
2.070

> <Valence>
14.117

> <Coulomb>
-1.228

> <VdW>
0.974

> <VdW6>
-4.885

> <VdW12>
5.859

> <Bond>
0.094

> <Angle>
2.818

> <Pdih>
11.205

> <Idih>
0.000

> <Tether>
0.000

$$$$
VeraChem MOL file


 17 16  0  0  0  0  0  0  0  0999 V2000     
   20.1878   16.7107   23.9665 C   0  0  0  0  0  0  0  0  0  0  0  0
   21.3778   16.5021   24.0983 O   0  5  0  0  0  0  0  0  0  0  0  0
   19.3998   16.7146   24.8916 O   0  0  0  0  0  0  0  0  0  0  0  0
   19.6510   16.9713   22.5651 C   0  0  0  0  0  0  0  0  0  0  0  0
   18.7068   16.4241   22.4615 H   0  0  0  0  0  0  0  0  0  0  0  0
   20.3535   16.5388   21.8426 H   0  0  0  0  0  0  0  0  0  0  0  0
   19.4304   18.4470   22.2927 C   0  0  0  0  0  0  0  0  0  0  0  0
   18.6317   18.9122   22.8697 H   0  0  0  0  0  0  0  0  0  0  0  0
   20.1462   19.1654   21.4222 C   0  0  0  0  0  0  0  0  0  0  0  0
   20.9481   18.7009   20.8492 H   0  0  0  0  0  0  0  0  0  0  0  0
   19.9266   20.6375   21.1541 C   0  0  0  0  0  0  0  0  0  0  0  0
   19.8846   20.8152   20.0710 H   0  0  0  0  0  0  0  0  0  0  0  0
   18.9610   20.9632   21.5649 H   0  0  0  0  0  0  0  0  0  0  0  0
   21.0552   21.4866   21.7708 C   0  0  0  0  0  0  0  0  0  0  0  0
   22.0299   21.2085   21.3487 H   0  0  0  0  0  0  0  0  0  0  0  0
   20.8907   22.5540   21.5737 H   0  0  0  0  0  0  0  0  0  0  0  0
   21.1004   21.3438   22.8585 H   0  0  0  0  0  0  0  0  0  0  0  0
  1  2  1  0  0  0  0
  1  3  2  0  0  0  0
  1  4  1  0  0  0  0
  4  5  1  0  0  0  0
  4  6  1  0  0  0  0
  4  7  1  0  0  0  0
  7  8  1  0  0  0  0
  7  9  2  0  0  0  0
  9 10  1  0  0  0  0
  9 11  1  0  0  0  0
 11 12  1  0  0  0  0
 11 13  1  0  0  0  0
 11 14  1  0  0  0  0
 14 15  1  0  0  0  0
 14 16  1  0  0  0  0
 14 17  1  0  0  0  0
M  END
> <VConfSearch Rank>
534

> <Conf_Id>
7

> <Delta U+W>
-0.041

> <U+W>
-49.468

> <U>
14.121

> <W>
-63.589

> <W(PB)>
-65.660

> <W(SA)>
2.071

> <Valence>
15.230

> <Coulomb>
-1.333

> <VdW>
0.224

> <VdW6>
-4.212

> <VdW12>
4.436

> <Bond>
0.044

> <Angle>
2.230

> <Pdih>
12.956

> <Idih>
0.000

> <Tether>
0.000

$$$$
VeraChem MOL file


 17 16  0  0  0  0  0  0  0  0999 V2000     
   19.0063   21.0221   24.0839 C   0  0  0  0  0  0  0  0  0  0  0  0
   17.8228   20.8136   23.9030 O   0  5  0  0  0  0  0  0  0  0  0  0
   19.5094   22.1270   24.0282 O   0  0  0  0  0  0  0  0  0  0  0  0
   19.9039   19.8371   24.4270 C   0  0  0  0  0  0  0  0  0  0  0  0
   19.3045   19.1136   24.9918 H   0  0  0  0  0  0  0  0  0  0  0  0
   20.6782   20.1913   25.1174 H   0  0  0  0  0  0  0  0  0  0  0  0
   20.5571   19.1425   23.2405 C   0  0  0  0  0  0  0  0  0  0  0  0
   21.1935   18.2998   23.5076 H   0  0  0  0  0  0  0  0  0  0  0  0
   20.4092   19.4780   21.9534 C   0  0  0  0  0  0  0  0  0  0  0  0
   19.7780   20.3157   21.6591 H   0  0  0  0  0  0  0  0  0  0  0  0
   21.0837   18.7540   20.8094 C   0  0  0  0  0  0  0  0  0  0  0  0
   21.5518   19.4830   20.1342 H   0  0  0  0  0  0  0  0  0  0  0  0
   21.8900   18.1085   21.1840 H   0  0  0  0  0  0  0  0  0  0  0  0
   20.0715   17.9001   20.0211 C   0  0  0  0  0  0  0  0  0  0  0  0
   20.5659   17.3782   19.1916 H   0  0  0  0  0  0  0  0  0  0  0  0
   19.6085   17.1457   20.6709 H   0  0  0  0  0  0  0  0  0  0  0  0
   19.2731   18.5266   19.6021 H   0  0  0  0  0  0  0  0  0  0  0  0
  1  2  1  0  0  0  0
  1  3  2  0  0  0  0
  1  4  1  0  0  0  0
  4  5  1  0  0  0  0
  4  6  1  0  0  0  0
  4  7  1  0  0  0  0
  7  8  1  0  0  0  0
  7  9  2  0  0  0  0
  9 10  1  0  0  0  0
  9 11  1  0  0  0  0
 11 12  1  0  0  0  0
 11 13  1  0  0  0  0
 11 14  1  0  0  0  0
 14 15  1  0  0  0  0
 14 16  1  0  0  0  0
 14 17  1  0  0  0  0
M  END
> <VConfSearch Rank>
535

> <Conf_Id>
39

> <Delta U+W>
-0.422

> <U+W>
-49.849

> <U>
14.465

> <W>
-64.314

> <W(PB)>
-66.406

> <W(SA)>
2.093

> <Valence>
14.072

> <Coulomb>
-0.199

> <VdW>
0.592

> <VdW6>
-5.019

> <VdW12>
5.611

> <Bond>
0.085

> <Angle>
2.748

> <Pdih>
11.238

> <Idih>
0.001

> <Tether>
0.000

$$$$
VeraChem MOL file


 17 16  0  0  0  0  0  0  0  0999 V2000     
   22.1070   18.4584   19.7900 C   0  0  0  0  0  0  0  0  0  0  0  0
   21.6484   17.7821   18.8903 O   0  5  0  0  0  0  0  0  0  0  0  0
   23.2138   18.2878   20.2618 O   0  0  0  0  0  0  0  0  0  0  0  0
   21.2482   19.5839   20.3515 C   0  0  0  0  0  0  0  0  0  0  0  0
   20.7480   20.0758   19.5092 H   0  0  0  0  0  0  0  0  0  0  0  0
   21.9126   20.3272   20.8084 H   0  0  0  0  0  0  0  0  0  0  0  0
   20.2198   19.0872   21.3498 C   0  0  0  0  0  0  0  0  0  0  0  0
   19.4270   18.4678   20.9315 H   0  0  0  0  0  0  0  0  0  0  0  0
   20.2478   19.3633   22.6572 C   0  0  0  0  0  0  0  0  0  0  0  0
   21.0426   19.9802   23.0752 H   0  0  0  0  0  0  0  0  0  0  0  0
   19.2236   18.8640   23.6517 C   0  0  0  0  0  0  0  0  0  0  0  0
   18.6216   18.0572   23.2113 H   0  0  0  0  0  0  0  0  0  0  0  0
   19.7334   18.4359   24.5255 H   0  0  0  0  0  0  0  0  0  0  0  0
   18.2927   20.0043   24.1078 C   0  0  0  0  0  0  0  0  0  0  0  0
   17.7519   20.4316   23.2530 H   0  0  0  0  0  0  0  0  0  0  0  0
   17.5522   19.6362   24.8297 H   0  0  0  0  0  0  0  0  0  0  0  0
   18.8651   20.8092   24.5873 H   0  0  0  0  0  0  0  0  0  0  0  0
  1  2  1  0  0  0  0
  1  3  2  0  0  0  0
  1  4  1  0  0  0  0
  4  5  1  0  0  0  0
  4  6  1  0  0  0  0
  4  7  1  0  0  0  0
  7  8  1  0  0  0  0
  7  9  2  0  0  0  0
  9 10  1  0  0  0  0
  9 11  1  0  0  0  0
 11 12  1  0  0  0  0
 11 13  1  0  0  0  0
 11 14  1  0  0  0  0
 14 15  1  0  0  0  0
 14 16  1  0  0  0  0
 14 17  1  0  0  0  0
M  END
> <VConfSearch Rank>
536

> <Conf_Id>
38

> <Delta U+W>
0.000

> <U+W>
-49.427

> <U>
13.666

> <W>
-63.093

> <W(PB)>
-65.225

> <W(SA)>
2.132

> <Valence>
15.226

> <Coulomb>
-1.822

> <VdW>
0.261

> <VdW6>
-4.165

> <VdW12>
4.426

> <Bond>
0.044

> <Angle>
2.229

> <Pdih>
12.953

> <Idih>
0.000

> <Tether>
0.000

$$$$
VeraChem MOL file


 17 16  0  0  0  0  0  0  0  0999 V2000     
   18.4743   16.5869   22.5873 C   0  0  0  0  0  0  0  0  0  0  0  0
   18.5261   15.9057   21.5823 O   0  5  0  0  0  0  0  0  0  0  0  0
   17.4902   16.6653   23.2960 O   0  0  0  0  0  0  0  0  0  0  0  0
   19.7107   17.3823   22.9851 C   0  0  0  0  0  0  0  0  0  0  0  0
   20.5878   16.9001   22.5369 H   0  0  0  0  0  0  0  0  0  0  0  0
   19.8231   17.3050   24.0727 H   0  0  0  0  0  0  0  0  0  0  0  0
   19.6215   18.8393   22.5730 C   0  0  0  0  0  0  0  0  0  0  0  0
   18.8709   19.4268   23.1008 H   0  0  0  0  0  0  0  0  0  0  0  0
   20.3870   19.4023   21.6331 C   0  0  0  0  0  0  0  0  0  0  0  0
   21.1352   18.8135   21.1034 H   0  0  0  0  0  0  0  0  0  0  0  0
   20.2940   20.8544   21.2207 C   0  0  0  0  0  0  0  0  0  0  0  0
   20.2520   20.9267   20.1254 H   0  0  0  0  0  0  0  0  0  0  0  0
   19.3666   21.3036   21.6020 H   0  0  0  0  0  0  0  0  0  0  0  0
   21.5017   21.6569   21.7427 C   0  0  0  0  0  0  0  0  0  0  0  0
   22.4419   21.2524   21.3456 H   0  0  0  0  0  0  0  0  0  0  0  0
   21.4289   22.7095   21.4397 H   0  0  0  0  0  0  0  0  0  0  0  0
   21.5495   21.6204   22.8390 H   0  0  0  0  0  0  0  0  0  0  0  0
  1  2  1  0  0  0  0
  1  3  2  0  0  0  0
  1  4  1  0  0  0  0
  4  5  1  0  0  0  0
  4  6  1  0  0  0  0
  4  7  1  0  0  0  0
  7  8  1  0  0  0  0
  7  9  2  0  0  0  0
  9 10  1  0  0  0  0
  9 11  1  0  0  0  0
 11 12  1  0  0  0  0
 11 13  1  0  0  0  0
 11 14  1  0  0  0  0
 14 15  1  0  0  0  0
 14 16  1  0  0  0  0
 14 17  1  0  0  0  0
M  END
> <VConfSearch Rank>
537

> <Conf_Id>
35

> <Delta U+W>
-0.102

> <U+W>
-49.529

> <U>
13.666

> <W>
-63.195

> <W(PB)>
-65.299

> <W(SA)>
2.103

> <Valence>
15.226

> <Coulomb>
-1.822

> <VdW>
0.261

> <VdW6>
-4.165

> <VdW12>
4.426

> <Bond>
0.044

> <Angle>
2.229

> <Pdih>
12.953

> <Idih>
0.000

> <Tether>
0.000

$$$$
VeraChem MOL file


 17 16  0  0  0  0  0  0  0  0999 V2000     
   22.7844   18.6739   23.6046 C   0  0  0  0  0  0  0  0  0  0  0  0
   23.5907   19.5134   23.2551 O   0  5  0  0  0  0  0  0  0  0  0  0
   22.6079   18.3530   24.7634 O   0  0  0  0  0  0  0  0  0  0  0  0
   21.9579   17.9807   22.5294 C   0  0  0  0  0  0  0  0  0  0  0  0
   21.6297   17.0105   22.9214 H   0  0  0  0  0  0  0  0  0  0  0  0
   22.6188   17.7758   21.6793 H   0  0  0  0  0  0  0  0  0  0  0  0
   20.7740   18.8156   22.0789 C   0  0  0  0  0  0  0  0  0  0  0  0
   21.0375   19.7222   21.5371 H   0  0  0  0  0  0  0  0  0  0  0  0
   19.4972   18.4919   22.3188 C   0  0  0  0  0  0  0  0  0  0  0  0
   19.2722   17.5785   22.8684 H   0  0  0  0  0  0  0  0  0  0  0  0
   18.2673   19.2806   21.9017 C   0  0  0  0  0  0  0  0  0  0  0  0
   17.6217   18.6371   21.2889 H   0  0  0  0  0  0  0  0  0  0  0  0
   17.6785   19.5223   22.7970 H   0  0  0  0  0  0  0  0  0  0  0  0
   18.5604   20.5839   21.1260 C   0  0  0  0  0  0  0  0  0  0  0  0
   19.1025   20.3745   20.1945 H   0  0  0  0  0  0  0  0  0  0  0  0
   17.6247   21.0939   20.8629 H   0  0  0  0  0  0  0  0  0  0  0  0
   19.1616   21.2755   21.7309 H   0  0  0  0  0  0  0  0  0  0  0  0
  1  2  1  0  0  0  0
  1  3  2  0  0  0  0
  1  4  1  0  0  0  0
  4  5  1  0  0  0  0
  4  6  1  0  0  0  0
  4  7  1  0  0  0  0
  7  8  1  0  0  0  0
  7  9  2  0  0  0  0
  9 10  1  0  0  0  0
  9 11  1  0  0  0  0
 11 12  1  0  0  0  0
 11 13  1  0  0  0  0
 11 14  1  0  0  0  0
 14 15  1  0  0  0  0
 14 16  1  0  0  0  0
 14 17  1  0  0  0  0
M  END
> <VConfSearch Rank>
538

> <Conf_Id>
19

> <Delta U+W>
-0.496

> <U+W>
-49.923

> <U>
13.863

> <W>
-63.786

> <W(PB)>
-65.856

> <W(SA)>
2.070

> <Valence>
14.117

> <Coulomb>
-1.228

> <VdW>
0.974

> <VdW6>
-4.885

> <VdW12>
5.859

> <Bond>
0.094

> <Angle>
2.818

> <Pdih>
11.205

> <Idih>
0.000

> <Tether>
0.000

$$$$
VeraChem MOL file


 17 16  0  0  0  0  0  0  0  0999 V2000     
   21.7854   17.1862   23.7747 C   0  0  0  0  0  0  0  0  0  0  0  0
   22.8931   17.3494   23.3023 O   0  5  0  0  0  0  0  0  0  0  0  0
   21.5641   17.1413   24.9689 O   0  0  0  0  0  0  0  0  0  0  0  0
   20.6105   17.0180   22.8201 C   0  0  0  0  0  0  0  0  0  0  0  0
   19.9724   16.2179   23.2127 H   0  0  0  0  0  0  0  0  0  0  0  0
   20.9996   16.6734   21.8544 H   0  0  0  0  0  0  0  0  0  0  0  0
   19.8063   18.2938   22.6583 C   0  0  0  0  0  0  0  0  0  0  0  0
   19.2602   18.6149   23.5449 H   0  0  0  0  0  0  0  0  0  0  0  0
   19.7500   19.0084   21.5303 C   0  0  0  0  0  0  0  0  0  0  0  0
   20.3004   18.6897   20.6457 H   0  0  0  0  0  0  0  0  0  0  0  0
   18.9498   20.2819   21.3719 C   0  0  0  0  0  0  0  0  0  0  0  0
   18.3558   20.2345   20.4492 H   0  0  0  0  0  0  0  0  0  0  0  0
   18.2370   20.3935   22.2006 H   0  0  0  0  0  0  0  0  0  0  0  0
   19.8742   21.5141   21.3253 C   0  0  0  0  0  0  0  0  0  0  0  0
   20.5732   21.4476   20.4812 H   0  0  0  0  0  0  0  0  0  0  0  0
   19.2884   22.4354   21.2107 H   0  0  0  0  0  0  0  0  0  0  0  0
   20.4612   21.5960   22.2496 H   0  0  0  0  0  0  0  0  0  0  0  0
  1  2  1  0  0  0  0
  1  3  2  0  0  0  0
  1  4  1  0  0  0  0
  4  5  1  0  0  0  0
  4  6  1  0  0  0  0
  4  7  1  0  0  0  0
  7  8  1  0  0  0  0
  7  9  2  0  0  0  0
  9 10  1  0  0  0  0
  9 11  1  0  0  0  0
 11 12  1  0  0  0  0
 11 13  1  0  0  0  0
 11 14  1  0  0  0  0
 14 15  1  0  0  0  0
 14 16  1  0  0  0  0
 14 17  1  0  0  0  0
M  END
> <VConfSearch Rank>
539

> <Conf_Id>
7

> <Delta U+W>
-0.041

> <U+W>
-49.468

> <U>
14.121

> <W>
-63.589

> <W(PB)>
-65.660

> <W(SA)>
2.071

> <Valence>
15.230

> <Coulomb>
-1.333

> <VdW>
0.224

> <VdW6>
-4.212

> <VdW12>
4.436

> <Bond>
0.044

> <Angle>
2.230

> <Pdih>
12.956

> <Idih>
0.000

> <Tether>
0.000

$$$$
VeraChem MOL file


 17 16  0  0  0  0  0  0  0  0999 V2000     
   22.1300   17.3813   22.4870 C   0  0  0  0  0  0  0  0  0  0  0  0
   21.6197   16.4386   21.9145 O   0  5  0  0  0  0  0  0  0  0  0  0
   22.5794   17.3188   23.6145 O   0  0  0  0  0  0  0  0  0  0  0  0
   22.2374   18.7073   21.7401 C   0  0  0  0  0  0  0  0  0  0  0  0
   22.3609   18.4837   20.6740 H   0  0  0  0  0  0  0  0  0  0  0  0
   23.1668   19.1958   22.0552 H   0  0  0  0  0  0  0  0  0  0  0  0
   21.0688   19.6642   21.9285 C   0  0  0  0  0  0  0  0  0  0  0  0
   21.1658   20.6043   21.3869 H   0  0  0  0  0  0  0  0  0  0  0  0
   19.9814   19.4404   22.6759 C   0  0  0  0  0  0  0  0  0  0  0  0
   19.8592   18.5085   23.2268 H   0  0  0  0  0  0  0  0  0  0  0  0
   18.8460   20.4276   22.8313 C   0  0  0  0  0  0  0  0  0  0  0  0
   18.5939   20.5378   23.8947 H   0  0  0  0  0  0  0  0  0  0  0  0
   19.1485   21.4218   22.4746 H   0  0  0  0  0  0  0  0  0  0  0  0
   17.5992   19.9642   22.0531 C   0  0  0  0  0  0  0  0  0  0  0  0
   16.7782   20.6835   22.1705 H   0  0  0  0  0  0  0  0  0  0  0  0
   17.8206   19.8716   20.9817 H   0  0  0  0  0  0  0  0  0  0  0  0
   17.2516   18.9880   22.4159 H   0  0  0  0  0  0  0  0  0  0  0  0
  1  2  1  0  0  0  0
  1  3  2  0  0  0  0
  1  4  1  0  0  0  0
  4  5  1  0  0  0  0
  4  6  1  0  0  0  0
  4  7  1  0  0  0  0
  7  8  1  0  0  0  0
  7  9  2  0  0  0  0
  9 10  1  0  0  0  0
  9 11  1  0  0  0  0
 11 12  1  0  0  0  0
 11 13  1  0  0  0  0
 11 14  1  0  0  0  0
 14 15  1  0  0  0  0
 14 16  1  0  0  0  0
 14 17  1  0  0  0  0
M  END
> <VConfSearch Rank>
540

> <Conf_Id>
39

> <Delta U+W>
-0.422

> <U+W>
-49.849

> <U>
14.465

> <W>
-64.314

> <W(PB)>
-66.406

> <W(SA)>
2.093

> <Valence>
14.072

> <Coulomb>
-0.199

> <VdW>
0.592

> <VdW6>
-5.019

> <VdW12>
5.611

> <Bond>
0.085

> <Angle>
2.748

> <Pdih>
11.238

> <Idih>
0.001

> <Tether>
0.000

$$$$
VeraChem MOL file


 17 16  0  0  0  0  0  0  0  0999 V2000     
   19.5329   20.1027   19.1058 C   0  0  0  0  0  0  0  0  0  0  0  0
   20.1066   19.4634   18.2461 O   0  5  0  0  0  0  0  0  0  0  0  0
   19.3669   21.3053   19.0507 O   0  0  0  0  0  0  0  0  0  0  0  0
   18.9883   19.3531   20.3146 C   0  0  0  0  0  0  0  0  0  0  0  0
   18.5478   18.4154   19.9566 H   0  0  0  0  0  0  0  0  0  0  0  0
   18.1733   19.9458   20.7472 H   0  0  0  0  0  0  0  0  0  0  0  0
   20.0589   19.0640   21.3494 C   0  0  0  0  0  0  0  0  0  0  0  0
   20.8217   18.3492   21.0422 H   0  0  0  0  0  0  0  0  0  0  0  0
   20.1028   19.6250   22.5617 C   0  0  0  0  0  0  0  0  0  0  0  0
   19.3413   20.3419   22.8671 H   0  0  0  0  0  0  0  0  0  0  0  0
   21.1732   19.3384   23.5909 C   0  0  0  0  0  0  0  0  0  0  0  0
   22.0247   18.8222   23.1264 H   0  0  0  0  0  0  0  0  0  0  0  0
   21.5602   20.2831   23.9962 H   0  0  0  0  0  0  0  0  0  0  0  0
   20.6189   18.4748   24.7407 C   0  0  0  0  0  0  0  0  0  0  0  0
   20.2489   17.5128   24.3624 H   0  0  0  0  0  0  0  0  0  0  0  0
   21.3999   18.2707   25.4847 H   0  0  0  0  0  0  0  0  0  0  0  0
   19.7895   18.9844   25.2486 H   0  0  0  0  0  0  0  0  0  0  0  0
  1  2  1  0  0  0  0
  1  3  2  0  0  0  0
  1  4  1  0  0  0  0
  4  5  1  0  0  0  0
  4  6  1  0  0  0  0
  4  7  1  0  0  0  0
  7  8  1  0  0  0  0
  7  9  2  0  0  0  0
  9 10  1  0  0  0  0
  9 11  1  0  0  0  0
 11 12  1  0  0  0  0
 11 13  1  0  0  0  0
 11 14  1  0  0  0  0
 14 15  1  0  0  0  0
 14 16  1  0  0  0  0
 14 17  1  0  0  0  0
M  END
> <VConfSearch Rank>
541

> <Conf_Id>
38

> <Delta U+W>
0.000

> <U+W>
-49.427

> <U>
13.666

> <W>
-63.093

> <W(PB)>
-65.225

> <W(SA)>
2.132

> <Valence>
15.226

> <Coulomb>
-1.822

> <VdW>
0.261

> <VdW6>
-4.165

> <VdW12>
4.426

> <Bond>
0.044

> <Angle>
2.229

> <Pdih>
12.953

> <Idih>
0.000

> <Tether>
0.000

$$$$
VeraChem MOL file


 17 16  0  0  0  0  0  0  0  0999 V2000     
   20.8255   21.6599   20.1693 C   0  0  0  0  0  0  0  0  0  0  0  0
   19.8260   22.3139   19.9457 O   0  5  0  0  0  0  0  0  0  0  0  0
   21.6845   21.4399   19.3382 O   0  0  0  0  0  0  0  0  0  0  0  0
   21.0168   21.0885   21.5680 C   0  0  0  0  0  0  0  0  0  0  0  0
   20.4327   21.6960   22.2697 H   0  0  0  0  0  0  0  0  0  0  0  0
   22.0718   21.2115   21.8387 H   0  0  0  0  0  0  0  0  0  0  0  0
   20.6234   19.6263   21.6570 C   0  0  0  0  0  0  0  0  0  0  0  0
   21.2655   18.9377   21.1085 H   0  0  0  0  0  0  0  0  0  0  0  0
   19.5713   19.1720   22.3447 C   0  0  0  0  0  0  0  0  0  0  0  0
   18.9278   19.8614   22.8903 H   0  0  0  0  0  0  0  0  0  0  0  0
   19.1782   17.7140   22.4290 C   0  0  0  0  0  0  0  0  0  0  0  0
   18.1043   17.6073   22.2249 H   0  0  0  0  0  0  0  0  0  0  0  0
   19.7046   17.1290   21.6623 H   0  0  0  0  0  0  0  0  0  0  0  0
   19.4968   17.1341   23.8209 C   0  0  0  0  0  0  0  0  0  0  0  0
   18.9528   17.6767   24.6052 H   0  0  0  0  0  0  0  0  0  0  0  0
   19.2087   16.0763   23.8763 H   0  0  0  0  0  0  0  0  0  0  0  0
   20.5708   17.2066   24.0370 H   0  0  0  0  0  0  0  0  0  0  0  0
  1  2  1  0  0  0  0
  1  3  2  0  0  0  0
  1  4  1  0  0  0  0
  4  5  1  0  0  0  0
  4  6  1  0  0  0  0
  4  7  1  0  0  0  0
  7  8  1  0  0  0  0
  7  9  2  0  0  0  0
  9 10  1  0  0  0  0
  9 11  1  0  0  0  0
 11 12  1  0  0  0  0
 11 13  1  0  0  0  0
 11 14  1  0  0  0  0
 14 15  1  0  0  0  0
 14 16  1  0  0  0  0
 14 17  1  0  0  0  0
M  END
> <VConfSearch Rank>
542

> <Conf_Id>
35

> <Delta U+W>
-0.102

> <U+W>
-49.529

> <U>
13.666

> <W>
-63.195

> <W(PB)>
-65.299

> <W(SA)>
2.103

> <Valence>
15.226

> <Coulomb>
-1.822

> <VdW>
0.261

> <VdW6>
-4.165

> <VdW12>
4.426

> <Bond>
0.044

> <Angle>
2.229

> <Pdih>
12.953

> <Idih>
0.000

> <Tether>
0.000

$$$$
VeraChem MOL file


 17 16  0  0  0  0  0  0  0  0999 V2000     
   19.5008   20.0111   19.4918 C   0  0  0  0  0  0  0  0  0  0  0  0
   18.9755   19.1039   18.8771 O   0  5  0  0  0  0  0  0  0  0  0  0
   19.0742   21.1489   19.5057 O   0  0  0  0  0  0  0  0  0  0  0  0
   20.7682   19.7054   20.2793 C   0  0  0  0  0  0  0  0  0  0  0  0
   21.3313   20.6388   20.3987 H   0  0  0  0  0  0  0  0  0  0  0  0
   21.3860   19.0340   19.6717 H   0  0  0  0  0  0  0  0  0  0  0  0
   20.4760   19.0687   21.6249 C   0  0  0  0  0  0  0  0  0  0  0  0
   20.0590   18.0646   21.5714 H   0  0  0  0  0  0  0  0  0  0  0  0
   20.6974   19.6709   22.8001 C   0  0  0  0  0  0  0  0  0  0  0  0
   21.1119   20.6784   22.8140 H   0  0  0  0  0  0  0  0  0  0  0  0
   20.4257   19.0957   24.1800 C   0  0  0  0  0  0  0  0  0  0  0  0
   21.3603   19.0966   24.7571 H   0  0  0  0  0  0  0  0  0  0  0  0
   19.7455   19.7689   24.7190 H   0  0  0  0  0  0  0  0  0  0  0  0
   19.8316   17.6699   24.1867 C   0  0  0  0  0  0  0  0  0  0  0  0
   20.5120   16.9572   23.7023 H   0  0  0  0  0  0  0  0  0  0  0  0
   19.6640   17.3277   25.2162 H   0  0  0  0  0  0  0  0  0  0  0  0
   18.8675   17.6425   23.6622 H   0  0  0  0  0  0  0  0  0  0  0  0
  1  2  1  0  0  0  0
  1  3  2  0  0  0  0
  1  4  1  0  0  0  0
  4  5  1  0  0  0  0
  4  6  1  0  0  0  0
  4  7  1  0  0  0  0
  7  8  1  0  0  0  0
  7  9  2  0  0  0  0
  9 10  1  0  0  0  0
  9 11  1  0  0  0  0
 11 12  1  0  0  0  0
 11 13  1  0  0  0  0
 11 14  1  0  0  0  0
 14 15  1  0  0  0  0
 14 16  1  0  0  0  0
 14 17  1  0  0  0  0
M  END
> <VConfSearch Rank>
543

> <Conf_Id>
19

> <Delta U+W>
-0.496

> <U+W>
-49.923

> <U>
13.863

> <W>
-63.786

> <W(PB)>
-65.856

> <W(SA)>
2.070

> <Valence>
14.117

> <Coulomb>
-1.228

> <VdW>
0.974

> <VdW6>
-4.885

> <VdW12>
5.859

> <Bond>
0.094

> <Angle>
2.818

> <Pdih>
11.205

> <Idih>
0.000

> <Tether>
0.000

$$$$
VeraChem MOL file


 17 16  0  0  0  0  0  0  0  0999 V2000     
   22.9651   19.8227   21.8075 C   0  0  0  0  0  0  0  0  0  0  0  0
   22.9125   20.4697   20.7802 O   0  5  0  0  0  0  0  0  0  0  0  0
   23.5778   20.1782   22.7950 O   0  0  0  0  0  0  0  0  0  0  0  0
   22.2330   18.4881   21.8590 C   0  0  0  0  0  0  0  0  0  0  0  0
   22.8844   17.7685   22.3681 H   0  0  0  0  0  0  0  0  0  0  0  0
   22.1002   18.1296   20.8311 H   0  0  0  0  0  0  0  0  0  0  0  0
   20.9006   18.5838   22.5777 C   0  0  0  0  0  0  0  0  0  0  0  0
   20.9624   18.7850   23.6468 H   0  0  0  0  0  0  0  0  0  0  0  0
   19.7131   18.4460   21.9802 C   0  0  0  0  0  0  0  0  0  0  0  0
   19.6519   18.2500   20.9102 H   0  0  0  0  0  0  0  0  0  0  0  0
   18.3857   18.5447   22.6981 C   0  0  0  0  0  0  0  0  0  0  0  0
   17.7488   17.6945   22.4189 H   0  0  0  0  0  0  0  0  0  0  0  0
   18.5315   18.4859   23.7856 H   0  0  0  0  0  0  0  0  0  0  0  0
   17.6655   19.8622   22.3509 C   0  0  0  0  0  0  0  0  0  0  0  0
   17.4717   19.9302   21.2724 H   0  0  0  0  0  0  0  0  0  0  0  0
   16.7032   19.9289   22.8749 H   0  0  0  0  0  0  0  0  0  0  0  0
   18.2740   20.7279   22.6442 H   0  0  0  0  0  0  0  0  0  0  0  0
  1  2  1  0  0  0  0
  1  3  2  0  0  0  0
  1  4  1  0  0  0  0
  4  5  1  0  0  0  0
  4  6  1  0  0  0  0
  4  7  1  0  0  0  0
  7  8  1  0  0  0  0
  7  9  2  0  0  0  0
  9 10  1  0  0  0  0
  9 11  1  0  0  0  0
 11 12  1  0  0  0  0
 11 13  1  0  0  0  0
 11 14  1  0  0  0  0
 14 15  1  0  0  0  0
 14 16  1  0  0  0  0
 14 17  1  0  0  0  0
M  END
> <VConfSearch Rank>
544

> <Conf_Id>
7

> <Delta U+W>
-0.041

> <U+W>
-49.468

> <U>
14.121

> <W>
-63.589

> <W(PB)>
-65.660

> <W(SA)>
2.071

> <Valence>
15.230

> <Coulomb>
-1.333

> <VdW>
0.224

> <VdW6>
-4.212

> <VdW12>
4.436

> <Bond>
0.044

> <Angle>
2.230

> <Pdih>
12.956

> <Idih>
0.000

> <Tether>
0.000

$$$$
VeraChem MOL file


 17 16  0  0  0  0  0  0  0  0999 V2000     
   21.3713   17.1335   21.0377 C   0  0  0  0  0  0  0  0  0  0  0  0
   22.5285   17.3252   21.3556 O   0  5  0  0  0  0  0  0  0  0  0  0
   21.0061   16.9902   19.8875 O   0  0  0  0  0  0  0  0  0  0  0  0
   20.3248   17.0399   22.1439 C   0  0  0  0  0  0  0  0  0  0  0  0
   20.8082   16.6093   23.0286 H   0  0  0  0  0  0  0  0  0  0  0  0
   19.5681   16.3118   21.8295 H   0  0  0  0  0  0  0  0  0  0  0  0
   19.6471   18.3500   22.5198 C   0  0  0  0  0  0  0  0  0  0  0  0
   18.9038   18.2607   23.3111 H   0  0  0  0  0  0  0  0  0  0  0  0
   19.8911   19.5470   21.9733 C   0  0  0  0  0  0  0  0  0  0  0  0
   20.6299   19.6641   21.1813 H   0  0  0  0  0  0  0  0  0  0  0  0
   19.1870   20.8215   22.3831 C   0  0  0  0  0  0  0  0  0  0  0  0
   18.8393   21.3566   21.4890 H   0  0  0  0  0  0  0  0  0  0  0  0
   18.2938   20.5930   22.9807 H   0  0  0  0  0  0  0  0  0  0  0  0
   20.1246   21.7350   23.1964 C   0  0  0  0  0  0  0  0  0  0  0  0
   19.6090   22.6587   23.4898 H   0  0  0  0  0  0  0  0  0  0  0  0
   20.4652   21.2298   24.1097 H   0  0  0  0  0  0  0  0  0  0  0  0
   21.0096   22.0108   22.6080 H   0  0  0  0  0  0  0  0  0  0  0  0
  1  2  1  0  0  0  0
  1  3  2  0  0  0  0
  1  4  1  0  0  0  0
  4  5  1  0  0  0  0
  4  6  1  0  0  0  0
  4  7  1  0  0  0  0
  7  8  1  0  0  0  0
  7  9  2  0  0  0  0
  9 10  1  0  0  0  0
  9 11  1  0  0  0  0
 11 12  1  0  0  0  0
 11 13  1  0  0  0  0
 11 14  1  0  0  0  0
 14 15  1  0  0  0  0
 14 16  1  0  0  0  0
 14 17  1  0  0  0  0
M  END
> <VConfSearch Rank>
545

> <Conf_Id>
39

> <Delta U+W>
-0.422

> <U+W>
-49.849

> <U>
14.465

> <W>
-64.314

> <W(PB)>
-66.406

> <W(SA)>
2.093

> <Valence>
14.072

> <Coulomb>
-0.199

> <VdW>
0.592

> <VdW6>
-5.019

> <VdW12>
5.611

> <Bond>
0.085

> <Angle>
2.748

> <Pdih>
11.238

> <Idih>
0.001

> <Tether>
0.000

$$$$
VeraChem MOL file


 17 16  0  0  0  0  0  0  0  0999 V2000     
   17.7990   20.2739   24.0236 C   0  0  0  0  0  0  0  0  0  0  0  0
   18.0896   20.4165   25.1950 O   0  5  0  0  0  0  0  0  0  0  0  0
   16.7404   19.8121   23.6453 O   0  0  0  0  0  0  0  0  0  0  0  0
   18.8160   20.7028   22.9742 C   0  0  0  0  0  0  0  0  0  0  0  0
   19.2629   21.6467   23.3071 H   0  0  0  0  0  0  0  0  0  0  0  0
   18.2787   20.9136   22.0417 H   0  0  0  0  0  0  0  0  0  0  0  0
   19.8982   19.6629   22.7549 C   0  0  0  0  0  0  0  0  0  0  0  0
   20.5785   19.5157   23.5932 H   0  0  0  0  0  0  0  0  0  0  0  0
   20.0417   18.9536   21.6313 C   0  0  0  0  0  0  0  0  0  0  0  0
   19.3594   19.0992   20.7945 H   0  0  0  0  0  0  0  0  0  0  0  0
   21.1192   17.9144   21.4158 C   0  0  0  0  0  0  0  0  0  0  0  0
   21.5907   17.6458   22.3712 H   0  0  0  0  0  0  0  0  0  0  0  0
   20.6721   16.9945   21.0153 H   0  0  0  0  0  0  0  0  0  0  0  0
   22.1973   18.4280   20.4417 C   0  0  0  0  0  0  0  0  0  0  0  0
   22.6770   19.3345   20.8338 H   0  0  0  0  0  0  0  0  0  0  0  0
   22.9759   17.6695   20.2888 H   0  0  0  0  0  0  0  0  0  0  0  0
   21.7593   18.6684   19.4640 H   0  0  0  0  0  0  0  0  0  0  0  0
  1  2  1  0  0  0  0
  1  3  2  0  0  0  0
  1  4  1  0  0  0  0
  4  5  1  0  0  0  0
  4  6  1  0  0  0  0
  4  7  1  0  0  0  0
  7  8  1  0  0  0  0
  7  9  2  0  0  0  0
  9 10  1  0  0  0  0
  9 11  1  0  0  0  0
 11 12  1  0  0  0  0
 11 13  1  0  0  0  0
 11 14  1  0  0  0  0
 14 15  1  0  0  0  0
 14 16  1  0  0  0  0
 14 17  1  0  0  0  0
M  END
> <VConfSearch Rank>
546

> <Conf_Id>
38

> <Delta U+W>
0.000

> <U+W>
-49.427

> <U>
13.666

> <W>
-63.093

> <W(PB)>
-65.225

> <W(SA)>
2.132

> <Valence>
15.226

> <Coulomb>
-1.822

> <VdW>
0.261

> <VdW6>
-4.165

> <VdW12>
4.426

> <Bond>
0.044

> <Angle>
2.229

> <Pdih>
12.953

> <Idih>
0.000

> <Tether>
0.000

$$$$
VeraChem MOL file


 17 16  0  0  0  0  0  0  0  0999 V2000     
   19.1896   22.3028   22.1454 C   0  0  0  0  0  0  0  0  0  0  0  0
   18.5365   22.5377   21.1478 O   0  5  0  0  0  0  0  0  0  0  0  0
   19.9701   23.0927   22.6390 O   0  0  0  0  0  0  0  0  0  0  0  0
   19.0181   20.9472   22.8183 C   0  0  0  0  0  0  0  0  0  0  0  0
   18.0341   20.5493   22.5424 H   0  0  0  0  0  0  0  0  0  0  0  0
   19.0055   21.1105   23.9021 H   0  0  0  0  0  0  0  0  0  0  0  0
   20.1210   19.9728   22.4512 C   0  0  0  0  0  0  0  0  0  0  0  0
   21.1095   20.2232   22.8348 H   0  0  0  0  0  0  0  0  0  0  0  0
   19.9379   18.8755   21.7104 C   0  0  0  0  0  0  0  0  0  0  0  0
   18.9497   18.6274   21.3244 H   0  0  0  0  0  0  0  0  0  0  0  0
   21.0396   17.9071   21.3420 C   0  0  0  0  0  0  0  0  0  0  0  0
   21.0014   17.6945   20.2651 H   0  0  0  0  0  0  0  0  0  0  0  0
   22.0245   18.3515   21.5410 H   0  0  0  0  0  0  0  0  0  0  0  0
   20.9057   16.5899   22.1308 C   0  0  0  0  0  0  0  0  0  0  0  0
   19.9441   16.1035   21.9208 H   0  0  0  0  0  0  0  0  0  0  0  0
   21.7074   15.8910   21.8587 H   0  0  0  0  0  0  0  0  0  0  0  0
   20.9669   16.7746   23.2114 H   0  0  0  0  0  0  0  0  0  0  0  0
  1  2  1  0  0  0  0
  1  3  2  0  0  0  0
  1  4  1  0  0  0  0
  4  5  1  0  0  0  0
  4  6  1  0  0  0  0
  4  7  1  0  0  0  0
  7  8  1  0  0  0  0
  7  9  2  0  0  0  0
  9 10  1  0  0  0  0
  9 11  1  0  0  0  0
 11 12  1  0  0  0  0
 11 13  1  0  0  0  0
 11 14  1  0  0  0  0
 14 15  1  0  0  0  0
 14 16  1  0  0  0  0
 14 17  1  0  0  0  0
M  END
> <VConfSearch Rank>
547

> <Conf_Id>
35

> <Delta U+W>
-0.102

> <U+W>
-49.529

> <U>
13.666

> <W>
-63.195

> <W(PB)>
-65.299

> <W(SA)>
2.103

> <Valence>
15.226

> <Coulomb>
-1.822

> <VdW>
0.261

> <VdW6>
-4.165

> <VdW12>
4.426

> <Bond>
0.044

> <Angle>
2.229

> <Pdih>
12.953

> <Idih>
0.000

> <Tether>
0.000

$$$$
VeraChem MOL file


 17 16  0  0  0  0  0  0  0  0999 V2000     
   18.4234   16.7646   22.0657 C   0  0  0  0  0  0  0  0  0  0  0  0
   19.0548   15.7744   21.7529 O   0  5  0  0  0  0  0  0  0  0  0  0
   17.6035   16.7833   22.9625 O   0  0  0  0  0  0  0  0  0  0  0  0
   18.6677   18.0485   21.2837 C   0  0  0  0  0  0  0  0  0  0  0  0
   17.7752   18.6794   21.3727 H   0  0  0  0  0  0  0  0  0  0  0  0
   18.7673   17.7819   20.2251 H   0  0  0  0  0  0  0  0  0  0  0  0
   19.9068   18.7873   21.7532 C   0  0  0  0  0  0  0  0  0  0  0  0
   20.8458   18.2770   21.5458 H   0  0  0  0  0  0  0  0  0  0  0  0
   19.8788   19.9702   22.3798 C   0  0  0  0  0  0  0  0  0  0  0  0
   18.9195   20.4488   22.5740 H   0  0  0  0  0  0  0  0  0  0  0  0
   21.0761   20.7614   22.8788 C   0  0  0  0  0  0  0  0  0  0  0  0
   21.0651   21.7564   22.4136 H   0  0  0  0  0  0  0  0  0  0  0  0
   20.9619   20.9385   23.9568 H   0  0  0  0  0  0  0  0  0  0  0  0
   22.4481   20.1004   22.6206 C   0  0  0  0  0  0  0  0  0  0  0  0
   22.6204   19.9571   21.5459 H   0  0  0  0  0  0  0  0  0  0  0  0
   23.2583   20.7306   23.0098 H   0  0  0  0  0  0  0  0  0  0  0  0
   22.5142   19.1234   23.1172 H   0  0  0  0  0  0  0  0  0  0  0  0
  1  2  1  0  0  0  0
  1  3  2  0  0  0  0
  1  4  1  0  0  0  0
  4  5  1  0  0  0  0
  4  6  1  0  0  0  0
  4  7  1  0  0  0  0
  7  8  1  0  0  0  0
  7  9  2  0  0  0  0
  9 10  1  0  0  0  0
  9 11  1  0  0  0  0
 11 12  1  0  0  0  0
 11 13  1  0  0  0  0
 11 14  1  0  0  0  0
 14 15  1  0  0  0  0
 14 16  1  0  0  0  0
 14 17  1  0  0  0  0
M  END
> <VConfSearch Rank>
548

> <Conf_Id>
19

> <Delta U+W>
-0.496

> <U+W>
-49.923

> <U>
13.863

> <W>
-63.786

> <W(PB)>
-65.856

> <W(SA)>
2.070

> <Valence>
14.117

> <Coulomb>
-1.228

> <VdW>
0.974

> <VdW6>
-4.885

> <VdW12>
5.859

> <Bond>
0.094

> <Angle>
2.818

> <Pdih>
11.205

> <Idih>
0.000

> <Tether>
0.000

$$$$
VeraChem MOL file


 17 16  0  0  0  0  0  0  0  0999 V2000     
   20.1405   21.3292   20.3436 C   0  0  0  0  0  0  0  0  0  0  0  0
   19.6882   20.8273   19.3335 O   0  5  0  0  0  0  0  0  0  0  0  0
   19.7666   22.3963   20.7893 O   0  0  0  0  0  0  0  0  0  0  0  0
   21.2435   20.5876   21.0874 C   0  0  0  0  0  0  0  0  0  0  0  0
   21.9920   21.3255   21.3982 H   0  0  0  0  0  0  0  0  0  0  0  0
   21.7364   19.9082   20.3816 H   0  0  0  0  0  0  0  0  0  0  0  0
   20.7232   19.8326   22.2957 C   0  0  0  0  0  0  0  0  0  0  0  0
   20.3576   20.4557   23.1113 H   0  0  0  0  0  0  0  0  0  0  0  0
   20.6896   18.5000   22.3916 C   0  0  0  0  0  0  0  0  0  0  0  0
   21.0505   17.8774   21.5735 H   0  0  0  0  0  0  0  0  0  0  0  0
   20.1677   17.7491   23.5962 C   0  0  0  0  0  0  0  0  0  0  0  0
   20.8861   16.9713   23.8885 H   0  0  0  0  0  0  0  0  0  0  0  0
   20.0671   18.4250   24.4565 H   0  0  0  0  0  0  0  0  0  0  0  0
   18.8024   17.1006   23.2951 C   0  0  0  0  0  0  0  0  0  0  0  0
   18.8818   16.3894   22.4624 H   0  0  0  0  0  0  0  0  0  0  0  0
   18.4282   16.5575   24.1726 H   0  0  0  0  0  0  0  0  0  0  0  0
   18.0603   17.8631   23.0239 H   0  0  0  0  0  0  0  0  0  0  0  0
  1  2  1  0  0  0  0
  1  3  2  0  0  0  0
  1  4  1  0  0  0  0
  4  5  1  0  0  0  0
  4  6  1  0  0  0  0
  4  7  1  0  0  0  0
  7  8  1  0  0  0  0
  7  9  2  0  0  0  0
  9 10  1  0  0  0  0
  9 11  1  0  0  0  0
 11 12  1  0  0  0  0
 11 13  1  0  0  0  0
 11 14  1  0  0  0  0
 14 15  1  0  0  0  0
 14 16  1  0  0  0  0
 14 17  1  0  0  0  0
M  END
> <VConfSearch Rank>
549

> <Conf_Id>
7

> <Delta U+W>
-0.041

> <U+W>
-49.468

> <U>
14.121

> <W>
-63.589

> <W(PB)>
-65.660

> <W(SA)>
2.071

> <Valence>
15.230

> <Coulomb>
-1.333

> <VdW>
0.224

> <VdW6>
-4.212

> <VdW12>
4.436

> <Bond>
0.044

> <Angle>
2.230

> <Pdih>
12.956

> <Idih>
0.000

> <Tether>
0.000

$$$$
VeraChem MOL file


 17 16  0  0  0  0  0  0  0  0999 V2000     
   19.6833   16.9607   20.8234 C   0  0  0  0  0  0  0  0  0  0  0  0
   20.5256   17.0656   19.9536 O   0  5  0  0  0  0  0  0  0  0  0  0
   18.5026   16.7827   20.5965 O   0  0  0  0  0  0  0  0  0  0  0  0
   20.1361   17.0282   22.2787 C   0  0  0  0  0  0  0  0  0  0  0  0
   21.1474   16.6091   22.3360 H   0  0  0  0  0  0  0  0  0  0  0  0
   19.4970   16.3539   22.8607 H   0  0  0  0  0  0  0  0  0  0  0  0
   20.1218   18.4142   22.9077 C   0  0  0  0  0  0  0  0  0  0  0  0
   20.4484   18.4397   23.9466 H   0  0  0  0  0  0  0  0  0  0  0  0
   19.7555   19.5495   22.3013 C   0  0  0  0  0  0  0  0  0  0  0  0
   19.4258   19.5520   21.2630 H   0  0  0  0  0  0  0  0  0  0  0  0
   19.7581   20.9045   22.9735 C   0  0  0  0  0  0  0  0  0  0  0  0
   18.8042   21.4146   22.7826 H   0  0  0  0  0  0  0  0  0  0  0  0
   19.8435   20.7937   24.0633 H   0  0  0  0  0  0  0  0  0  0  0  0
   20.9192   21.7765   22.4571 C   0  0  0  0  0  0  0  0  0  0  0  0
   20.9154   22.7588   22.9472 H   0  0  0  0  0  0  0  0  0  0  0  0
   21.8862   21.2978   22.6602 H   0  0  0  0  0  0  0  0  0  0  0  0
   20.8374   21.9356   21.3739 H   0  0  0  0  0  0  0  0  0  0  0  0
  1  2  1  0  0  0  0
  1  3  2  0  0  0  0
  1  4  1  0  0  0  0
  4  5  1  0  0  0  0
  4  6  1  0  0  0  0
  4  7  1  0  0  0  0
  7  8  1  0  0  0  0
  7  9  2  0  0  0  0
  9 10  1  0  0  0  0
  9 11  1  0  0  0  0
 11 12  1  0  0  0  0
 11 13  1  0  0  0  0
 11 14  1  0  0  0  0
 14 15  1  0  0  0  0
 14 16  1  0  0  0  0
 14 17  1  0  0  0  0
M  END
> <VConfSearch Rank>
550

> <Conf_Id>
39

> <Delta U+W>
-0.422

> <U+W>
-49.849

> <U>
14.465

> <W>
-64.314

> <W(PB)>
-66.406

> <W(SA)>
2.093

> <Valence>
14.072

> <Coulomb>
-0.199

> <VdW>
0.592

> <VdW6>
-5.019

> <VdW12>
5.611

> <Bond>
0.085

> <Angle>
2.748

> <Pdih>
11.238

> <Idih>
0.001

> <Tether>
0.000

$$$$
VeraChem MOL file


 17 16  0  0  0  0  0  0  0  0999 V2000     
   17.2671   20.6255   21.7701 C   0  0  0  0  0  0  0  0  0  0  0  0
   17.1753   21.7882   22.1116 O   0  5  0  0  0  0  0  0  0  0  0  0
   16.4049   19.7944   21.9765 O   0  0  0  0  0  0  0  0  0  0  0  0
   18.5301   20.1896   21.0389 C   0  0  0  0  0  0  0  0  0  0  0  0
   18.7970   20.9818   20.3300 H   0  0  0  0  0  0  0  0  0  0  0  0
   18.2935   19.2966   20.4480 H   0  0  0  0  0  0  0  0  0  0  0  0
   19.6865   19.9253   21.9842 C   0  0  0  0  0  0  0  0  0  0  0  0
   20.0841   20.8047   22.4899 H   0  0  0  0  0  0  0  0  0  0  0  0
   20.2094   18.7166   22.2118 C   0  0  0  0  0  0  0  0  0  0  0  0
   19.8095   17.8372   21.7080 H   0  0  0  0  0  0  0  0  0  0  0  0
   21.3601   18.4544   23.1575 C   0  0  0  0  0  0  0  0  0  0  0  0
   21.5306   19.3248   23.8061 H   0  0  0  0  0  0  0  0  0  0  0  0
   21.1125   17.6127   23.8184 H   0  0  0  0  0  0  0  0  0  0  0  0
   22.6530   18.1354   22.3818 C   0  0  0  0  0  0  0  0  0  0  0  0
   22.9351   18.9746   21.7323 H   0  0  0  0  0  0  0  0  0  0  0  0
   23.4842   17.9455   23.0733 H   0  0  0  0  0  0  0  0  0  0  0  0
   22.5229   17.2449   21.7529 H   0  0  0  0  0  0  0  0  0  0  0  0
  1  2  1  0  0  0  0
  1  3  2  0  0  0  0
  1  4  1  0  0  0  0
  4  5  1  0  0  0  0
  4  6  1  0  0  0  0
  4  7  1  0  0  0  0
  7  8  1  0  0  0  0
  7  9  2  0  0  0  0
  9 10  1  0  0  0  0
  9 11  1  0  0  0  0
 11 12  1  0  0  0  0
 11 13  1  0  0  0  0
 11 14  1  0  0  0  0
 14 15  1  0  0  0  0
 14 16  1  0  0  0  0
 14 17  1  0  0  0  0
M  END
> <VConfSearch Rank>
551

> <Conf_Id>
38

> <Delta U+W>
0.000

> <U+W>
-49.427

> <U>
13.666

> <W>
-63.093

> <W(PB)>
-65.225

> <W(SA)>
2.132

> <Valence>
15.226

> <Coulomb>
-1.822

> <VdW>
0.261

> <VdW6>
-4.165

> <VdW12>
4.426

> <Bond>
0.044

> <Angle>
2.229

> <Pdih>
12.953

> <Idih>
0.000

> <Tether>
0.000

$$$$
VeraChem MOL file


 17 16  0  0  0  0  0  0  0  0999 V2000     
   19.2292   17.8988   19.3831 C   0  0  0  0  0  0  0  0  0  0  0  0
   19.2553   18.7284   18.4955 O   0  5  0  0  0  0  0  0  0  0  0  0
   18.3931   17.0200   19.4572 O   0  0  0  0  0  0  0  0  0  0  0  0
   20.3052   17.9586   20.4594 C   0  0  0  0  0  0  0  0  0  0  0  0
   21.1754   18.4824   20.0458 H   0  0  0  0  0  0  0  0  0  0  0  0
   20.6216   16.9314   20.6742 H   0  0  0  0  0  0  0  0  0  0  0  0
   19.8195   18.6303   21.7297 C   0  0  0  0  0  0  0  0  0  0  0  0
   19.0608   18.0804   22.2857 H   0  0  0  0  0  0  0  0  0  0  0  0
   20.2612   19.8122   22.1704 C   0  0  0  0  0  0  0  0  0  0  0  0
   21.0176   20.3631   21.6123 H   0  0  0  0  0  0  0  0  0  0  0  0
   19.7729   20.4824   23.4353 C   0  0  0  0  0  0  0  0  0  0  0  0
   19.5238   21.5316   23.2264 H   0  0  0  0  0  0  0  0  0  0  0  0
   18.8501   20.0043   23.7919 H   0  0  0  0  0  0  0  0  0  0  0  0
   20.8416   20.4188   24.5438 C   0  0  0  0  0  0  0  0  0  0  0  0
   21.7639   20.9240   24.2281 H   0  0  0  0  0  0  0  0  0  0  0  0
   20.4818   20.9072   25.4587 H   0  0  0  0  0  0  0  0  0  0  0  0
   21.0885   19.3772   24.7881 H   0  0  0  0  0  0  0  0  0  0  0  0
  1  2  1  0  0  0  0
  1  3  2  0  0  0  0
  1  4  1  0  0  0  0
  4  5  1  0  0  0  0
  4  6  1  0  0  0  0
  4  7  1  0  0  0  0
  7  8  1  0  0  0  0
  7  9  2  0  0  0  0
  9 10  1  0  0  0  0
  9 11  1  0  0  0  0
 11 12  1  0  0  0  0
 11 13  1  0  0  0  0
 11 14  1  0  0  0  0
 14 15  1  0  0  0  0
 14 16  1  0  0  0  0
 14 17  1  0  0  0  0
M  END
> <VConfSearch Rank>
552

> <Conf_Id>
35

> <Delta U+W>
-0.102

> <U+W>
-49.529

> <U>
13.666

> <W>
-63.195

> <W(PB)>
-65.299

> <W(SA)>
2.103

> <Valence>
15.226

> <Coulomb>
-1.822

> <VdW>
0.261

> <VdW6>
-4.165

> <VdW12>
4.426

> <Bond>
0.044

> <Angle>
2.229

> <Pdih>
12.953

> <Idih>
0.000

> <Tether>
0.000

$$$$
VeraChem MOL file


 17 16  0  0  0  0  0  0  0  0999 V2000     
   20.3157   21.7902   20.9972 C   0  0  0  0  0  0  0  0  0  0  0  0
   21.4697   22.1573   20.8949 O   0  5  0  0  0  0  0  0  0  0  0  0
   19.4921   21.9077   20.1114 O   0  0  0  0  0  0  0  0  0  0  0  0
   19.8775   21.1573   22.3115 C   0  0  0  0  0  0  0  0  0  0  0  0
   18.7924   21.2828   22.4075 H   0  0  0  0  0  0  0  0  0  0  0  0
   20.3392   21.7258   23.1271 H   0  0  0  0  0  0  0  0  0  0  0  0
   20.2683   19.6948   22.4101 C   0  0  0  0  0  0  0  0  0  0  0  0
   21.3396   19.5145   22.4799 H   0  0  0  0  0  0  0  0  0  0  0  0
   19.3892   18.6849   22.4082 C   0  0  0  0  0  0  0  0  0  0  0  0
   18.3246   18.9040   22.3325 H   0  0  0  0  0  0  0  0  0  0  0  0
   19.7096   17.2025   22.4999 C   0  0  0  0  0  0  0  0  0  0  0  0
   19.1882   16.7778   23.3684 H   0  0  0  0  0  0  0  0  0  0  0  0
   19.2877   16.6919   21.6237 H   0  0  0  0  0  0  0  0  0  0  0  0
   21.2137   16.8656   22.6020 C   0  0  0  0  0  0  0  0  0  0  0  0
   21.6584   17.3163   23.4990 H   0  0  0  0  0  0  0  0  0  0  0  0
   21.3615   15.7796   22.6631 H   0  0  0  0  0  0  0  0  0  0  0  0
   21.7596   17.2301   21.7219 H   0  0  0  0  0  0  0  0  0  0  0  0
  1  2  1  0  0  0  0
  1  3  2  0  0  0  0
  1  4  1  0  0  0  0
  4  5  1  0  0  0  0
  4  6  1  0  0  0  0
  4  7  1  0  0  0  0
  7  8  1  0  0  0  0
  7  9  2  0  0  0  0
  9 10  1  0  0  0  0
  9 11  1  0  0  0  0
 11 12  1  0  0  0  0
 11 13  1  0  0  0  0
 11 14  1  0  0  0  0
 14 15  1  0  0  0  0
 14 16  1  0  0  0  0
 14 17  1  0  0  0  0
M  END
> <VConfSearch Rank>
553

> <Conf_Id>
19

> <Delta U+W>
-0.496

> <U+W>
-49.923

> <U>
13.863

> <W>
-63.786

> <W(PB)>
-65.856

> <W(SA)>
2.070

> <Valence>
14.117

> <Coulomb>
-1.228

> <VdW>
0.974

> <VdW6>
-4.885

> <VdW12>
5.859

> <Bond>
0.094

> <Angle>
2.818

> <Pdih>
11.205

> <Idih>
0.000

> <Tether>
0.000

$$$$
VeraChem MOL file


 17 16  0  0  0  0  0  0  0  0999 V2000     
   18.7218   20.3317   24.4371 C   0  0  0  0  0  0  0  0  0  0  0  0
   17.6780   20.6675   23.9130 O   0  5  0  0  0  0  0  0  0  0  0  0
   18.7831   19.7685   25.5122 O   0  0  0  0  0  0  0  0  0  0  0  0
   20.0258   20.6423   23.7139 C   0  0  0  0  0  0  0  0  0  0  0  0
   20.7456   20.9980   24.4601 H   0  0  0  0  0  0  0  0  0  0  0  0
   19.8447   21.4729   23.0212 H   0  0  0  0  0  0  0  0  0  0  0  0
   20.5859   19.4369   22.9830 C   0  0  0  0  0  0  0  0  0  0  0  0
   20.9349   18.6264   23.6221 H   0  0  0  0  0  0  0  0  0  0  0  0
   20.6575   19.3317   21.6526 C   0  0  0  0  0  0  0  0  0  0  0  0
   20.3036   20.1404   21.0140 H   0  0  0  0  0  0  0  0  0  0  0  0
   21.2136   18.1277   20.9257 C   0  0  0  0  0  0  0  0  0  0  0  0
   21.9256   18.4552   20.1560 H   0  0  0  0  0  0  0  0  0  0  0  0
   21.7726   17.4843   21.6191 H   0  0  0  0  0  0  0  0  0  0  0  0
   20.0860   17.3090   20.2675 C   0  0  0  0  0  0  0  0  0  0  0  0
   19.5339   17.9176   19.5393 H   0  0  0  0  0  0  0  0  0  0  0  0
   20.4950   16.4364   19.7419 H   0  0  0  0  0  0  0  0  0  0  0  0
   19.3740   16.9495   21.0222 H   0  0  0  0  0  0  0  0  0  0  0  0
  1  2  1  0  0  0  0
  1  3  2  0  0  0  0
  1  4  1  0  0  0  0
  4  5  1  0  0  0  0
  4  6  1  0  0  0  0
  4  7  1  0  0  0  0
  7  8  1  0  0  0  0
  7  9  2  0  0  0  0
  9 10  1  0  0  0  0
  9 11  1  0  0  0  0
 11 12  1  0  0  0  0
 11 13  1  0  0  0  0
 11 14  1  0  0  0  0
 14 15  1  0  0  0  0
 14 16  1  0  0  0  0
 14 17  1  0  0  0  0
M  END
> <VConfSearch Rank>
554

> <Conf_Id>
7

> <Delta U+W>
-0.041

> <U+W>
-49.468

> <U>
14.121

> <W>
-63.589

> <W(PB)>
-65.660

> <W(SA)>
2.071

> <Valence>
15.230

> <Coulomb>
-1.333

> <VdW>
0.224

> <VdW6>
-4.212

> <VdW12>
4.436

> <Bond>
0.044

> <Angle>
2.230

> <Pdih>
12.956

> <Idih>
0.000

> <Tether>
0.000

$$$$
VeraChem MOL file


 17 16  0  0  0  0  0  0  0  0999 V2000     
   21.5638   18.9021   19.9353 C   0  0  0  0  0  0  0  0  0  0  0  0
   20.8617   18.0948   19.3588 O   0  5  0  0  0  0  0  0  0  0  0  0
   22.7481   18.7308   20.1479 O   0  0  0  0  0  0  0  0  0  0  0  0
   20.9310   20.2130   20.3920 C   0  0  0  0  0  0  0  0  0  0  0  0
   20.1403   20.4715   19.6781 H   0  0  0  0  0  0  0  0  0  0  0  0
   21.6881   21.0007   20.3015 H   0  0  0  0  0  0  0  0  0  0  0  0
   20.3627   20.2114   21.8041 C   0  0  0  0  0  0  0  0  0  0  0  0
   19.9160   21.1567   22.1099 H   0  0  0  0  0  0  0  0  0  0  0  0
   20.3714   19.1780   22.6544 C   0  0  0  0  0  0  0  0  0  0  0  0
   20.8108   18.2216   22.3733 H   0  0  0  0  0  0  0  0  0  0  0  0
   19.7930   19.2291   24.0511 C   0  0  0  0  0  0  0  0  0  0  0  0
   20.5153   18.8133   24.7666 H   0  0  0  0  0  0  0  0  0  0  0  0
   19.6115   20.2692   24.3550 H   0  0  0  0  0  0  0  0  0  0  0  0
   18.4740   18.4363   24.1334 C   0  0  0  0  0  0  0  0  0  0  0  0
   18.0596   18.4757   25.1491 H   0  0  0  0  0  0  0  0  0  0  0  0
   17.7266   18.8506   23.4439 H   0  0  0  0  0  0  0  0  0  0  0  0
   18.6337   17.3822   23.8710 H   0  0  0  0  0  0  0  0  0  0  0  0
  1  2  1  0  0  0  0
  1  3  2  0  0  0  0
  1  4  1  0  0  0  0
  4  5  1  0  0  0  0
  4  6  1  0  0  0  0
  4  7  1  0  0  0  0
  7  8  1  0  0  0  0
  7  9  2  0  0  0  0
  9 10  1  0  0  0  0
  9 11  1  0  0  0  0
 11 12  1  0  0  0  0
 11 13  1  0  0  0  0
 11 14  1  0  0  0  0
 14 15  1  0  0  0  0
 14 16  1  0  0  0  0
 14 17  1  0  0  0  0
M  END
> <VConfSearch Rank>
555

> <Conf_Id>
39

> <Delta U+W>
-0.422

> <U+W>
-49.849

> <U>
14.465

> <W>
-64.314

> <W(PB)>
-66.406

> <W(SA)>
2.093

> <Valence>
14.072

> <Coulomb>
-0.199

> <VdW>
0.592

> <VdW6>
-5.019

> <VdW12>
5.611

> <Bond>
0.085

> <Angle>
2.748

> <Pdih>
11.238

> <Idih>
0.001

> <Tether>
0.000

$$$$
VeraChem MOL file


 17 16  0  0  0  0  0  0  0  0999 V2000     
   17.8483   21.4023   21.4937 C   0  0  0  0  0  0  0  0  0  0  0  0
   18.2097   22.4501   20.9953 O   0  5  0  0  0  0  0  0  0  0  0  0
   16.9889   21.3265   22.3496 O   0  0  0  0  0  0  0  0  0  0  0  0
   18.5056   20.1148   21.0142 C   0  0  0  0  0  0  0  0  0  0  0  0
   18.6203   20.1824   19.9261 H   0  0  0  0  0  0  0  0  0  0  0  0
   17.8183   19.2838   21.2133 H   0  0  0  0  0  0  0  0  0  0  0  0
   19.8538   19.8733   21.6659 C   0  0  0  0  0  0  0  0  0  0  0  0
   20.6389   20.5742   21.3839 H   0  0  0  0  0  0  0  0  0  0  0  0
   20.1037   18.8858   22.5311 C   0  0  0  0  0  0  0  0  0  0  0  0
   19.3174   18.1871   22.8149 H   0  0  0  0  0  0  0  0  0  0  0  0
   21.4477   18.6488   23.1829 C   0  0  0  0  0  0  0  0  0  0  0  0
   22.0978   19.5249   23.0528 H   0  0  0  0  0  0  0  0  0  0  0  0
   21.3160   18.5118   24.2648 H   0  0  0  0  0  0  0  0  0  0  0  0
   22.1403   17.4070   22.5884 C   0  0  0  0  0  0  0  0  0  0  0  0
   22.3060   17.5318   21.5102 H   0  0  0  0  0  0  0  0  0  0  0  0
   23.1146   17.2398   23.0657 H   0  0  0  0  0  0  0  0  0  0  0  0
   21.5286   16.5078   22.7386 H   0  0  0  0  0  0  0  0  0  0  0  0
  1  2  1  0  0  0  0
  1  3  2  0  0  0  0
  1  4  1  0  0  0  0
  4  5  1  0  0  0  0
  4  6  1  0  0  0  0
  4  7  1  0  0  0  0
  7  8  1  0  0  0  0
  7  9  2  0  0  0  0
  9 10  1  0  0  0  0
  9 11  1  0  0  0  0
 11 12  1  0  0  0  0
 11 13  1  0  0  0  0
 11 14  1  0  0  0  0
 14 15  1  0  0  0  0
 14 16  1  0  0  0  0
 14 17  1  0  0  0  0
M  END
> <VConfSearch Rank>
556

> <Conf_Id>
38

> <Delta U+W>
0.000

> <U+W>
-49.427

> <U>
13.666

> <W>
-63.093

> <W(PB)>
-65.225

> <W(SA)>
2.132

> <Valence>
15.226

> <Coulomb>
-1.822

> <VdW>
0.261

> <VdW6>
-4.165

> <VdW12>
4.426

> <Bond>
0.044

> <Angle>
2.229

> <Pdih>
12.953

> <Idih>
0.000

> <Tether>
0.000

$$$$
VeraChem MOL file


 17 16  0  0  0  0  0  0  0  0999 V2000     
   17.7549   17.1349   22.2898 C   0  0  0  0  0  0  0  0  0  0  0  0
   17.9827   16.3758   23.2111 O   0  5  0  0  0  0  0  0  0  0  0  0
   17.2547   16.7852   21.2389 O   0  0  0  0  0  0  0  0  0  0  0  0
   18.1098   18.6060   22.4615 C   0  0  0  0  0  0  0  0  0  0  0  0
   18.1345   18.8300   23.5348 H   0  0  0  0  0  0  0  0  0  0  0  0
   17.2963   19.1996   22.0287 H   0  0  0  0  0  0  0  0  0  0  0  0
   19.4265   18.9669   21.8005 C   0  0  0  0  0  0  0  0  0  0  0  0
   19.4276   18.9232   20.7118 H   0  0  0  0  0  0  0  0  0  0  0  0
   20.5308   19.3163   22.4673 C   0  0  0  0  0  0  0  0  0  0  0  0
   20.5299   19.3567   23.5561 H   0  0  0  0  0  0  0  0  0  0  0  0
   21.8439   19.6720   21.8066 C   0  0  0  0  0  0  0  0  0  0  0  0
   22.6634   19.1253   22.2925 H   0  0  0  0  0  0  0  0  0  0  0  0
   21.8400   19.3626   20.7524 H   0  0  0  0  0  0  0  0  0  0  0  0
   22.1148   21.1867   21.8927 C   0  0  0  0  0  0  0  0  0  0  0  0
   22.1622   21.5174   22.9385 H   0  0  0  0  0  0  0  0  0  0  0  0
   23.0692   21.4386   21.4123 H   0  0  0  0  0  0  0  0  0  0  0  0
   21.3203   21.7540   21.3902 H   0  0  0  0  0  0  0  0  0  0  0  0
  1  2  1  0  0  0  0
  1  3  2  0  0  0  0
  1  4  1  0  0  0  0
  4  5  1  0  0  0  0
  4  6  1  0  0  0  0
  4  7  1  0  0  0  0
  7  8  1  0  0  0  0
  7  9  2  0  0  0  0
  9 10  1  0  0  0  0
  9 11  1  0  0  0  0
 11 12  1  0  0  0  0
 11 13  1  0  0  0  0
 11 14  1  0  0  0  0
 14 15  1  0  0  0  0
 14 16  1  0  0  0  0
 14 17  1  0  0  0  0
M  END
> <VConfSearch Rank>
557

> <Conf_Id>
35

> <Delta U+W>
-0.102

> <U+W>
-49.529

> <U>
13.666

> <W>
-63.195

> <W(PB)>
-65.299

> <W(SA)>
2.103

> <Valence>
15.226

> <Coulomb>
-1.822

> <VdW>
0.261

> <VdW6>
-4.165

> <VdW12>
4.426

> <Bond>
0.044

> <Angle>
2.229

> <Pdih>
12.953

> <Idih>
0.000

> <Tether>
0.000

$$$$
VeraChem MOL file


 17 16  0  0  0  0  0  0  0  0999 V2000     
   17.6754   20.5825   22.0747 C   0  0  0  0  0  0  0  0  0  0  0  0
   17.7776   21.5120   21.2985 O   0  5  0  0  0  0  0  0  0  0  0  0
   16.7221   19.8293   22.0993 O   0  0  0  0  0  0  0  0  0  0  0  0
   18.8002   20.3567   23.0764 C   0  0  0  0  0  0  0  0  0  0  0  0
   18.3908   19.8097   23.9342 H   0  0  0  0  0  0  0  0  0  0  0  0
   19.1215   21.3375   23.4456 H   0  0  0  0  0  0  0  0  0  0  0  0
   19.9780   19.6175   22.4700 C   0  0  0  0  0  0  0  0  0  0  0  0
   20.5275   20.1789   21.7164 H   0  0  0  0  0  0  0  0  0  0  0  0
   20.3338   18.3722   22.8099 C   0  0  0  0  0  0  0  0  0  0  0  0
   19.7569   17.8397   23.5654 H   0  0  0  0  0  0  0  0  0  0  0  0
   21.4950   17.5733   22.2426 C   0  0  0  0  0  0  0  0  0  0  0  0
   22.1595   17.2765   23.0654 H   0  0  0  0  0  0  0  0  0  0  0  0
   21.1098   16.6349   21.8213 H   0  0  0  0  0  0  0  0  0  0  0  0
   22.3249   18.3048   21.1646 C   0  0  0  0  0  0  0  0  0  0  0  0
   22.7718   19.2233   21.5673 H   0  0  0  0  0  0  0  0  0  0  0  0
   23.1405   17.6636   20.8059 H   0  0  0  0  0  0  0  0  0  0  0  0
   21.7015   18.5706   20.3007 H   0  0  0  0  0  0  0  0  0  0  0  0
  1  2  1  0  0  0  0
  1  3  2  0  0  0  0
  1  4  1  0  0  0  0
  4  5  1  0  0  0  0
  4  6  1  0  0  0  0
  4  7  1  0  0  0  0
  7  8  1  0  0  0  0
  7  9  2  0  0  0  0
  9 10  1  0  0  0  0
  9 11  1  0  0  0  0
 11 12  1  0  0  0  0
 11 13  1  0  0  0  0
 11 14  1  0  0  0  0
 14 15  1  0  0  0  0
 14 16  1  0  0  0  0
 14 17  1  0  0  0  0
M  END
> <VConfSearch Rank>
558

> <Conf_Id>
19

> <Delta U+W>
-0.496

> <U+W>
-49.923

> <U>
13.863

> <W>
-63.786

> <W(PB)>
-65.856

> <W(SA)>
2.070

> <Valence>
14.117

> <Coulomb>
-1.228

> <VdW>
0.974

> <VdW6>
-4.885

> <VdW12>
5.859

> <Bond>
0.094

> <Angle>
2.818

> <Pdih>
11.205

> <Idih>
0.000

> <Tether>
0.000

$$$$
VeraChem MOL file


 17 16  0  0  0  0  0  0  0  0999 V2000     
   22.9180   19.7511   21.4842 C   0  0  0  0  0  0  0  0  0  0  0  0
   22.7855   20.8452   20.9722 O   0  5  0  0  0  0  0  0  0  0  0  0
   23.7751   19.4932   22.3063 O   0  0  0  0  0  0  0  0  0  0  0  0
   21.9659   18.6380   21.0665 C   0  0  0  0  0  0  0  0  0  0  0  0
   22.5542   17.7203   20.9511 H   0  0  0  0  0  0  0  0  0  0  0  0
   21.5607   18.8859   20.0780 H   0  0  0  0  0  0  0  0  0  0  0  0
   20.8513   18.4194   22.0717 C   0  0  0  0  0  0  0  0  0  0  0  0
   21.1660   18.0208   23.0357 H   0  0  0  0  0  0  0  0  0  0  0  0
   19.5638   18.6901   21.8365 C   0  0  0  0  0  0  0  0  0  0  0  0
   19.2503   19.0935   20.8741 H   0  0  0  0  0  0  0  0  0  0  0  0
   18.4542   18.4740   22.8413 C   0  0  0  0  0  0  0  0  0  0  0  0
   17.6209   17.9401   22.3647 H   0  0  0  0  0  0  0  0  0  0  0  0
   18.8028   17.8405   23.6685 H   0  0  0  0  0  0  0  0  0  0  0  0
   17.9492   19.8164   23.4050 C   0  0  0  0  0  0  0  0  0  0  0  0
   17.5582   20.4559   22.6027 H   0  0  0  0  0  0  0  0  0  0  0  0
   17.1445   19.6538   24.1338 H   0  0  0  0  0  0  0  0  0  0  0  0
   18.7610   20.3577   23.9086 H   0  0  0  0  0  0  0  0  0  0  0  0
  1  2  1  0  0  0  0
  1  3  2  0  0  0  0
  1  4  1  0  0  0  0
  4  5  1  0  0  0  0
  4  6  1  0  0  0  0
  4  7  1  0  0  0  0
  7  8  1  0  0  0  0
  7  9  2  0  0  0  0
  9 10  1  0  0  0  0
  9 11  1  0  0  0  0
 11 12  1  0  0  0  0
 11 13  1  0  0  0  0
 11 14  1  0  0  0  0
 14 15  1  0  0  0  0
 14 16  1  0  0  0  0
 14 17  1  0  0  0  0
M  END
> <VConfSearch Rank>
559

> <Conf_Id>
7

> <Delta U+W>
-0.041

> <U+W>
-49.468

> <U>
14.121

> <W>
-63.589

> <W(PB)>
-65.660

> <W(SA)>
2.071

> <Valence>
15.230

> <Coulomb>
-1.333

> <VdW>
0.224

> <VdW6>
-4.212

> <VdW12>
4.436

> <Bond>
0.044

> <Angle>
2.230

> <Pdih>
12.956

> <Idih>
0.000

> <Tether>
0.000

$$$$
VeraChem MOL file


 17 16  0  0  0  0  0  0  0  0999 V2000     
   21.7692   21.4806   22.0116 C   0  0  0  0  0  0  0  0  0  0  0  0
   21.5427   22.0575   23.0570 O   0  5  0  0  0  0  0  0  0  0  0  0
   21.6664   22.0045   20.9198 O   0  0  0  0  0  0  0  0  0  0  0  0
   22.2345   20.0290   22.0743 C   0  0  0  0  0  0  0  0  0  0  0  0
   22.8147   19.9013   22.9956 H   0  0  0  0  0  0  0  0  0  0  0  0
   22.9385   19.8662   21.2498 H   0  0  0  0  0  0  0  0  0  0  0  0
   21.1310   18.9822   22.0171 C   0  0  0  0  0  0  0  0  0  0  0  0
   21.4849   17.9530   22.0631 H   0  0  0  0  0  0  0  0  0  0  0  0
   19.8188   19.2269   21.9210 C   0  0  0  0  0  0  0  0  0  0  0  0
   19.4384   20.2466   21.8743 H   0  0  0  0  0  0  0  0  0  0  0  0
   18.7606   18.1475   21.8662 C   0  0  0  0  0  0  0  0  0  0  0  0
   18.0634   18.3537   21.0427 H   0  0  0  0  0  0  0  0  0  0  0  0
   19.2172   17.1707   21.6552 H   0  0  0  0  0  0  0  0  0  0  0  0
   17.9800   18.0696   23.1927 C   0  0  0  0  0  0  0  0  0  0  0  0
   17.2127   17.2859   23.1467 H   0  0  0  0  0  0  0  0  0  0  0  0
   18.6537   17.8386   24.0284 H   0  0  0  0  0  0  0  0  0  0  0  0
   17.4807   19.0231   23.4097 H   0  0  0  0  0  0  0  0  0  0  0  0
  1  2  1  0  0  0  0
  1  3  2  0  0  0  0
  1  4  1  0  0  0  0
  4  5  1  0  0  0  0
  4  6  1  0  0  0  0
  4  7  1  0  0  0  0
  7  8  1  0  0  0  0
  7  9  2  0  0  0  0
  9 10  1  0  0  0  0
  9 11  1  0  0  0  0
 11 12  1  0  0  0  0
 11 13  1  0  0  0  0
 11 14  1  0  0  0  0
 14 15  1  0  0  0  0
 14 16  1  0  0  0  0
 14 17  1  0  0  0  0
M  END
> <VConfSearch Rank>
560

> <Conf_Id>
39

> <Delta U+W>
-0.422

> <U+W>
-49.849

> <U>
14.465

> <W>
-64.314

> <W(PB)>
-66.406

> <W(SA)>
2.093

> <Valence>
14.072

> <Coulomb>
-0.199

> <VdW>
0.592

> <VdW6>
-5.019

> <VdW12>
5.611

> <Bond>
0.085

> <Angle>
2.748

> <Pdih>
11.238

> <Idih>
0.001

> <Tether>
0.000

$$$$
VeraChem MOL file


 17 16  0  0  0  0  0  0  0  0999 V2000     
   20.9269   16.2615   22.6299 C   0  0  0  0  0  0  0  0  0  0  0  0
   21.7965   15.8028   21.9155 O   0  5  0  0  0  0  0  0  0  0  0  0
   19.9437   15.6374   22.9769 O   0  0  0  0  0  0  0  0  0  0  0  0
   21.0826   17.6950   23.1202 C   0  0  0  0  0  0  0  0  0  0  0  0
   22.1348   17.8448   23.3887 H   0  0  0  0  0  0  0  0  0  0  0  0
   20.4975   17.8082   24.0408 H   0  0  0  0  0  0  0  0  0  0  0  0
   20.6606   18.7141   22.0790 C   0  0  0  0  0  0  0  0  0  0  0  0
   21.2995   18.7709   21.1982 H   0  0  0  0  0  0  0  0  0  0  0  0
   19.5884   19.5039   22.1924 C   0  0  0  0  0  0  0  0  0  0  0  0
   18.9484   19.4445   23.0721 H   0  0  0  0  0  0  0  0  0  0  0  0
   19.1671   20.5169   21.1514 C   0  0  0  0  0  0  0  0  0  0  0  0
   19.6956   20.3379   20.2049 H   0  0  0  0  0  0  0  0  0  0  0  0
   18.0949   20.4065   20.9395 H   0  0  0  0  0  0  0  0  0  0  0  0
   19.4509   21.9539   21.6303 C   0  0  0  0  0  0  0  0  0  0  0  0
   20.5222   22.0958   21.8242 H   0  0  0  0  0  0  0  0  0  0  0  0
   19.1425   22.6844   20.8711 H   0  0  0  0  0  0  0  0  0  0  0  0
   18.9036   22.1735   22.5564 H   0  0  0  0  0  0  0  0  0  0  0  0
  1  2  1  0  0  0  0
  1  3  2  0  0  0  0
  1  4  1  0  0  0  0
  4  5  1  0  0  0  0
  4  6  1  0  0  0  0
  4  7  1  0  0  0  0
  7  8  1  0  0  0  0
  7  9  2  0  0  0  0
  9 10  1  0  0  0  0
  9 11  1  0  0  0  0
 11 12  1  0  0  0  0
 11 13  1  0  0  0  0
 11 14  1  0  0  0  0
 14 15  1  0  0  0  0
 14 16  1  0  0  0  0
 14 17  1  0  0  0  0
M  END
> <VConfSearch Rank>
561

> <Conf_Id>
38

> <Delta U+W>
0.000

> <U+W>
-49.427

> <U>
13.666

> <W>
-63.093

> <W(PB)>
-65.225

> <W(SA)>
2.132

> <Valence>
15.226

> <Coulomb>
-1.822

> <VdW>
0.261

> <VdW6>
-4.165

> <VdW12>
4.426

> <Bond>
0.044

> <Angle>
2.229

> <Pdih>
12.953

> <Idih>
0.000

> <Tether>
0.000

$$$$
VeraChem MOL file


 17 16  0  0  0  0  0  0  0  0999 V2000     
   16.9607   19.7600   22.1869 C   0  0  0  0  0  0  0  0  0  0  0  0
   16.6949   20.4703   23.1365 O   0  5  0  0  0  0  0  0  0  0  0  0
   16.2566   18.8409   21.8173 O   0  0  0  0  0  0  0  0  0  0  0  0
   18.2427   20.0383   21.4133 C   0  0  0  0  0  0  0  0  0  0  0  0
   18.5199   21.0870   21.5745 H   0  0  0  0  0  0  0  0  0  0  0  0
   18.0208   19.9258   20.3458 H   0  0  0  0  0  0  0  0  0  0  0  0
   19.3742   19.1097   21.8108 C   0  0  0  0  0  0  0  0  0  0  0  0
   19.2378   18.0649   21.5330 H   0  0  0  0  0  0  0  0  0  0  0  0
   20.4756   19.5020   22.4582 C   0  0  0  0  0  0  0  0  0  0  0  0
   20.6100   20.5463   22.7385 H   0  0  0  0  0  0  0  0  0  0  0  0
   21.6011   18.5739   22.8573 C   0  0  0  0  0  0  0  0  0  0  0  0
   21.8646   18.7421   23.9103 H   0  0  0  0  0  0  0  0  0  0  0  0
   21.2821   17.5256   22.7757 H   0  0  0  0  0  0  0  0  0  0  0  0
   22.8440   18.7990   21.9744 C   0  0  0  0  0  0  0  0  0  0  0  0
   23.2081   19.8307   22.0662 H   0  0  0  0  0  0  0  0  0  0  0  0
   23.6575   18.1233   22.2691 H   0  0  0  0  0  0  0  0  0  0  0  0
   22.6110   18.6112   20.9179 H   0  0  0  0  0  0  0  0  0  0  0  0
  1  2  1  0  0  0  0
  1  3  2  0  0  0  0
  1  4  1  0  0  0  0
  4  5  1  0  0  0  0
  4  6  1  0  0  0  0
  4  7  1  0  0  0  0
  7  8  1  0  0  0  0
  7  9  2  0  0  0  0
  9 10  1  0  0  0  0
  9 11  1  0  0  0  0
 11 12  1  0  0  0  0
 11 13  1  0  0  0  0
 11 14  1  0  0  0  0
 14 15  1  0  0  0  0
 14 16  1  0  0  0  0
 14 17  1  0  0  0  0
M  END
> <VConfSearch Rank>
562

> <Conf_Id>
35

> <Delta U+W>
-0.102

> <U+W>
-49.529

> <U>
13.666

> <W>
-63.195

> <W(PB)>
-65.299

> <W(SA)>
2.103

> <Valence>
15.226

> <Coulomb>
-1.822

> <VdW>
0.261

> <VdW6>
-4.165

> <VdW12>
4.426

> <Bond>
0.044

> <Angle>
2.229

> <Pdih>
12.953

> <Idih>
0.000

> <Tether>
0.000

$$$$
VeraChem MOL file


 17 16  0  0  0  0  0  0  0  0999 V2000     
   20.8154   18.8840   19.3210 C   0  0  0  0  0  0  0  0  0  0  0  0
   20.5677   19.9378   18.7686 O   0  5  0  0  0  0  0  0  0  0  0  0
   21.8292   18.2437   19.1234 O   0  0  0  0  0  0  0  0  0  0  0  0
   19.7938   18.3327   20.3070 C   0  0  0  0  0  0  0  0  0  0  0  0
   19.9337   17.2472   20.3748 H   0  0  0  0  0  0  0  0  0  0  0  0
   18.7964   18.5015   19.8850 H   0  0  0  0  0  0  0  0  0  0  0  0
   19.8974   18.9823   21.6740 C   0  0  0  0  0  0  0  0  0  0  0  0
   19.6139   20.0331   21.7003 H   0  0  0  0  0  0  0  0  0  0  0  0
   20.3067   18.3420   22.7764 C   0  0  0  0  0  0  0  0  0  0  0  0
   20.5866   17.2911   22.7104 H   0  0  0  0  0  0  0  0  0  0  0  0
   20.4374   18.9296   24.1715 C   0  0  0  0  0  0  0  0  0  0  0  0
   19.8183   18.3441   24.8646 H   0  0  0  0  0  0  0  0  0  0  0  0
   21.4717   18.7993   24.5175 H   0  0  0  0  0  0  0  0  0  0  0  0
   20.0520   20.4207   24.2897 C   0  0  0  0  0  0  0  0  0  0  0  0
   19.0044   20.5810   24.0026 H   0  0  0  0  0  0  0  0  0  0  0  0
   20.1740   20.7690   25.3236 H   0  0  0  0  0  0  0  0  0  0  0  0
   20.6883   21.0441   23.6478 H   0  0  0  0  0  0  0  0  0  0  0  0
  1  2  1  0  0  0  0
  1  3  2  0  0  0  0
  1  4  1  0  0  0  0
  4  5  1  0  0  0  0
  4  6  1  0  0  0  0
  4  7  1  0  0  0  0
  7  8  1  0  0  0  0
  7  9  2  0  0  0  0
  9 10  1  0  0  0  0
  9 11  1  0  0  0  0
 11 12  1  0  0  0  0
 11 13  1  0  0  0  0
 11 14  1  0  0  0  0
 14 15  1  0  0  0  0
 14 16  1  0  0  0  0
 14 17  1  0  0  0  0
M  END
> <VConfSearch Rank>
563

> <Conf_Id>
19

> <Delta U+W>
-0.496

> <U+W>
-49.923

> <U>
13.863

> <W>
-63.786

> <W(PB)>
-65.856

> <W(SA)>
2.070

> <Valence>
14.117

> <Coulomb>
-1.228

> <VdW>
0.974

> <VdW6>
-4.885

> <VdW12>
5.859

> <Bond>
0.094

> <Angle>
2.818

> <Pdih>
11.205

> <Idih>
0.000

> <Tether>
0.000

$$$$
VeraChem MOL file


 17 16  0  0  0  0  0  0  0  0999 V2000     
   21.0423   16.2729   22.0017 C   0  0  0  0  0  0  0  0  0  0  0  0
   21.7255   16.2934   20.9969 O   0  5  0  0  0  0  0  0  0  0  0  0
   21.3841   15.7336   23.0358 O   0  0  0  0  0  0  0  0  0  0  0  0
   19.6786   16.9500   21.9620 C   0  0  0  0  0  0  0  0  0  0  0  0
   18.9666   16.2992   22.4826 H   0  0  0  0  0  0  0  0  0  0  0  0
   19.3546   17.0080   20.9159 H   0  0  0  0  0  0  0  0  0  0  0  0
   19.6935   18.3243   22.6036 C   0  0  0  0  0  0  0  0  0  0  0  0
   19.8560   18.3328   23.6809 H   0  0  0  0  0  0  0  0  0  0  0  0
   19.5313   19.4685   21.9323 C   0  0  0  0  0  0  0  0  0  0  0  0
   19.3740   19.4597   20.8542 H   0  0  0  0  0  0  0  0  0  0  0  0
   19.5495   20.8381   22.5736 C   0  0  0  0  0  0  0  0  0  0  0  0
   18.6858   21.4216   22.2270 H   0  0  0  0  0  0  0  0  0  0  0  0
   19.4550   20.7529   23.6649 H   0  0  0  0  0  0  0  0  0  0  0  0
   20.8494   21.5919   22.2318 C   0  0  0  0  0  0  0  0  0  0  0  0
   20.9508   21.7259   21.1468 H   0  0  0  0  0  0  0  0  0  0  0  0
   20.8576   22.5848   22.6999 H   0  0  0  0  0  0  0  0  0  0  0  0
   21.7269   21.0383   22.5912 H   0  0  0  0  0  0  0  0  0  0  0  0
  1  2  1  0  0  0  0
  1  3  2  0  0  0  0
  1  4  1  0  0  0  0
  4  5  1  0  0  0  0
  4  6  1  0  0  0  0
  4  7  1  0  0  0  0
  7  8  1  0  0  0  0
  7  9  2  0  0  0  0
  9 10  1  0  0  0  0
  9 11  1  0  0  0  0
 11 12  1  0  0  0  0
 11 13  1  0  0  0  0
 11 14  1  0  0  0  0
 14 15  1  0  0  0  0
 14 16  1  0  0  0  0
 14 17  1  0  0  0  0
M  END
> <VConfSearch Rank>
564

> <Conf_Id>
7

> <Delta U+W>
-0.041

> <U+W>
-49.468

> <U>
14.121

> <W>
-63.589

> <W(PB)>
-65.660

> <W(SA)>
2.071

> <Valence>
15.230

> <Coulomb>
-1.333

> <VdW>
0.224

> <VdW6>
-4.212

> <VdW12>
4.436

> <Bond>
0.044

> <Angle>
2.230

> <Pdih>
12.956

> <Idih>
0.000

> <Tether>
0.000

$$$$
VeraChem MOL file


 17 16  0  0  0  0  0  0  0  0999 V2000     
   17.8903   20.8879   22.3155 C   0  0  0  0  0  0  0  0  0  0  0  0
   17.1947   20.2928   23.1150 O   0  5  0  0  0  0  0  0  0  0  0  0
   17.5195   21.1919   21.1987 O   0  0  0  0  0  0  0  0  0  0  0  0
   19.2945   21.3000   22.7467 C   0  0  0  0  0  0  0  0  0  0  0  0
   19.2698   21.5020   23.8239 H   0  0  0  0  0  0  0  0  0  0  0  0
   19.5259   22.2576   22.2658 H   0  0  0  0  0  0  0  0  0  0  0  0
   20.3969   20.2959   22.4411 C   0  0  0  0  0  0  0  0  0  0  0  0
   21.3910   20.6099   22.7569 H   0  0  0  0  0  0  0  0  0  0  0  0
   20.2368   19.1101   21.8418 C   0  0  0  0  0  0  0  0  0  0  0  0
   19.2536   18.7718   21.5170 H   0  0  0  0  0  0  0  0  0  0  0  0
   21.3688   18.1474   21.5593 C   0  0  0  0  0  0  0  0  0  0  0  0
   21.3091   17.8005   20.5188 H   0  0  0  0  0  0  0  0  0  0  0  0
   22.3391   18.6510   21.6684 H   0  0  0  0  0  0  0  0  0  0  0  0
   21.3142   16.9347   22.5089 C   0  0  0  0  0  0  0  0  0  0  0  0
   22.1368   16.2390   22.2985 H   0  0  0  0  0  0  0  0  0  0  0  0
   21.3980   17.2553   23.5557 H   0  0  0  0  0  0  0  0  0  0  0  0
   20.3684   16.3892   22.3932 H   0  0  0  0  0  0  0  0  0  0  0  0
  1  2  1  0  0  0  0
  1  3  2  0  0  0  0
  1  4  1  0  0  0  0
  4  5  1  0  0  0  0
  4  6  1  0  0  0  0
  4  7  1  0  0  0  0
  7  8  1  0  0  0  0
  7  9  2  0  0  0  0
  9 10  1  0  0  0  0
  9 11  1  0  0  0  0
 11 12  1  0  0  0  0
 11 13  1  0  0  0  0
 11 14  1  0  0  0  0
 14 15  1  0  0  0  0
 14 16  1  0  0  0  0
 14 17  1  0  0  0  0
M  END
> <VConfSearch Rank>
565

> <Conf_Id>
39

> <Delta U+W>
-0.422

> <U+W>
-49.849

> <U>
14.465

> <W>
-64.314

> <W(PB)>
-66.406

> <W(SA)>
2.093

> <Valence>
14.072

> <Coulomb>
-0.199

> <VdW>
0.592

> <VdW6>
-5.019

> <VdW12>
5.611

> <Bond>
0.085

> <Angle>
2.748

> <Pdih>
11.238

> <Idih>
0.001

> <Tether>
0.000

$$$$
VeraChem MOL file


 17 16  0  0  0  0  0  0  0  0999 V2000     
   18.3262   21.6124   20.9356 C   0  0  0  0  0  0  0  0  0  0  0  0
   18.9123   22.6155   20.5789 O   0  5  0  0  0  0  0  0  0  0  0  0
   17.2597   21.6285   21.5180 O   0  0  0  0  0  0  0  0  0  0  0  0
   18.9620   20.2625   20.6303 C   0  0  0  0  0  0  0  0  0  0  0  0
   19.3805   20.3106   19.6183 H   0  0  0  0  0  0  0  0  0  0  0  0
   18.1687   19.5055   20.6137 H   0  0  0  0  0  0  0  0  0  0  0  0
   20.0458   19.8926   21.6250 C   0  0  0  0  0  0  0  0  0  0  0  0
   20.9428   20.5099   21.5863 H   0  0  0  0  0  0  0  0  0  0  0  0
   19.9478   18.8913   22.5047 C   0  0  0  0  0  0  0  0  0  0  0  0
   19.0493   18.2763   22.5448 H   0  0  0  0  0  0  0  0  0  0  0  0
   21.0280   18.5263   23.4984 C   0  0  0  0  0  0  0  0  0  0  0  0
   21.7709   19.3324   23.5719 H   0  0  0  0  0  0  0  0  0  0  0  0
   20.5881   18.4108   24.4982 H   0  0  0  0  0  0  0  0  0  0  0  0
   21.7338   17.2176   23.0933 C   0  0  0  0  0  0  0  0  0  0  0  0
   22.2040   17.3176   22.1061 H   0  0  0  0  0  0  0  0  0  0  0  0
   22.5160   16.9576   23.8183 H   0  0  0  0  0  0  0  0  0  0  0  0
   21.0198   16.3848   23.0493 H   0  0  0  0  0  0  0  0  0  0  0  0
  1  2  1  0  0  0  0
  1  3  2  0  0  0  0
  1  4  1  0  0  0  0
  4  5  1  0  0  0  0
  4  6  1  0  0  0  0
  4  7  1  0  0  0  0
  7  8  1  0  0  0  0
  7  9  2  0  0  0  0
  9 10  1  0  0  0  0
  9 11  1  0  0  0  0
 11 12  1  0  0  0  0
 11 13  1  0  0  0  0
 11 14  1  0  0  0  0
 14 15  1  0  0  0  0
 14 16  1  0  0  0  0
 14 17  1  0  0  0  0
M  END
> <VConfSearch Rank>
566

> <Conf_Id>
38

> <Delta U+W>
0.000

> <U+W>
-49.427

> <U>
13.666

> <W>
-63.093

> <W(PB)>
-65.225

> <W(SA)>
2.132

> <Valence>
15.226

> <Coulomb>
-1.822

> <VdW>
0.261

> <VdW6>
-4.165

> <VdW12>
4.426

> <Bond>
0.044

> <Angle>
2.229

> <Pdih>
12.953

> <Idih>
0.000

> <Tether>
0.000

$$$$
VeraChem MOL file


 17 16  0  0  0  0  0  0  0  0999 V2000     
   18.6068   17.0401   20.4120 C   0  0  0  0  0  0  0  0  0  0  0  0
   18.1377   16.2123   21.1679 O   0  5  0  0  0  0  0  0  0  0  0  0
   19.0942   16.7653   19.3332 O   0  0  0  0  0  0  0  0  0  0  0  0
   18.5784   18.5029   20.8353 C   0  0  0  0  0  0  0  0  0  0  0  0
   17.7726   18.6326   21.5676 H   0  0  0  0  0  0  0  0  0  0  0  0
   18.3120   19.1009   19.9561 H   0  0  0  0  0  0  0  0  0  0  0  0
   19.9065   18.9700   21.3998 C   0  0  0  0  0  0  0  0  0  0  0  0
   20.7245   19.0222   20.6819 H   0  0  0  0  0  0  0  0  0  0  0  0
   20.1039   19.3011   22.6795 C   0  0  0  0  0  0  0  0  0  0  0  0
   19.2863   19.2457   23.3975 H   0  0  0  0  0  0  0  0  0  0  0  0
   21.4298   19.7630   23.2415 C   0  0  0  0  0  0  0  0  0  0  0  0
   21.6563   19.2072   24.1615 H   0  0  0  0  0  0  0  0  0  0  0  0
   22.2430   19.5474   22.5347 H   0  0  0  0  0  0  0  0  0  0  0  0
   21.4062   21.2734   23.5465 C   0  0  0  0  0  0  0  0  0  0  0  0
   20.6261   21.5126   24.2810 H   0  0  0  0  0  0  0  0  0  0  0  0
   22.3707   21.6025   23.9546 H   0  0  0  0  0  0  0  0  0  0  0  0
   21.2067   21.8521   22.6349 H   0  0  0  0  0  0  0  0  0  0  0  0
  1  2  1  0  0  0  0
  1  3  2  0  0  0  0
  1  4  1  0  0  0  0
  4  5  1  0  0  0  0
  4  6  1  0  0  0  0
  4  7  1  0  0  0  0
  7  8  1  0  0  0  0
  7  9  2  0  0  0  0
  9 10  1  0  0  0  0
  9 11  1  0  0  0  0
 11 12  1  0  0  0  0
 11 13  1  0  0  0  0
 11 14  1  0  0  0  0
 14 15  1  0  0  0  0
 14 16  1  0  0  0  0
 14 17  1  0  0  0  0
M  END
> <VConfSearch Rank>
567

> <Conf_Id>
35

> <Delta U+W>
-0.102

> <U+W>
-49.529

> <U>
13.666

> <W>
-63.195

> <W(PB)>
-65.299

> <W(SA)>
2.103

> <Valence>
15.226

> <Coulomb>
-1.822

> <VdW>
0.261

> <VdW6>
-4.165

> <VdW12>
4.426

> <Bond>
0.044

> <Angle>
2.229

> <Pdih>
12.953

> <Idih>
0.000

> <Tether>
0.000

$$$$
VeraChem MOL file


 17 16  0  0  0  0  0  0  0  0999 V2000     
   20.7202   21.9950   22.4714 C   0  0  0  0  0  0  0  0  0  0  0  0
   20.3824   22.3716   23.5764 O   0  5  0  0  0  0  0  0  0  0  0  0
   21.7664   22.3159   21.9428 O   0  0  0  0  0  0  0  0  0  0  0  0
   19.7753   21.0787   21.7052 C   0  0  0  0  0  0  0  0  0  0  0  0
   19.9897   21.1827   20.6347 H   0  0  0  0  0  0  0  0  0  0  0  0
   18.7537   21.4428   21.8641 H   0  0  0  0  0  0  0  0  0  0  0  0
   19.8863   19.6312   22.1455 C   0  0  0  0  0  0  0  0  0  0  0  0
   19.5346   19.4358   23.1570 H   0  0  0  0  0  0  0  0  0  0  0  0
   20.3783   18.6519   21.3762 C   0  0  0  0  0  0  0  0  0  0  0  0
   20.7250   18.8865   20.3703 H   0  0  0  0  0  0  0  0  0  0  0  0
   20.5216   17.1870   21.7531 C   0  0  0  0  0  0  0  0  0  0  0  0
   19.9693   16.5760   21.0263 H   0  0  0  0  0  0  0  0  0  0  0  0
   21.5745   16.8929   21.6461 H   0  0  0  0  0  0  0  0  0  0  0  0
   20.0423   16.8302   23.1775 C   0  0  0  0  0  0  0  0  0  0  0  0
   18.9765   17.0611   23.3040 H   0  0  0  0  0  0  0  0  0  0  0  0
   20.1795   15.7587   23.3726 H   0  0  0  0  0  0  0  0  0  0  0  0
   20.6112   17.3852   23.9350 H   0  0  0  0  0  0  0  0  0  0  0  0
  1  2  1  0  0  0  0
  1  3  2  0  0  0  0
  1  4  1  0  0  0  0
  4  5  1  0  0  0  0
  4  6  1  0  0  0  0
  4  7  1  0  0  0  0
  7  8  1  0  0  0  0
  7  9  2  0  0  0  0
  9 10  1  0  0  0  0
  9 11  1  0  0  0  0
 11 12  1  0  0  0  0
 11 13  1  0  0  0  0
 11 14  1  0  0  0  0
 14 15  1  0  0  0  0
 14 16  1  0  0  0  0
 14 17  1  0  0  0  0
M  END
> <VConfSearch Rank>
568

> <Conf_Id>
19

> <Delta U+W>
-0.496

> <U+W>
-49.923

> <U>
13.863

> <W>
-63.786

> <W(PB)>
-65.856

> <W(SA)>
2.070

> <Valence>
14.117

> <Coulomb>
-1.228

> <VdW>
0.974

> <VdW6>
-4.885

> <VdW12>
5.859

> <Bond>
0.094

> <Angle>
2.818

> <Pdih>
11.205

> <Idih>
0.000

> <Tether>
0.000

$$$$
VeraChem MOL file


 17 16  0  0  0  0  0  0  0  0999 V2000     
   19.9897   20.3295   19.5678 C   0  0  0  0  0  0  0  0  0  0  0  0
   20.1565   19.3868   18.8193 O   0  5  0  0  0  0  0  0  0  0  0  0
   19.1141   21.1591   19.4188 O   0  0  0  0  0  0  0  0  0  0  0  0
   20.9348   20.4882   20.7516 C   0  0  0  0  0  0  0  0  0  0  0  0
   21.1894   21.5510   20.8363 H   0  0  0  0  0  0  0  0  0  0  0  0
   21.8642   19.9528   20.5229 H   0  0  0  0  0  0  0  0  0  0  0  0
   20.3274   19.9928   22.0502 C   0  0  0  0  0  0  0  0  0  0  0  0
   19.4876   20.5780   22.4238 H   0  0  0  0  0  0  0  0  0  0  0  0
   20.7550   18.9164   22.7170 C   0  0  0  0  0  0  0  0  0  0  0  0
   21.5915   18.3287   22.3403 H   0  0  0  0  0  0  0  0  0  0  0  0
   20.1461   18.4224   24.0102 C   0  0  0  0  0  0  0  0  0  0  0  0
   20.9404   18.2252   24.7428 H   0  0  0  0  0  0  0  0  0  0  0  0
   19.4970   19.1931   24.4485 H   0  0  0  0  0  0  0  0  0  0  0  0
   19.3277   17.1368   23.7810 C   0  0  0  0  0  0  0  0  0  0  0  0
   19.9615   16.3356   23.3787 H   0  0  0  0  0  0  0  0  0  0  0  0
   18.8878   16.7831   24.7224 H   0  0  0  0  0  0  0  0  0  0  0  0
   18.5110   17.3166   23.0694 H   0  0  0  0  0  0  0  0  0  0  0  0
  1  2  1  0  0  0  0
  1  3  2  0  0  0  0
  1  4  1  0  0  0  0
  4  5  1  0  0  0  0
  4  6  1  0  0  0  0
  4  7  1  0  0  0  0
  7  8  1  0  0  0  0
  7  9  2  0  0  0  0
  9 10  1  0  0  0  0
  9 11  1  0  0  0  0
 11 12  1  0  0  0  0
 11 13  1  0  0  0  0
 11 14  1  0  0  0  0
 14 15  1  0  0  0  0
 14 16  1  0  0  0  0
 14 17  1  0  0  0  0
M  END
> <VConfSearch Rank>
569

> <Conf_Id>
7

> <Delta U+W>
-0.041

> <U+W>
-49.468

> <U>
14.121

> <W>
-63.589

> <W(PB)>
-65.660

> <W(SA)>
2.071

> <Valence>
15.230

> <Coulomb>
-1.333

> <VdW>
0.224

> <VdW6>
-4.212

> <VdW12>
4.436

> <Bond>
0.044

> <Angle>
2.230

> <Pdih>
12.956

> <Idih>
0.000

> <Tether>
0.000

$$$$
VeraChem MOL file


 17 16  0  0  0  0  0  0  0  0999 V2000     
   17.4588   19.9702   22.1897 C   0  0  0  0  0  0  0  0  0  0  0  0
   17.2541   19.9670   20.9917 O   0  5  0  0  0  0  0  0  0  0  0  0
   17.2113   20.9169   22.9104 O   0  0  0  0  0  0  0  0  0  0  0  0
   18.0312   18.7080   22.8275 C   0  0  0  0  0  0  0  0  0  0  0  0
   17.6598   17.8465   22.2604 H   0  0  0  0  0  0  0  0  0  0  0  0
   17.6021   18.6153   23.8320 H   0  0  0  0  0  0  0  0  0  0  0  0
   19.5496   18.6459   22.9136 C   0  0  0  0  0  0  0  0  0  0  0  0
   19.9369   17.7369   23.3722 H   0  0  0  0  0  0  0  0  0  0  0  0
   20.4010   19.5846   22.4835 C   0  0  0  0  0  0  0  0  0  0  0  0
   20.0400   20.5023   22.0206 H   0  0  0  0  0  0  0  0  0  0  0  0
   21.9055   19.4744   22.5943 C   0  0  0  0  0  0  0  0  0  0  0  0
   22.3155   20.4051   23.0093 H   0  0  0  0  0  0  0  0  0  0  0  0
   22.1826   18.6703   23.2899 H   0  0  0  0  0  0  0  0  0  0  0  0
   22.5433   19.2006   21.2184 C   0  0  0  0  0  0  0  0  0  0  0  0
   23.6349   19.1230   21.3045 H   0  0  0  0  0  0  0  0  0  0  0  0
   22.1670   18.2602   20.7946 H   0  0  0  0  0  0  0  0  0  0  0  0
   22.3138   20.0097   20.5125 H   0  0  0  0  0  0  0  0  0  0  0  0
  1  2  1  0  0  0  0
  1  3  2  0  0  0  0
  1  4  1  0  0  0  0
  4  5  1  0  0  0  0
  4  6  1  0  0  0  0
  4  7  1  0  0  0  0
  7  8  1  0  0  0  0
  7  9  2  0  0  0  0
  9 10  1  0  0  0  0
  9 11  1  0  0  0  0
 11 12  1  0  0  0  0
 11 13  1  0  0  0  0
 11 14  1  0  0  0  0
 14 15  1  0  0  0  0
 14 16  1  0  0  0  0
 14 17  1  0  0  0  0
M  END
> <VConfSearch Rank>
570

> <Conf_Id>
39

> <Delta U+W>
-0.422

> <U+W>
-49.849

> <U>
14.465

> <W>
-64.314

> <W(PB)>
-66.406

> <W(SA)>
2.093

> <Valence>
14.072

> <Coulomb>
-0.199

> <VdW>
0.592

> <VdW6>
-5.019

> <VdW12>
5.611

> <Bond>
0.085

> <Angle>
2.748

> <Pdih>
11.238

> <Idih>
0.001

> <Tether>
0.000

$$$$
VeraChem MOL file


 17 16  0  0  0  0  0  0  0  0999 V2000     
   18.3611   20.3711   24.5047 C   0  0  0  0  0  0  0  0  0  0  0  0
   18.9232   20.4909   25.5756 O   0  5  0  0  0  0  0  0  0  0  0  0
   17.2223   19.9641   24.3855 O   0  0  0  0  0  0  0  0  0  0  0  0
   19.1255   20.7577   23.2455 C   0  0  0  0  0  0  0  0  0  0  0  0
   19.6834   21.6763   23.4610 H   0  0  0  0  0  0  0  0  0  0  0  0
   18.3968   21.0012   22.4629 H   0  0  0  0  0  0  0  0  0  0  0  0
   20.0746   19.6680   22.7845 C   0  0  0  0  0  0  0  0  0  0  0  0
   20.9234   19.4818   23.4419 H   0  0  0  0  0  0  0  0  0  0  0  0
   19.9176   18.9607   21.6614 C   0  0  0  0  0  0  0  0  0  0  0  0
   19.0670   19.1454   21.0060 H   0  0  0  0  0  0  0  0  0  0  0  0
   20.8629   17.8719   21.2053 C   0  0  0  0  0  0  0  0  0  0  0  0
   21.5302   17.5737   22.0257 H   0  0  0  0  0  0  0  0  0  0  0  0
   20.2904   16.9778   20.9239 H   0  0  0  0  0  0  0  0  0  0  0  0
   21.7083   18.3396   20.0046 C   0  0  0  0  0  0  0  0  0  0  0  0
   22.3100   19.2188   20.2703 H   0  0  0  0  0  0  0  0  0  0  0  0
   22.3918   17.5452   19.6777 H   0  0  0  0  0  0  0  0  0  0  0  0
   21.0670   18.6081   19.1549 H   0  0  0  0  0  0  0  0  0  0  0  0
  1  2  1  0  0  0  0
  1  3  2  0  0  0  0
  1  4  1  0  0  0  0
  4  5  1  0  0  0  0
  4  6  1  0  0  0  0
  4  7  1  0  0  0  0
  7  8  1  0  0  0  0
  7  9  2  0  0  0  0
  9 10  1  0  0  0  0
  9 11  1  0  0  0  0
 11 12  1  0  0  0  0
 11 13  1  0  0  0  0
 11 14  1  0  0  0  0
 14 15  1  0  0  0  0
 14 16  1  0  0  0  0
 14 17  1  0  0  0  0
M  END
> <VConfSearch Rank>
571

> <Conf_Id>
38

> <Delta U+W>
0.000

> <U+W>
-49.427

> <U>
13.666

> <W>
-63.093

> <W(PB)>
-65.225

> <W(SA)>
2.132

> <Valence>
15.226

> <Coulomb>
-1.822

> <VdW>
0.261

> <VdW6>
-4.165

> <VdW12>
4.426

> <Bond>
0.044

> <Angle>
2.229

> <Pdih>
12.953

> <Idih>
0.000

> <Tether>
0.000

$$$$
VeraChem MOL file


 17 16  0  0  0  0  0  0  0  0999 V2000     
   17.0216   19.4661   22.8711 C   0  0  0  0  0  0  0  0  0  0  0  0
   16.3717   18.8056   22.0848 O   0  5  0  0  0  0  0  0  0  0  0  0
   16.6446   20.5260   23.3310 O   0  0  0  0  0  0  0  0  0  0  0  0
   18.3804   18.9359   23.3095 C   0  0  0  0  0  0  0  0  0  0  0  0
   18.3852   17.8481   23.1709 H   0  0  0  0  0  0  0  0  0  0  0  0
   18.4816   19.1225   24.3849 H   0  0  0  0  0  0  0  0  0  0  0  0
   19.5271   19.5848   22.5581 C   0  0  0  0  0  0  0  0  0  0  0  0
   19.6853   20.6412   22.7731 H   0  0  0  0  0  0  0  0  0  0  0  0
   20.3102   18.9448   21.6844 C   0  0  0  0  0  0  0  0  0  0  0  0
   20.1495   17.8893   21.4676 H   0  0  0  0  0  0  0  0  0  0  0  0
   21.4508   19.5945   20.9331 C   0  0  0  0  0  0  0  0  0  0  0  0
   21.3814   19.3448   19.8657 H   0  0  0  0  0  0  0  0  0  0  0  0
   21.3851   20.6888   21.0059 H   0  0  0  0  0  0  0  0  0  0  0  0
   22.8129   19.1277   21.4824 C   0  0  0  0  0  0  0  0  0  0  0  0
   22.9217   18.0394   21.3868 H   0  0  0  0  0  0  0  0  0  0  0  0
   23.6365   19.6018   20.9329 H   0  0  0  0  0  0  0  0  0  0  0  0
   22.9159   19.3898   22.5436 H   0  0  0  0  0  0  0  0  0  0  0  0
  1  2  1  0  0  0  0
  1  3  2  0  0  0  0
  1  4  1  0  0  0  0
  4  5  1  0  0  0  0
  4  6  1  0  0  0  0
  4  7  1  0  0  0  0
  7  8  1  0  0  0  0
  7  9  2  0  0  0  0
  9 10  1  0  0  0  0
  9 11  1  0  0  0  0
 11 12  1  0  0  0  0
 11 13  1  0  0  0  0
 11 14  1  0  0  0  0
 14 15  1  0  0  0  0
 14 16  1  0  0  0  0
 14 17  1  0  0  0  0
M  END
> <VConfSearch Rank>
572

> <Conf_Id>
35

> <Delta U+W>
-0.102

> <U+W>
-49.529

> <U>
13.666

> <W>
-63.195

> <W(PB)>
-65.299

> <W(SA)>
2.103

> <Valence>
15.226

> <Coulomb>
-1.822

> <VdW>
0.261

> <VdW6>
-4.165

> <VdW12>
4.426

> <Bond>
0.044

> <Angle>
2.229

> <Pdih>
12.953

> <Idih>
0.000

> <Tether>
0.000

$$$$
VeraChem MOL file


 17 16  0  0  0  0  0  0  0  0999 V2000     
   19.0663   21.3591   23.7069 C   0  0  0  0  0  0  0  0  0  0  0  0
   19.4300   21.3136   24.8657 O   0  5  0  0  0  0  0  0  0  0  0  0
   19.0623   22.3772   23.0434 O   0  0  0  0  0  0  0  0  0  0  0  0
   18.5806   20.0708   23.0557 C   0  0  0  0  0  0  0  0  0  0  0  0
   17.9149   20.3360   22.2256 H   0  0  0  0  0  0  0  0  0  0  0  0
   17.9745   19.5312   23.7925 H   0  0  0  0  0  0  0  0  0  0  0  0
   19.7236   19.1943   22.5796 C   0  0  0  0  0  0  0  0  0  0  0  0
   20.3309   18.7675   23.3759 H   0  0  0  0  0  0  0  0  0  0  0  0
   19.9920   18.9515   21.2905 C   0  0  0  0  0  0  0  0  0  0  0  0
   19.3645   19.4000   20.5210 H   0  0  0  0  0  0  0  0  0  0  0  0
   21.1183   18.0901   20.7447 C   0  0  0  0  0  0  0  0  0  0  0  0
   20.6890   17.2970   20.1176 H   0  0  0  0  0  0  0  0  0  0  0  0
   21.7366   18.6975   20.0699 H   0  0  0  0  0  0  0  0  0  0  0  0
   22.0263   17.4478   21.8166 C   0  0  0  0  0  0  0  0  0  0  0  0
   21.4492   16.7886   22.4783 H   0  0  0  0  0  0  0  0  0  0  0  0
   22.8124   16.8448   21.3440 H   0  0  0  0  0  0  0  0  0  0  0  0
   22.5151   18.2159   22.4303 H   0  0  0  0  0  0  0  0  0  0  0  0
  1  2  1  0  0  0  0
  1  3  2  0  0  0  0
  1  4  1  0  0  0  0
  4  5  1  0  0  0  0
  4  6  1  0  0  0  0
  4  7  1  0  0  0  0
  7  8  1  0  0  0  0
  7  9  2  0  0  0  0
  9 10  1  0  0  0  0
  9 11  1  0  0  0  0
 11 12  1  0  0  0  0
 11 13  1  0  0  0  0
 11 14  1  0  0  0  0
 14 15  1  0  0  0  0
 14 16  1  0  0  0  0
 14 17  1  0  0  0  0
M  END
> <VConfSearch Rank>
573

> <Conf_Id>
19

> <Delta U+W>
-0.496

> <U+W>
-49.923

> <U>
13.863

> <W>
-63.786

> <W(PB)>
-65.856

> <W(SA)>
2.070

> <Valence>
14.117

> <Coulomb>
-1.228

> <VdW>
0.974

> <VdW6>
-4.885

> <VdW12>
5.859

> <Bond>
0.094

> <Angle>
2.818

> <Pdih>
11.205

> <Idih>
0.000

> <Tether>
0.000

$$$$
VeraChem MOL file


 17 16  0  0  0  0  0  0  0  0999 V2000     
   19.0860   19.8523   19.5945 C   0  0  0  0  0  0  0  0  0  0  0  0
   20.0738   20.2768   19.0281 O   0  5  0  0  0  0  0  0  0  0  0  0
   18.2936   19.0872   19.0810 O   0  0  0  0  0  0  0  0  0  0  0  0
   18.8186   20.3112   21.0220 C   0  0  0  0  0  0  0  0  0  0  0  0
   17.7458   20.5176   21.1118 H   0  0  0  0  0  0  0  0  0  0  0  0
   19.3426   21.2614   21.1809 H   0  0  0  0  0  0  0  0  0  0  0  0
   19.2386   19.2798   22.0519 C   0  0  0  0  0  0  0  0  0  0  0  0
   18.6524   18.3614   22.0561 H   0  0  0  0  0  0  0  0  0  0  0  0
   20.2534   19.4416   22.9064 C   0  0  0  0  0  0  0  0  0  0  0  0
   20.8426   20.3581   22.8983 H   0  0  0  0  0  0  0  0  0  0  0  0
   20.6724   18.4107   23.9307 C   0  0  0  0  0  0  0  0  0  0  0  0
   20.7957   18.8906   24.9110 H   0  0  0  0  0  0  0  0  0  0  0  0
   19.8914   17.6471   24.0492 H   0  0  0  0  0  0  0  0  0  0  0  0
   21.9932   17.7298   23.5221 C   0  0  0  0  0  0  0  0  0  0  0  0
   22.8026   18.4663   23.4339 H   0  0  0  0  0  0  0  0  0  0  0  0
   22.2923   16.9825   24.2685 H   0  0  0  0  0  0  0  0  0  0  0  0
   21.8865   17.2216   22.5546 H   0  0  0  0  0  0  0  0  0  0  0  0
  1  2  1  0  0  0  0
  1  3  2  0  0  0  0
  1  4  1  0  0  0  0
  4  5  1  0  0  0  0
  4  6  1  0  0  0  0
  4  7  1  0  0  0  0
  7  8  1  0  0  0  0
  7  9  2  0  0  0  0
  9 10  1  0  0  0  0
  9 11  1  0  0  0  0
 11 12  1  0  0  0  0
 11 13  1  0  0  0  0
 11 14  1  0  0  0  0
 14 15  1  0  0  0  0
 14 16  1  0  0  0  0
 14 17  1  0  0  0  0
M  END
> <VConfSearch Rank>
574

> <Conf_Id>
7

> <Delta U+W>
-0.041

> <U+W>
-49.468

> <U>
14.121

> <W>
-63.589

> <W(PB)>
-65.660

> <W(SA)>
2.071

> <Valence>
15.230

> <Coulomb>
-1.333

> <VdW>
0.224

> <VdW6>
-4.212

> <VdW12>
4.436

> <Bond>
0.044

> <Angle>
2.230

> <Pdih>
12.956

> <Idih>
0.000

> <Tether>
0.000

$$$$
VeraChem MOL file


 17 16  0  0  0  0  0  0  0  0999 V2000     
   20.0317   16.9790   23.8010 C   0  0  0  0  0  0  0  0  0  0  0  0
   20.2690   17.4298   24.9044 O   0  5  0  0  0  0  0  0  0  0  0  0
   20.6575   16.0652   23.3004 O   0  0  0  0  0  0  0  0  0  0  0  0
   18.8681   17.5733   23.0134 C   0  0  0  0  0  0  0  0  0  0  0  0
   18.1062   17.8973   23.7319 H   0  0  0  0  0  0  0  0  0  0  0  0
   18.4094   16.7655   22.4314 H   0  0  0  0  0  0  0  0  0  0  0  0
   19.2227   18.7299   22.0896 C   0  0  0  0  0  0  0  0  0  0  0  0
   18.3778   19.1390   21.5370 H   0  0  0  0  0  0  0  0  0  0  0  0
   20.4417   19.2553   21.9191 C   0  0  0  0  0  0  0  0  0  0  0  0
   21.3032   18.8656   22.4600 H   0  0  0  0  0  0  0  0  0  0  0  0
   20.7416   20.4067   20.9851 C   0  0  0  0  0  0  0  0  0  0  0  0
   21.6164   20.1640   20.3669 H   0  0  0  0  0  0  0  0  0  0  0  0
   19.9032   20.5706   20.2941 H   0  0  0  0  0  0  0  0  0  0  0  0
   21.0134   21.7027   21.7735 C   0  0  0  0  0  0  0  0  0  0  0  0
   21.2317   22.5343   21.0910 H   0  0  0  0  0  0  0  0  0  0  0  0
   20.1414   21.9798   22.3805 H   0  0  0  0  0  0  0  0  0  0  0  0
   21.8725   21.5790   22.4459 H   0  0  0  0  0  0  0  0  0  0  0  0
  1  2  1  0  0  0  0
  1  3  2  0  0  0  0
  1  4  1  0  0  0  0
  4  5  1  0  0  0  0
  4  6  1  0  0  0  0
  4  7  1  0  0  0  0
  7  8  1  0  0  0  0
  7  9  2  0  0  0  0
  9 10  1  0  0  0  0
  9 11  1  0  0  0  0
 11 12  1  0  0  0  0
 11 13  1  0  0  0  0
 11 14  1  0  0  0  0
 14 15  1  0  0  0  0
 14 16  1  0  0  0  0
 14 17  1  0  0  0  0
M  END
> <VConfSearch Rank>
575

> <Conf_Id>
39

> <Delta U+W>
-0.422

> <U+W>
-49.849

> <U>
14.465

> <W>
-64.314

> <W(PB)>
-66.406

> <W(SA)>
2.093

> <Valence>
14.072

> <Coulomb>
-0.199

> <VdW>
0.592

> <VdW6>
-5.019

> <VdW12>
5.611

> <Bond>
0.085

> <Angle>
2.748

> <Pdih>
11.238

> <Idih>
0.001

> <Tether>
0.000

$$$$
VeraChem MOL file


 17 16  0  0  0  0  0  0  0  0999 V2000     
   21.1130   20.5367   24.8282 C   0  0  0  0  0  0  0  0  0  0  0  0
   20.5013   21.5044   25.2359 O   0  5  0  0  0  0  0  0  0  0  0  0
   22.3217   20.4290   24.8946 O   0  0  0  0  0  0  0  0  0  0  0  0
   20.3194   19.3957   24.2055 C   0  0  0  0  0  0  0  0  0  0  0  0
   19.4167   19.2470   24.8093 H   0  0  0  0  0  0  0  0  0  0  0  0
   20.9150   18.4786   24.2877 H   0  0  0  0  0  0  0  0  0  0  0  0
   19.9412   19.6709   22.7626 C   0  0  0  0  0  0  0  0  0  0  0  0
   19.2189   20.4733   22.6160 H   0  0  0  0  0  0  0  0  0  0  0  0
   20.4361   19.0031   21.7160 C   0  0  0  0  0  0  0  0  0  0  0  0
   21.1606   18.2028   21.8630 H   0  0  0  0  0  0  0  0  0  0  0  0
   20.0608   19.2814   20.2776 C   0  0  0  0  0  0  0  0  0  0  0  0
   19.5420   20.2465   20.1955 H   0  0  0  0  0  0  0  0  0  0  0  0
   20.9696   19.3591   19.6657 H   0  0  0  0  0  0  0  0  0  0  0  0
   19.1567   18.1670   19.7155 C   0  0  0  0  0  0  0  0  0  0  0  0
   18.2286   18.0877   20.2967 H   0  0  0  0  0  0  0  0  0  0  0  0
   18.8882   18.3741   18.6715 H   0  0  0  0  0  0  0  0  0  0  0  0
   19.6659   17.1949   19.7499 H   0  0  0  0  0  0  0  0  0  0  0  0
  1  2  1  0  0  0  0
  1  3  2  0  0  0  0
  1  4  1  0  0  0  0
  4  5  1  0  0  0  0
  4  6  1  0  0  0  0
  4  7  1  0  0  0  0
  7  8  1  0  0  0  0
  7  9  2  0  0  0  0
  9 10  1  0  0  0  0
  9 11  1  0  0  0  0
 11 12  1  0  0  0  0
 11 13  1  0  0  0  0
 11 14  1  0  0  0  0
 14 15  1  0  0  0  0
 14 16  1  0  0  0  0
 14 17  1  0  0  0  0
M  END
> <VConfSearch Rank>
576

> <Conf_Id>
38

> <Delta U+W>
0.000

> <U+W>
-49.427

> <U>
13.666

> <W>
-63.093

> <W(PB)>
-65.225

> <W(SA)>
2.132

> <Valence>
15.226

> <Coulomb>
-1.822

> <VdW>
0.261

> <VdW6>
-4.165

> <VdW12>
4.426

> <Bond>
0.044

> <Angle>
2.229

> <Pdih>
12.953

> <Idih>
0.000

> <Tether>
0.000

$$$$
VeraChem MOL file


 17 16  0  0  0  0  0  0  0  0999 V2000     
   22.5525   18.4347   23.9047 C   0  0  0  0  0  0  0  0  0  0  0  0
   23.0258   19.4303   24.4161 O   0  5  0  0  0  0  0  0  0  0  0  0
   23.2209   17.4994   23.5102 O   0  0  0  0  0  0  0  0  0  0  0  0
   21.0394   18.3499   23.7538 C   0  0  0  0  0  0  0  0  0  0  0  0
   20.5826   19.0120   24.4992 H   0  0  0  0  0  0  0  0  0  0  0  0
   20.7346   17.3271   24.0040 H   0  0  0  0  0  0  0  0  0  0  0  0
   20.5744   18.7042   22.3542 C   0  0  0  0  0  0  0  0  0  0  0  0
   20.8574   17.9953   21.5767 H   0  0  0  0  0  0  0  0  0  0  0  0
   19.8689   19.7983   22.0516 C   0  0  0  0  0  0  0  0  0  0  0  0
   19.5890   20.5084   22.8291 H   0  0  0  0  0  0  0  0  0  0  0  0
   19.4095   20.1521   20.6548 C   0  0  0  0  0  0  0  0  0  0  0  0
   19.6565   21.2001   20.4376 H   0  0  0  0  0  0  0  0  0  0  0  0
   19.9393   19.5423   19.9099 H   0  0  0  0  0  0  0  0  0  0  0  0
   17.8909   19.9397   20.5008 C   0  0  0  0  0  0  0  0  0  0  0  0
   17.3338   20.5672   21.2089 H   0  0  0  0  0  0  0  0  0  0  0  0
   17.5633   20.1987   19.4856 H   0  0  0  0  0  0  0  0  0  0  0  0
   17.6228   18.8916   20.6883 H   0  0  0  0  0  0  0  0  0  0  0  0
  1  2  1  0  0  0  0
  1  3  2  0  0  0  0
  1  4  1  0  0  0  0
  4  5  1  0  0  0  0
  4  6  1  0  0  0  0
  4  7  1  0  0  0  0
  7  8  1  0  0  0  0
  7  9  2  0  0  0  0
  9 10  1  0  0  0  0
  9 11  1  0  0  0  0
 11 12  1  0  0  0  0
 11 13  1  0  0  0  0
 11 14  1  0  0  0  0
 14 15  1  0  0  0  0
 14 16  1  0  0  0  0
 14 17  1  0  0  0  0
M  END
> <VConfSearch Rank>
577

> <Conf_Id>
35

> <Delta U+W>
-0.102

> <U+W>
-49.529

> <U>
13.666

> <W>
-63.195

> <W(PB)>
-65.299

> <W(SA)>
2.103

> <Valence>
15.226

> <Coulomb>
-1.822

> <VdW>
0.261

> <VdW6>
-4.165

> <VdW12>
4.426

> <Bond>
0.044

> <Angle>
2.229

> <Pdih>
12.953

> <Idih>
0.000

> <Tether>
0.000

$$$$
VeraChem MOL file


 17 16  0  0  0  0  0  0  0  0999 V2000     
   17.7465   18.7878   23.7774 C   0  0  0  0  0  0  0  0  0  0  0  0
   16.8959   19.5514   23.3644 O   0  5  0  0  0  0  0  0  0  0  0  0
   17.5317   17.6209   24.0398 O   0  0  0  0  0  0  0  0  0  0  0  0
   19.1555   19.3273   23.9857 C   0  0  0  0  0  0  0  0  0  0  0  0
   19.6580   18.6962   24.7284 H   0  0  0  0  0  0  0  0  0  0  0  0
   19.0692   20.3291   24.4222 H   0  0  0  0  0  0  0  0  0  0  0  0
   19.9502   19.3887   22.6949 C   0  0  0  0  0  0  0  0  0  0  0  0
   19.5897   20.1202   21.9738 H   0  0  0  0  0  0  0  0  0  0  0  0
   21.0107   18.6144   22.4329 C   0  0  0  0  0  0  0  0  0  0  0  0
   21.3398   17.8903   23.1775 H   0  0  0  0  0  0  0  0  0  0  0  0
   21.8476   18.6202   21.1648 C   0  0  0  0  0  0  0  0  0  0  0  0
   22.8946   18.8209   21.4293 H   0  0  0  0  0  0  0  0  0  0  0  0
   21.8413   17.6119   20.7291 H   0  0  0  0  0  0  0  0  0  0  0  0
   21.3968   19.6346   20.0907 C   0  0  0  0  0  0  0  0  0  0  0  0
   21.4424   20.6620   20.4751 H   0  0  0  0  0  0  0  0  0  0  0  0
   22.0481   19.5766   19.2090 H   0  0  0  0  0  0  0  0  0  0  0  0
   20.3688   19.4307   19.7631 H   0  0  0  0  0  0  0  0  0  0  0  0
  1  2  1  0  0  0  0
  1  3  2  0  0  0  0
  1  4  1  0  0  0  0
  4  5  1  0  0  0  0
  4  6  1  0  0  0  0
  4  7  1  0  0  0  0
  7  8  1  0  0  0  0
  7  9  2  0  0  0  0
  9 10  1  0  0  0  0
  9 11  1  0  0  0  0
 11 12  1  0  0  0  0
 11 13  1  0  0  0  0
 11 14  1  0  0  0  0
 14 15  1  0  0  0  0
 14 16  1  0  0  0  0
 14 17  1  0  0  0  0
M  END
> <VConfSearch Rank>
578

> <Conf_Id>
19

> <Delta U+W>
-0.496

> <U+W>
-49.923

> <U>
13.863

> <W>
-63.786

> <W(PB)>
-65.856

> <W(SA)>
2.070

> <Valence>
14.117

> <Coulomb>
-1.228

> <VdW>
0.974

> <VdW6>
-4.885

> <VdW12>
5.859

> <Bond>
0.094

> <Angle>
2.818

> <Pdih>
11.205

> <Idih>
0.000

> <Tether>
0.000

$$$$
VeraChem MOL file


 17 16  0  0  0  0  0  0  0  0999 V2000     
   20.3085   21.1779   24.2442 C   0  0  0  0  0  0  0  0  0  0  0  0
   19.8907   22.1466   23.6409 O   0  5  0  0  0  0  0  0  0  0  0  0
   19.9485   20.8778   25.3655 O   0  0  0  0  0  0  0  0  0  0  0  0
   21.3480   20.2964   23.5642 C   0  0  0  0  0  0  0  0  0  0  0  0
   22.1042   20.0326   24.3125 H   0  0  0  0  0  0  0  0  0  0  0  0
   21.8526   20.8925   22.7943 H   0  0  0  0  0  0  0  0  0  0  0  0
   20.7434   19.0391   22.9689 C   0  0  0  0  0  0  0  0  0  0  0  0
   20.3585   18.3207   23.6921 H   0  0  0  0  0  0  0  0  0  0  0  0
   20.6610   18.7932   21.6578 C   0  0  0  0  0  0  0  0  0  0  0  0
   21.0414   19.5142   20.9349 H   0  0  0  0  0  0  0  0  0  0  0  0
   20.0552   17.5401   21.0662 C   0  0  0  0  0  0  0  0  0  0  0  0
   20.7320   17.1229   20.3084 H   0  0  0  0  0  0  0  0  0  0  0  0
   19.9343   16.7693   21.8398 H   0  0  0  0  0  0  0  0  0  0  0  0
   18.6859   17.8373   20.4245 C   0  0  0  0  0  0  0  0  0  0  0  0
   18.7830   18.5777   19.6196 H   0  0  0  0  0  0  0  0  0  0  0  0
   18.2506   16.9246   19.9972 H   0  0  0  0  0  0  0  0  0  0  0  0
   17.9838   18.2331   21.1702 H   0  0  0  0  0  0  0  0  0  0  0  0
  1  2  1  0  0  0  0
  1  3  2  0  0  0  0
  1  4  1  0  0  0  0
  4  5  1  0  0  0  0
  4  6  1  0  0  0  0
  4  7  1  0  0  0  0
  7  8  1  0  0  0  0
  7  9  2  0  0  0  0
  9 10  1  0  0  0  0
  9 11  1  0  0  0  0
 11 12  1  0  0  0  0
 11 13  1  0  0  0  0
 11 14  1  0  0  0  0
 14 15  1  0  0  0  0
 14 16  1  0  0  0  0
 14 17  1  0  0  0  0
M  END
> <VConfSearch Rank>
579

> <Conf_Id>
7

> <Delta U+W>
-0.041

> <U+W>
-49.468

> <U>
14.121

> <W>
-63.589

> <W(PB)>
-65.660

> <W(SA)>
2.071

> <Valence>
15.230

> <Coulomb>
-1.333

> <VdW>
0.224

> <VdW6>
-4.212

> <VdW12>
4.436

> <Bond>
0.044

> <Angle>
2.230

> <Pdih>
12.956

> <Idih>
0.000

> <Tether>
0.000

$$$$
VeraChem MOL file


 17 16  0  0  0  0  0  0  0  0999 V2000     
   20.8364   21.5762   23.6159 C   0  0  0  0  0  0  0  0  0  0  0  0
   20.9416   22.3606   22.6935 O   0  5  0  0  0  0  0  0  0  0  0  0
   21.7147   21.3782   24.4322 O   0  0  0  0  0  0  0  0  0  0  0  0
   19.5207   20.8201   23.7739 C   0  0  0  0  0  0  0  0  0  0  0  0
   18.7146   21.4685   23.4113 H   0  0  0  0  0  0  0  0  0  0  0  0
   19.3386   20.6838   24.8462 H   0  0  0  0  0  0  0  0  0  0  0  0
   19.4482   19.4731   23.0687 C   0  0  0  0  0  0  0  0  0  0  0  0
   18.5009   18.9504   23.1945 H   0  0  0  0  0  0  0  0  0  0  0  0
   20.4203   18.9144   22.3381 C   0  0  0  0  0  0  0  0  0  0  0  0
   21.3767   19.4163   22.1958 H   0  0  0  0  0  0  0  0  0  0  0  0
   20.2977   17.5691   21.6575 C   0  0  0  0  0  0  0  0  0  0  0  0
   21.1864   16.9614   21.8754 H   0  0  0  0  0  0  0  0  0  0  0  0
   19.4337   17.0159   22.0506 H   0  0  0  0  0  0  0  0  0  0  0  0
   20.1480   17.7318   20.1324 C   0  0  0  0  0  0  0  0  0  0  0  0
   20.0609   16.7527   19.6437 H   0  0  0  0  0  0  0  0  0  0  0  0
   19.2504   18.3155   19.8890 H   0  0  0  0  0  0  0  0  0  0  0  0
   21.0178   18.2491   19.7066 H   0  0  0  0  0  0  0  0  0  0  0  0
  1  2  1  0  0  0  0
  1  3  2  0  0  0  0
  1  4  1  0  0  0  0
  4  5  1  0  0  0  0
  4  6  1  0  0  0  0
  4  7  1  0  0  0  0
  7  8  1  0  0  0  0
  7  9  2  0  0  0  0
  9 10  1  0  0  0  0
  9 11  1  0  0  0  0
 11 12  1  0  0  0  0
 11 13  1  0  0  0  0
 11 14  1  0  0  0  0
 14 15  1  0  0  0  0
 14 16  1  0  0  0  0
 14 17  1  0  0  0  0
M  END
> <VConfSearch Rank>
580

> <Conf_Id>
39

> <Delta U+W>
-0.422

> <U+W>
-49.849

> <U>
14.465

> <W>
-64.314

> <W(PB)>
-66.406

> <W(SA)>
2.093

> <Valence>
14.072

> <Coulomb>
-0.199

> <VdW>
0.592

> <VdW6>
-5.019

> <VdW12>
5.611

> <Bond>
0.085

> <Angle>
2.748

> <Pdih>
11.238

> <Idih>
0.001

> <Tether>
0.000

$$$$
VeraChem MOL file


 17 16  0  0  0  0  0  0  0  0999 V2000     
   20.8862   22.1950   21.1677 C   0  0  0  0  0  0  0  0  0  0  0  0
   20.2822   23.1113   21.6897 O   0  5  0  0  0  0  0  0  0  0  0  0
   21.1800   22.1690   19.9888 O   0  0  0  0  0  0  0  0  0  0  0  0
   21.3012   21.0186   22.0415 C   0  0  0  0  0  0  0  0  0  0  0  0
   21.6540   21.4202   22.9984 H   0  0  0  0  0  0  0  0  0  0  0  0
   22.1566   20.5233   21.5665 H   0  0  0  0  0  0  0  0  0  0  0  0
   20.1665   20.0392   22.2743 C   0  0  0  0  0  0  0  0  0  0  0  0
   19.3452   20.4154   22.8835 H   0  0  0  0  0  0  0  0  0  0  0  0
   20.1347   18.7962   21.7842 C   0  0  0  0  0  0  0  0  0  0  0  0
   20.9550   18.4218   21.1727 H   0  0  0  0  0  0  0  0  0  0  0  0
   19.0007   17.8223   22.0143 C   0  0  0  0  0  0  0  0  0  0  0  0
   18.1184   18.3458   22.4076 H   0  0  0  0  0  0  0  0  0  0  0  0
   18.6999   17.3713   21.0590 H   0  0  0  0  0  0  0  0  0  0  0  0
   19.4157   16.7116   22.9987 C   0  0  0  0  0  0  0  0  0  0  0  0
   19.6967   17.1374   23.9710 H   0  0  0  0  0  0  0  0  0  0  0  0
   18.5891   16.0078   23.1612 H   0  0  0  0  0  0  0  0  0  0  0  0
   20.2737   16.1460   22.6122 H   0  0  0  0  0  0  0  0  0  0  0  0
  1  2  1  0  0  0  0
  1  3  2  0  0  0  0
  1  4  1  0  0  0  0
  4  5  1  0  0  0  0
  4  6  1  0  0  0  0
  4  7  1  0  0  0  0
  7  8  1  0  0  0  0
  7  9  2  0  0  0  0
  9 10  1  0  0  0  0
  9 11  1  0  0  0  0
 11 12  1  0  0  0  0
 11 13  1  0  0  0  0
 11 14  1  0  0  0  0
 14 15  1  0  0  0  0
 14 16  1  0  0  0  0
 14 17  1  0  0  0  0
M  END
> <VConfSearch Rank>
581

> <Conf_Id>
38

> <Delta U+W>
0.000

> <U+W>
-49.427

> <U>
13.666

> <W>
-63.093

> <W(PB)>
-65.225

> <W(SA)>
2.132

> <Valence>
15.226

> <Coulomb>
-1.822

> <VdW>
0.261

> <VdW6>
-4.165

> <VdW12>
4.426

> <Bond>
0.044

> <Angle>
2.229

> <Pdih>
12.953

> <Idih>
0.000

> <Tether>
0.000

$$$$
VeraChem MOL file


 17 16  0  0  0  0  0  0  0  0999 V2000     
   18.7867   18.1234   19.4557 C   0  0  0  0  0  0  0  0  0  0  0  0
   17.7950   18.7724   19.1868 O   0  5  0  0  0  0  0  0  0  0  0  0
   18.8713   16.9233   19.2842 O   0  0  0  0  0  0  0  0  0  0  0  0
   19.9922   18.8528   20.0340 C   0  0  0  0  0  0  0  0  0  0  0  0
   19.9312   19.9064   19.7360 H   0  0  0  0  0  0  0  0  0  0  0  0
   20.8916   18.4382   19.5642 H   0  0  0  0  0  0  0  0  0  0  0  0
   20.0835   18.7188   21.5422 C   0  0  0  0  0  0  0  0  0  0  0  0
   20.3065   17.7167   21.9074 H   0  0  0  0  0  0  0  0  0  0  0  0
   19.9075   19.7300   22.3981 C   0  0  0  0  0  0  0  0  0  0  0  0
   19.6814   20.7311   22.0323 H   0  0  0  0  0  0  0  0  0  0  0  0
   19.9950   19.5938   23.9018 C   0  0  0  0  0  0  0  0  0  0  0  0
   19.1241   20.0733   24.3688 H   0  0  0  0  0  0  0  0  0  0  0  0
   19.9664   18.5350   24.1941 H   0  0  0  0  0  0  0  0  0  0  0  0
   21.2870   20.2373   24.4419 C   0  0  0  0  0  0  0  0  0  0  0  0
   21.3240   21.3068   24.1968 H   0  0  0  0  0  0  0  0  0  0  0  0
   21.3446   20.1359   25.5335 H   0  0  0  0  0  0  0  0  0  0  0  0
   22.1733   19.7560   24.0078 H   0  0  0  0  0  0  0  0  0  0  0  0
  1  2  1  0  0  0  0
  1  3  2  0  0  0  0
  1  4  1  0  0  0  0
  4  5  1  0  0  0  0
  4  6  1  0  0  0  0
  4  7  1  0  0  0  0
  7  8  1  0  0  0  0
  7  9  2  0  0  0  0
  9 10  1  0  0  0  0
  9 11  1  0  0  0  0
 11 12  1  0  0  0  0
 11 13  1  0  0  0  0
 11 14  1  0  0  0  0
 14 15  1  0  0  0  0
 14 16  1  0  0  0  0
 14 17  1  0  0  0  0
M  END
> <VConfSearch Rank>
582

> <Conf_Id>
35

> <Delta U+W>
-0.102

> <U+W>
-49.529

> <U>
13.666

> <W>
-63.195

> <W(PB)>
-65.299

> <W(SA)>
2.103

> <Valence>
15.226

> <Coulomb>
-1.822

> <VdW>
0.261

> <VdW6>
-4.165

> <VdW12>
4.426

> <Bond>
0.044

> <Angle>
2.229

> <Pdih>
12.953

> <Idih>
0.000

> <Tether>
0.000

$$$$
VeraChem MOL file


 17 16  0  0  0  0  0  0  0  0999 V2000     
   17.9403   19.4222   20.3617 C   0  0  0  0  0  0  0  0  0  0  0  0
   17.9926   20.5119   19.8264 O   0  5  0  0  0  0  0  0  0  0  0  0
   17.7031   18.3908   19.7645 O   0  0  0  0  0  0  0  0  0  0  0  0
   18.1757   19.3486   21.8647 C   0  0  0  0  0  0  0  0  0  0  0  0
   17.6882   18.4426   22.2442 H   0  0  0  0  0  0  0  0  0  0  0  0
   17.6669   20.2032   22.3255 H   0  0  0  0  0  0  0  0  0  0  0  0
   19.6497   19.3655   22.2229 C   0  0  0  0  0  0  0  0  0  0  0  0
   20.1572   20.3057   22.0140 H   0  0  0  0  0  0  0  0  0  0  0  0
   20.3027   18.3219   22.7493 C   0  0  0  0  0  0  0  0  0  0  0  0
   19.7622   17.3954   22.9405 H   0  0  0  0  0  0  0  0  0  0  0  0
   21.7734   18.2683   23.1273 C   0  0  0  0  0  0  0  0  0  0  0  0
   21.8590   18.0102   24.1915 H   0  0  0  0  0  0  0  0  0  0  0  0
   22.2510   17.4419   22.5839 H   0  0  0  0  0  0  0  0  0  0  0  0
   22.5631   19.5686   22.8599 C   0  0  0  0  0  0  0  0  0  0  0  0
   22.1454   20.4079   23.4313 H   0  0  0  0  0  0  0  0  0  0  0  0
   23.6131   19.4492   23.1572 H   0  0  0  0  0  0  0  0  0  0  0  0
   22.5433   19.8292   21.7935 H   0  0  0  0  0  0  0  0  0  0  0  0
  1  2  1  0  0  0  0
  1  3  2  0  0  0  0
  1  4  1  0  0  0  0
  4  5  1  0  0  0  0
  4  6  1  0  0  0  0
  4  7  1  0  0  0  0
  7  8  1  0  0  0  0
  7  9  2  0  0  0  0
  9 10  1  0  0  0  0
  9 11  1  0  0  0  0
 11 12  1  0  0  0  0
 11 13  1  0  0  0  0
 11 14  1  0  0  0  0
 14 15  1  0  0  0  0
 14 16  1  0  0  0  0
 14 17  1  0  0  0  0
M  END
> <VConfSearch Rank>
583

> <Conf_Id>
19

> <Delta U+W>
-0.496

> <U+W>
-49.923

> <U>
13.863

> <W>
-63.786

> <W(PB)>
-65.856

> <W(SA)>
2.070

> <Valence>
14.117

> <Coulomb>
-1.228

> <VdW>
0.974

> <VdW6>
-4.885

> <VdW12>
5.859

> <Bond>
0.094

> <Angle>
2.818

> <Pdih>
11.205

> <Idih>
0.000

> <Tether>
0.000

$$$$
VeraChem MOL file


 17 16  0  0  0  0  0  0  0  0999 V2000     
   20.4593   16.3356   23.2519 C   0  0  0  0  0  0  0  0  0  0  0  0
   21.0335   16.5231   24.3064 O   0  5  0  0  0  0  0  0  0  0  0  0
   19.4989   15.6006   23.1312 O   0  0  0  0  0  0  0  0  0  0  0  0
   20.9760   17.0512   22.0107 C   0  0  0  0  0  0  0  0  0  0  0  0
   20.9543   16.3371   21.1794 H   0  0  0  0  0  0  0  0  0  0  0  0
   22.0269   17.3155   22.1794 H   0  0  0  0  0  0  0  0  0  0  0  0
   20.1555   18.2790   21.6643 C   0  0  0  0  0  0  0  0  0  0  0  0
   19.1367   18.0793   21.3334 H   0  0  0  0  0  0  0  0  0  0  0  0
   20.6073   19.5337   21.7519 C   0  0  0  0  0  0  0  0  0  0  0  0
   21.6244   19.7331   22.0877 H   0  0  0  0  0  0  0  0  0  0  0  0
   19.7865   20.7568   21.4088 C   0  0  0  0  0  0  0  0  0  0  0  0
   20.3675   21.4223   20.7560 H   0  0  0  0  0  0  0  0  0  0  0  0
   18.8867   20.4706   20.8469 H   0  0  0  0  0  0  0  0  0  0  0  0
   19.3713   21.5196   22.6818 C   0  0  0  0  0  0  0  0  0  0  0  0
   20.2536   21.8522   23.2444 H   0  0  0  0  0  0  0  0  0  0  0  0
   18.7757   22.4058   22.4271 H   0  0  0  0  0  0  0  0  0  0  0  0
   18.7675   20.8804   23.3395 H   0  0  0  0  0  0  0  0  0  0  0  0
  1  2  1  0  0  0  0
  1  3  2  0  0  0  0
  1  4  1  0  0  0  0
  4  5  1  0  0  0  0
  4  6  1  0  0  0  0
  4  7  1  0  0  0  0
  7  8  1  0  0  0  0
  7  9  2  0  0  0  0
  9 10  1  0  0  0  0
  9 11  1  0  0  0  0
 11 12  1  0  0  0  0
 11 13  1  0  0  0  0
 11 14  1  0  0  0  0
 14 15  1  0  0  0  0
 14 16  1  0  0  0  0
 14 17  1  0  0  0  0
M  END
> <VConfSearch Rank>
584

> <Conf_Id>
7

> <Delta U+W>
-0.041

> <U+W>
-49.468

> <U>
14.121

> <W>
-63.589

> <W(PB)>
-65.660

> <W(SA)>
2.071

> <Valence>
15.230

> <Coulomb>
-1.333

> <VdW>
0.224

> <VdW6>
-4.212

> <VdW12>
4.436

> <Bond>
0.044

> <Angle>
2.230

> <Pdih>
12.956

> <Idih>
0.000

> <Tether>
0.000

$$$$
VeraChem MOL file


 17 16  0  0  0  0  0  0  0  0999 V2000     
   22.6758   20.0934   22.9526 C   0  0  0  0  0  0  0  0  0  0  0  0
   22.5705   20.1855   24.1599 O   0  5  0  0  0  0  0  0  0  0  0  0
   23.0736   20.9962   22.2427 O   0  0  0  0  0  0  0  0  0  0  0  0
   22.3159   18.7643   22.2959 C   0  0  0  0  0  0  0  0  0  0  0  0
   22.5534   17.9633   23.0057 H   0  0  0  0  0  0  0  0  0  0  0  0
   22.9876   18.6190   21.4418 H   0  0  0  0  0  0  0  0  0  0  0  0
   20.8709   18.6278   21.8376 C   0  0  0  0  0  0  0  0  0  0  0  0
   20.6355   17.6717   21.3717 H   0  0  0  0  0  0  0  0  0  0  0  0
   19.9147   19.5557   21.9634 C   0  0  0  0  0  0  0  0  0  0  0  0
   20.1233   20.5195   22.4263 H   0  0  0  0  0  0  0  0  0  0  0  0
   18.4906   19.3702   21.4886 C   0  0  0  0  0  0  0  0  0  0  0  0
   18.1755   20.2493   20.9103 H   0  0  0  0  0  0  0  0  0  0  0  0
   18.4192   18.5066   20.8131 H   0  0  0  0  0  0  0  0  0  0  0  0
   17.5324   19.1675   22.6784 C   0  0  0  0  0  0  0  0  0  0  0  0
   16.5005   19.0348   22.3282 H   0  0  0  0  0  0  0  0  0  0  0  0
   17.8129   18.2778   23.2576 H   0  0  0  0  0  0  0  0  0  0  0  0
   17.5550   20.0346   23.3515 H   0  0  0  0  0  0  0  0  0  0  0  0
  1  2  1  0  0  0  0
  1  3  2  0  0  0  0
  1  4  1  0  0  0  0
  4  5  1  0  0  0  0
  4  6  1  0  0  0  0
  4  7  1  0  0  0  0
  7  8  1  0  0  0  0
  7  9  2  0  0  0  0
  9 10  1  0  0  0  0
  9 11  1  0  0  0  0
 11 12  1  0  0  0  0
 11 13  1  0  0  0  0
 11 14  1  0  0  0  0
 14 15  1  0  0  0  0
 14 16  1  0  0  0  0
 14 17  1  0  0  0  0
M  END
> <VConfSearch Rank>
585

> <Conf_Id>
39

> <Delta U+W>
-0.422

> <U+W>
-49.849

> <U>
14.465

> <W>
-64.314

> <W(PB)>
-66.406

> <W(SA)>
2.093

> <Valence>
14.072

> <Coulomb>
-0.199

> <VdW>
0.592

> <VdW6>
-5.019

> <VdW12>
5.611

> <Bond>
0.085

> <Angle>
2.748

> <Pdih>
11.238

> <Idih>
0.001

> <Tether>
0.000

$$$$
VeraChem MOL file


 17 16  0  0  0  0  0  0  0  0999 V2000     
   19.7812   21.2069   24.5897 C   0  0  0  0  0  0  0  0  0  0  0  0
   20.3837   22.2612   24.5404 O   0  5  0  0  0  0  0  0  0  0  0  0
   19.6743   20.5407   25.6004 O   0  0  0  0  0  0  0  0  0  0  0  0
   19.1204   20.6975   23.3156 C   0  0  0  0  0  0  0  0  0  0  0  0
   18.6637   21.5556   22.8090 H   0  0  0  0  0  0  0  0  0  0  0  0
   18.3050   20.0210   23.5989 H   0  0  0  0  0  0  0  0  0  0  0  0
   20.1021   20.0071   22.3881 C   0  0  0  0  0  0  0  0  0  0  0  0
   20.8512   20.6570   21.9367 H   0  0  0  0  0  0  0  0  0  0  0  0
   20.0870   18.6983   22.1180 C   0  0  0  0  0  0  0  0  0  0  0  0
   19.3395   18.0485   22.5720 H   0  0  0  0  0  0  0  0  0  0  0  0
   21.0691   18.0109   21.1958 C   0  0  0  0  0  0  0  0  0  0  0  0
   21.9265   18.6665   20.9900 H   0  0  0  0  0  0  0  0  0  0  0  0
   21.4695   17.1122   21.6842 H   0  0  0  0  0  0  0  0  0  0  0  0
   20.3975   17.6169   19.8659 C   0  0  0  0  0  0  0  0  0  0  0  0
   20.0114   18.5038   19.3463 H   0  0  0  0  0  0  0  0  0  0  0  0
   21.1148   17.1181   19.2012 H   0  0  0  0  0  0  0  0  0  0  0  0
   19.5588   16.9298   20.0391 H   0  0  0  0  0  0  0  0  0  0  0  0
  1  2  1  0  0  0  0
  1  3  2  0  0  0  0
  1  4  1  0  0  0  0
  4  5  1  0  0  0  0
  4  6  1  0  0  0  0
  4  7  1  0  0  0  0
  7  8  1  0  0  0  0
  7  9  2  0  0  0  0
  9 10  1  0  0  0  0
  9 11  1  0  0  0  0
 11 12  1  0  0  0  0
 11 13  1  0  0  0  0
 11 14  1  0  0  0  0
 14 15  1  0  0  0  0
 14 16  1  0  0  0  0
 14 17  1  0  0  0  0
M  END
> <VConfSearch Rank>
586

> <Conf_Id>
38

> <Delta U+W>
0.000

> <U+W>
-49.427

> <U>
13.666

> <W>
-63.093

> <W(PB)>
-65.225

> <W(SA)>
2.132

> <Valence>
15.226

> <Coulomb>
-1.822

> <VdW>
0.261

> <VdW6>
-4.165

> <VdW12>
4.426

> <Bond>
0.044

> <Angle>
2.229

> <Pdih>
12.953

> <Idih>
0.000

> <Tether>
0.000

$$$$
VeraChem MOL file


 17 16  0  0  0  0  0  0  0  0999 V2000     
   22.7858   18.7849   20.5256 C   0  0  0  0  0  0  0  0  0  0  0  0
   23.5902   19.6387   20.8431 O   0  5  0  0  0  0  0  0  0  0  0  0
   22.6834   18.3444   19.3976 O   0  0  0  0  0  0  0  0  0  0  0  0
   21.8582   18.2316   21.5994 C   0  0  0  0  0  0  0  0  0  0  0  0
   22.3325   18.3871   22.5759 H   0  0  0  0  0  0  0  0  0  0  0  0
   21.7808   17.1486   21.4495 H   0  0  0  0  0  0  0  0  0  0  0  0
   20.4797   18.8630   21.5579 C   0  0  0  0  0  0  0  0  0  0  0  0
   19.8817   18.6169   20.6810 H   0  0  0  0  0  0  0  0  0  0  0  0
   19.9948   19.6711   22.5056 C   0  0  0  0  0  0  0  0  0  0  0  0
   20.5945   19.9193   23.3807 H   0  0  0  0  0  0  0  0  0  0  0  0
   18.6215   20.3030   22.4606 C   0  0  0  0  0  0  0  0  0  0  0  0
   18.6998   21.3762   22.6809 H   0  0  0  0  0  0  0  0  0  0  0  0
   18.1924   20.2185   21.4526 H   0  0  0  0  0  0  0  0  0  0  0  0
   17.6723   19.6380   23.4764 C   0  0  0  0  0  0  0  0  0  0  0  0
   18.0584   19.7411   24.4990 H   0  0  0  0  0  0  0  0  0  0  0  0
   16.6777   20.1011   23.4396 H   0  0  0  0  0  0  0  0  0  0  0  0
   17.5579   18.5676   23.2602 H   0  0  0  0  0  0  0  0  0  0  0  0
  1  2  1  0  0  0  0
  1  3  2  0  0  0  0
  1  4  1  0  0  0  0
  4  5  1  0  0  0  0
  4  6  1  0  0  0  0
  4  7  1  0  0  0  0
  7  8  1  0  0  0  0
  7  9  2  0  0  0  0
  9 10  1  0  0  0  0
  9 11  1  0  0  0  0
 11 12  1  0  0  0  0
 11 13  1  0  0  0  0
 11 14  1  0  0  0  0
 14 15  1  0  0  0  0
 14 16  1  0  0  0  0
 14 17  1  0  0  0  0
M  END
> <VConfSearch Rank>
587

> <Conf_Id>
35

> <Delta U+W>
-0.102

> <U+W>
-49.529

> <U>
13.666

> <W>
-63.195

> <W(PB)>
-65.299

> <W(SA)>
2.103

> <Valence>
15.226

> <Coulomb>
-1.822

> <VdW>
0.261

> <VdW6>
-4.165

> <VdW12>
4.426

> <Bond>
0.044

> <Angle>
2.229

> <Pdih>
12.953

> <Idih>
0.000

> <Tether>
0.000

$$$$
VeraChem MOL file


 17 16  0  0  0  0  0  0  0  0999 V2000     
   21.7085   21.5662   22.8448 C   0  0  0  0  0  0  0  0  0  0  0  0
   21.4461   22.4298   22.0309 O   0  5  0  0  0  0  0  0  0  0  0  0
   21.7465   21.7619   24.0436 O   0  0  0  0  0  0  0  0  0  0  0  0
   22.0155   20.1655   22.3317 C   0  0  0  0  0  0  0  0  0  0  0  0
   22.6265   19.6512   23.0832 H   0  0  0  0  0  0  0  0  0  0  0  0
   22.6327   20.2665   21.4315 H   0  0  0  0  0  0  0  0  0  0  0  0
   20.7598   19.3749   22.0158 C   0  0  0  0  0  0  0  0  0  0  0  0
   20.1890   19.7487   21.1676 H   0  0  0  0  0  0  0  0  0  0  0  0
   20.3574   18.3030   22.7099 C   0  0  0  0  0  0  0  0  0  0  0  0
   20.9526   17.9606   23.5558 H   0  0  0  0  0  0  0  0  0  0  0  0
   19.1136   17.4693   22.4521 C   0  0  0  0  0  0  0  0  0  0  0  0
   19.4118   16.4250   22.2881 H   0  0  0  0  0  0  0  0  0  0  0  0
   18.4959   17.4607   23.3604 H   0  0  0  0  0  0  0  0  0  0  0  0
   18.2493   17.9387   21.2611 C   0  0  0  0  0  0  0  0  0  0  0  0
   18.8203   17.9084   20.3238 H   0  0  0  0  0  0  0  0  0  0  0  0
   17.3728   17.2886   21.1418 H   0  0  0  0  0  0  0  0  0  0  0  0
   17.8886   18.9641   21.4161 H   0  0  0  0  0  0  0  0  0  0  0  0
  1  2  1  0  0  0  0
  1  3  2  0  0  0  0
  1  4  1  0  0  0  0
  4  5  1  0  0  0  0
  4  6  1  0  0  0  0
  4  7  1  0  0  0  0
  7  8  1  0  0  0  0
  7  9  2  0  0  0  0
  9 10  1  0  0  0  0
  9 11  1  0  0  0  0
 11 12  1  0  0  0  0
 11 13  1  0  0  0  0
 11 14  1  0  0  0  0
 14 15  1  0  0  0  0
 14 16  1  0  0  0  0
 14 17  1  0  0  0  0
M  END
> <VConfSearch Rank>
588

> <Conf_Id>
19

> <Delta U+W>
-0.496

> <U+W>
-49.923

> <U>
13.863

> <W>
-63.786

> <W(PB)>
-65.856

> <W(SA)>
2.070

> <Valence>
14.117

> <Coulomb>
-1.228

> <VdW>
0.974

> <VdW6>
-4.885

> <VdW12>
5.859

> <Bond>
0.094

> <Angle>
2.818

> <Pdih>
11.205

> <Idih>
0.000

> <Tether>
0.000

$$$$
VeraChem MOL file


 17 16  0  0  0  0  0  0  0  0999 V2000     
   21.1242   17.5371   19.8982 C   0  0  0  0  0  0  0  0  0  0  0  0
   22.1282   17.0114   20.3369 O   0  5  0  0  0  0  0  0  0  0  0  0
   20.2835   16.9446   19.2507 O   0  0  0  0  0  0  0  0  0  0  0  0
   20.9110   19.0216   20.1639 C   0  0  0  0  0  0  0  0  0  0  0  0
   20.5335   19.4759   19.2405 H   0  0  0  0  0  0  0  0  0  0  0  0
   21.8871   19.4770   20.3699 H   0  0  0  0  0  0  0  0  0  0  0  0
   19.9418   19.2745   21.3030 C   0  0  0  0  0  0  0  0  0  0  0  0
   18.9092   18.9869   21.1074 H   0  0  0  0  0  0  0  0  0  0  0  0
   20.2882   19.8023   22.4809 C   0  0  0  0  0  0  0  0  0  0  0  0
   21.3219   20.0849   22.6777 H   0  0  0  0  0  0  0  0  0  0  0  0
   19.3208   20.0509   23.6165 C   0  0  0  0  0  0  0  0  0  0  0  0
   19.4565   21.0701   24.0031 H   0  0  0  0  0  0  0  0  0  0  0  0
   18.2838   19.9846   23.2595 H   0  0  0  0  0  0  0  0  0  0  0  0
   19.5333   19.0362   24.7567 C   0  0  0  0  0  0  0  0  0  0  0  0
   20.5521   19.1074   25.1596 H   0  0  0  0  0  0  0  0  0  0  0  0
   18.8284   19.2208   25.5777 H   0  0  0  0  0  0  0  0  0  0  0  0
   19.3783   18.0098   24.3987 H   0  0  0  0  0  0  0  0  0  0  0  0
  1  2  1  0  0  0  0
  1  3  2  0  0  0  0
  1  4  1  0  0  0  0
  4  5  1  0  0  0  0
  4  6  1  0  0  0  0
  4  7  1  0  0  0  0
  7  8  1  0  0  0  0
  7  9  2  0  0  0  0
  9 10  1  0  0  0  0
  9 11  1  0  0  0  0
 11 12  1  0  0  0  0
 11 13  1  0  0  0  0
 11 14  1  0  0  0  0
 14 15  1  0  0  0  0
 14 16  1  0  0  0  0
 14 17  1  0  0  0  0
M  END
> <VConfSearch Rank>
589

> <Conf_Id>
7

> <Delta U+W>
-0.041

> <U+W>
-49.468

> <U>
14.121

> <W>
-63.589

> <W(PB)>
-65.660

> <W(SA)>
2.071

> <Valence>
15.230

> <Coulomb>
-1.333

> <VdW>
0.224

> <VdW6>
-4.212

> <VdW12>
4.436

> <Bond>
0.044

> <Angle>
2.230

> <Pdih>
12.956

> <Idih>
0.000

> <Tether>
0.000

$$$$
VeraChem MOL file


 17 16  0  0  0  0  0  0  0  0999 V2000     
   17.4602   18.7165   21.8297 C   0  0  0  0  0  0  0  0  0  0  0  0
   17.0462   18.6642   22.9711 O   0  5  0  0  0  0  0  0  0  0  0  0
   17.3043   17.8259   21.0175 O   0  0  0  0  0  0  0  0  0  0  0  0
   18.1907   19.9796   21.3839 C   0  0  0  0  0  0  0  0  0  0  0  0
   17.7618   20.8270   21.9314 H   0  0  0  0  0  0  0  0  0  0  0  0
   17.9513   20.1508   20.3279 H   0  0  0  0  0  0  0  0  0  0  0  0
   19.7014   19.9648   21.5688 C   0  0  0  0  0  0  0  0  0  0  0  0
   20.2029   20.8757   21.2442 H   0  0  0  0  0  0  0  0  0  0  0  0
   20.4216   18.9594   22.0801 C   0  0  0  0  0  0  0  0  0  0  0  0
   19.9449   18.0381   22.4130 H   0  0  0  0  0  0  0  0  0  0  0  0
   21.9252   18.9947   22.2413 C   0  0  0  0  0  0  0  0  0  0  0  0
   22.3620   18.0677   21.8457 H   0  0  0  0  0  0  0  0  0  0  0  0
   22.3559   19.8200   21.6579 H   0  0  0  0  0  0  0  0  0  0  0  0
   22.3195   19.1570   23.7223 C   0  0  0  0  0  0  0  0  0  0  0  0
   23.4113   19.1806   23.8335 H   0  0  0  0  0  0  0  0  0  0  0  0
   21.9146   20.0913   24.1332 H   0  0  0  0  0  0  0  0  0  0  0  0
   21.9335   18.3236   24.3238 H   0  0  0  0  0  0  0  0  0  0  0  0
  1  2  1  0  0  0  0
  1  3  2  0  0  0  0
  1  4  1  0  0  0  0
  4  5  1  0  0  0  0
  4  6  1  0  0  0  0
  4  7  1  0  0  0  0
  7  8  1  0  0  0  0
  7  9  2  0  0  0  0
  9 10  1  0  0  0  0
  9 11  1  0  0  0  0
 11 12  1  0  0  0  0
 11 13  1  0  0  0  0
 11 14  1  0  0  0  0
 14 15  1  0  0  0  0
 14 16  1  0  0  0  0
 14 17  1  0  0  0  0
M  END
> <VConfSearch Rank>
590

> <Conf_Id>
39

> <Delta U+W>
-0.422

> <U+W>
-49.849

> <U>
14.465

> <W>
-64.314

> <W(PB)>
-66.406

> <W(SA)>
2.093

> <Valence>
14.072

> <Coulomb>
-0.199

> <VdW>
0.592

> <VdW6>
-5.019

> <VdW12>
5.611

> <Bond>
0.085

> <Angle>
2.748

> <Pdih>
11.238

> <Idih>
0.001

> <Tether>
0.000

$$$$
VeraChem MOL file


 17 16  0  0  0  0  0  0  0  0999 V2000     
   21.0558   22.1165   23.1248 C   0  0  0  0  0  0  0  0  0  0  0  0
   22.0449   22.5819   22.5938 O   0  5  0  0  0  0  0  0  0  0  0  0
   20.8251   22.2092   24.3143 O   0  0  0  0  0  0  0  0  0  0  0  0
   20.0492   21.3821   22.2490 C   0  0  0  0  0  0  0  0  0  0  0  0
   19.9441   21.9456   21.3147 H   0  0  0  0  0  0  0  0  0  0  0  0
   19.0744   21.4083   22.7507 H   0  0  0  0  0  0  0  0  0  0  0  0
   20.4696   19.9552   21.9522 C   0  0  0  0  0  0  0  0  0  0  0  0
   21.3480   19.8521   21.3158 H   0  0  0  0  0  0  0  0  0  0  0  0
   19.8384   18.8736   22.4190 C   0  0  0  0  0  0  0  0  0  0  0  0
   18.9618   18.9776   23.0578 H   0  0  0  0  0  0  0  0  0  0  0  0
   20.2613   17.4517   22.1251 C   0  0  0  0  0  0  0  0  0  0  0  0
   21.2760   17.4316   21.7043 H   0  0  0  0  0  0  0  0  0  0  0  0
   20.2958   16.8746   23.0591 H   0  0  0  0  0  0  0  0  0  0  0  0
   19.2872   16.7766   21.1399 C   0  0  0  0  0  0  0  0  0  0  0  0
   19.2553   17.3223   20.1876 H   0  0  0  0  0  0  0  0  0  0  0  0
   19.5989   15.7449   20.9309 H   0  0  0  0  0  0  0  0  0  0  0  0
   18.2701   16.7483   21.5521 H   0  0  0  0  0  0  0  0  0  0  0  0
  1  2  1  0  0  0  0
  1  3  2  0  0  0  0
  1  4  1  0  0  0  0
  4  5  1  0  0  0  0
  4  6  1  0  0  0  0
  4  7  1  0  0  0  0
  7  8  1  0  0  0  0
  7  9  2  0  0  0  0
  9 10  1  0  0  0  0
  9 11  1  0  0  0  0
 11 12  1  0  0  0  0
 11 13  1  0  0  0  0
 11 14  1  0  0  0  0
 14 15  1  0  0  0  0
 14 16  1  0  0  0  0
 14 17  1  0  0  0  0
M  END
> <VConfSearch Rank>
591

> <Conf_Id>
38

> <Delta U+W>
0.000

> <U+W>
-49.427

> <U>
13.666

> <W>
-63.093

> <W(PB)>
-65.225

> <W(SA)>
2.132

> <Valence>
15.226

> <Coulomb>
-1.822

> <VdW>
0.261

> <VdW6>
-4.165

> <VdW12>
4.426

> <Bond>
0.044

> <Angle>
2.229

> <Pdih>
12.953

> <Idih>
0.000

> <Tether>
0.000

$$$$
VeraChem MOL file


 17 16  0  0  0  0  0  0  0  0999 V2000     
   22.6071   19.5216   20.2086 C   0  0  0  0  0  0  0  0  0  0  0  0
   22.4817   18.7531   19.2756 O   0  5  0  0  0  0  0  0  0  0  0  0
   23.6706   19.7558   20.7481 O   0  0  0  0  0  0  0  0  0  0  0  0
   21.3660   20.2352   20.7283 C   0  0  0  0  0  0  0  0  0  0  0  0
   20.6231   20.2627   19.9220 H   0  0  0  0  0  0  0  0  0  0  0  0
   21.6426   21.2736   20.9447 H   0  0  0  0  0  0  0  0  0  0  0  0
   20.7956   19.5784   21.9708 C   0  0  0  0  0  0  0  0  0  0  0  0
   21.4156   19.6550   22.8636 H   0  0  0  0  0  0  0  0  0  0  0  0
   19.6228   18.9389   22.0113 C   0  0  0  0  0  0  0  0  0  0  0  0
   19.0048   18.8599   21.1175 H   0  0  0  0  0  0  0  0  0  0  0  0
   19.0575   18.2810   23.2503 C   0  0  0  0  0  0  0  0  0  0  0  0
   18.7183   17.2647   23.0084 H   0  0  0  0  0  0  0  0  0  0  0  0
   19.8349   18.1791   24.0200 H   0  0  0  0  0  0  0  0  0  0  0  0
   17.8789   19.0940   23.8203 C   0  0  0  0  0  0  0  0  0  0  0  0
   17.0692   19.1793   23.0836 H   0  0  0  0  0  0  0  0  0  0  0  0
   17.4725   18.6114   24.7186 H   0  0  0  0  0  0  0  0  0  0  0  0
   18.2005   20.1075   24.0939 H   0  0  0  0  0  0  0  0  0  0  0  0
  1  2  1  0  0  0  0
  1  3  2  0  0  0  0
  1  4  1  0  0  0  0
  4  5  1  0  0  0  0
  4  6  1  0  0  0  0
  4  7  1  0  0  0  0
  7  8  1  0  0  0  0
  7  9  2  0  0  0  0
  9 10  1  0  0  0  0
  9 11  1  0  0  0  0
 11 12  1  0  0  0  0
 11 13  1  0  0  0  0
 11 14  1  0  0  0  0
 14 15  1  0  0  0  0
 14 16  1  0  0  0  0
 14 17  1  0  0  0  0
M  END
> <VConfSearch Rank>
592

> <Conf_Id>
35

> <Delta U+W>
-0.102

> <U+W>
-49.529

> <U>
13.666

> <W>
-63.195

> <W(PB)>
-65.299

> <W(SA)>
2.103

> <Valence>
15.226

> <Coulomb>
-1.822

> <VdW>
0.261

> <VdW6>
-4.165

> <VdW12>
4.426

> <Bond>
0.044

> <Angle>
2.229

> <Pdih>
12.953

> <Idih>
0.000

> <Tether>
0.000

$$$$
VeraChem MOL file


 17 16  0  0  0  0  0  0  0  0999 V2000     
   20.9733   21.5025   20.6653 C   0  0  0  0  0  0  0  0  0  0  0  0
   20.6341   21.3732   19.5055 O   0  5  0  0  0  0  0  0  0  0  0  0
   20.7903   22.5164   21.3099 O   0  0  0  0  0  0  0  0  0  0  0  0
   21.6740   20.3324   21.3431 C   0  0  0  0  0  0  0  0  0  0  0  0
   22.2744   20.7259   22.1722 H   0  0  0  0  0  0  0  0  0  0  0  0
   22.3730   19.8965   20.6201 H   0  0  0  0  0  0  0  0  0  0  0  0
   20.7005   19.2750   21.8285 C   0  0  0  0  0  0  0  0  0  0  0  0
   20.1860   18.7335   21.0367 H   0  0  0  0  0  0  0  0  0  0  0  0
   20.4676   19.0106   23.1202 C   0  0  0  0  0  0  0  0  0  0  0  0
   20.9984   19.5765   23.8851 H   0  0  0  0  0  0  0  0  0  0  0  0
   19.5072   17.9722   23.6752 C   0  0  0  0  0  0  0  0  0  0  0  0
   20.0647   17.2789   24.3194 H   0  0  0  0  0  0  0  0  0  0  0  0
   18.7847   18.4716   24.3349 H   0  0  0  0  0  0  0  0  0  0  0  0
   18.7376   17.1605   22.6099 C   0  0  0  0  0  0  0  0  0  0  0  0
   19.4286   16.6031   21.9640 H   0  0  0  0  0  0  0  0  0  0  0  0
   18.0667   16.4355   23.0889 H   0  0  0  0  0  0  0  0  0  0  0  0
   18.1258   17.8188   21.9792 H   0  0  0  0  0  0  0  0  0  0  0  0
  1  2  1  0  0  0  0
  1  3  2  0  0  0  0
  1  4  1  0  0  0  0
  4  5  1  0  0  0  0
  4  6  1  0  0  0  0
  4  7  1  0  0  0  0
  7  8  1  0  0  0  0
  7  9  2  0  0  0  0
  9 10  1  0  0  0  0
  9 11  1  0  0  0  0
 11 12  1  0  0  0  0
 11 13  1  0  0  0  0
 11 14  1  0  0  0  0
 14 15  1  0  0  0  0
 14 16  1  0  0  0  0
 14 17  1  0  0  0  0
M  END
> <VConfSearch Rank>
593

> <Conf_Id>
19

> <Delta U+W>
-0.496

> <U+W>
-49.923

> <U>
13.863

> <W>
-63.786

> <W(PB)>
-65.856

> <W(SA)>
2.070

> <Valence>
14.117

> <Coulomb>
-1.228

> <VdW>
0.974

> <VdW6>
-4.885

> <VdW12>
5.859

> <Bond>
0.094

> <Angle>
2.818

> <Pdih>
11.205

> <Idih>
0.000

> <Tether>
0.000

$$$$
VeraChem MOL file


 17 16  0  0  0  0  0  0  0  0999 V2000     
   18.0239   19.1738   20.1982 C   0  0  0  0  0  0  0  0  0  0  0  0
   18.6180   19.5664   19.2135 O   0  5  0  0  0  0  0  0  0  0  0  0
   17.2431   18.2426   20.1852 O   0  0  0  0  0  0  0  0  0  0  0  0
   18.2611   19.8932   21.5196 C   0  0  0  0  0  0  0  0  0  0  0  0
   17.2914   20.0055   22.0182 H   0  0  0  0  0  0  0  0  0  0  0  0
   18.6277   20.9031   21.2996 H   0  0  0  0  0  0  0  0  0  0  0  0
   19.2272   19.1485   22.4212 C   0  0  0  0  0  0  0  0  0  0  0  0
   18.8627   18.1975   22.8086 H   0  0  0  0  0  0  0  0  0  0  0  0
   20.4496   19.5867   22.7371 C   0  0  0  0  0  0  0  0  0  0  0  0
   20.8155   20.5352   22.3453 H   0  0  0  0  0  0  0  0  0  0  0  0
   21.4125   18.8412   23.6339 C   0  0  0  0  0  0  0  0  0  0  0  0
   21.8232   19.5261   24.3881 H   0  0  0  0  0  0  0  0  0  0  0  0
   20.8896   18.0453   24.1820 H   0  0  0  0  0  0  0  0  0  0  0  0
   22.5652   18.2251   22.8173 C   0  0  0  0  0  0  0  0  0  0  0  0
   23.1305   19.0038   22.2886 H   0  0  0  0  0  0  0  0  0  0  0  0
   23.2606   17.6850   23.4728 H   0  0  0  0  0  0  0  0  0  0  0  0
   22.1796   17.5170   22.0719 H   0  0  0  0  0  0  0  0  0  0  0  0
  1  2  1  0  0  0  0
  1  3  2  0  0  0  0
  1  4  1  0  0  0  0
  4  5  1  0  0  0  0
  4  6  1  0  0  0  0
  4  7  1  0  0  0  0
  7  8  1  0  0  0  0
  7  9  2  0  0  0  0
  9 10  1  0  0  0  0
  9 11  1  0  0  0  0
 11 12  1  0  0  0  0
 11 13  1  0  0  0  0
 11 14  1  0  0  0  0
 14 15  1  0  0  0  0
 14 16  1  0  0  0  0
 14 17  1  0  0  0  0
M  END
> <VConfSearch Rank>
594

> <Conf_Id>
7

> <Delta U+W>
-0.041

> <U+W>
-49.468

> <U>
14.121

> <W>
-63.589

> <W(PB)>
-65.660

> <W(SA)>
2.071

> <Valence>
15.230

> <Coulomb>
-1.333

> <VdW>
0.224

> <VdW6>
-4.212

> <VdW12>
4.436

> <Bond>
0.044

> <Angle>
2.230

> <Pdih>
12.956

> <Idih>
0.000

> <Tether>
0.000

$$$$
VeraChem MOL file


 17 16  0  0  0  0  0  0  0  0999 V2000     
   22.2756   21.0042   22.1084 C   0  0  0  0  0  0  0  0  0  0  0  0
   21.7504   22.0518   22.4304 O   0  5  0  0  0  0  0  0  0  0  0  0
   22.9079   20.8583   21.0808 O   0  0  0  0  0  0  0  0  0  0  0  0
   22.1585   19.8161   23.0584 C   0  0  0  0  0  0  0  0  0  0  0  0
   22.1213   20.2065   24.0821 H   0  0  0  0  0  0  0  0  0  0  0  0
   23.0877   19.2386   22.9897 H   0  0  0  0  0  0  0  0  0  0  0  0
   20.9682   18.8981   22.8189 C   0  0  0  0  0  0  0  0  0  0  0  0
   20.9038   18.0568   23.5078 H   0  0  0  0  0  0  0  0  0  0  0  0
   20.0387   19.0471   21.8677 C   0  0  0  0  0  0  0  0  0  0  0  0
   20.0793   19.8800   21.1668 H   0  0  0  0  0  0  0  0  0  0  0  0
   18.8734   18.1031   21.6709 C   0  0  0  0  0  0  0  0  0  0  0  0
   18.7922   17.8310   20.6098 H   0  0  0  0  0  0  0  0  0  0  0  0
   19.0374   17.1681   22.2242 H   0  0  0  0  0  0  0  0  0  0  0  0
   17.5539   18.7475   22.1385 C   0  0  0  0  0  0  0  0  0  0  0  0
   16.7117   18.0588   21.9921 H   0  0  0  0  0  0  0  0  0  0  0  0
   17.6023   19.0051   23.2047 H   0  0  0  0  0  0  0  0  0  0  0  0
   17.3452   19.6659   21.5741 H   0  0  0  0  0  0  0  0  0  0  0  0
  1  2  1  0  0  0  0
  1  3  2  0  0  0  0
  1  4  1  0  0  0  0
  4  5  1  0  0  0  0
  4  6  1  0  0  0  0
  4  7  1  0  0  0  0
  7  8  1  0  0  0  0
  7  9  2  0  0  0  0
  9 10  1  0  0  0  0
  9 11  1  0  0  0  0
 11 12  1  0  0  0  0
 11 13  1  0  0  0  0
 11 14  1  0  0  0  0
 14 15  1  0  0  0  0
 14 16  1  0  0  0  0
 14 17  1  0  0  0  0
M  END
> <VConfSearch Rank>
595

> <Conf_Id>
39

> <Delta U+W>
-0.422

> <U+W>
-49.849

> <U>
14.465

> <W>
-64.314

> <W(PB)>
-66.406

> <W(SA)>
2.093

> <Valence>
14.072

> <Coulomb>
-0.199

> <VdW>
0.592

> <VdW6>
-5.019

> <VdW12>
5.611

> <Bond>
0.085

> <Angle>
2.748

> <Pdih>
11.238

> <Idih>
0.001

> <Tether>
0.000

$$$$
VeraChem MOL file


 17 16  0  0  0  0  0  0  0  0999 V2000     
   17.9559   19.8477   24.3528 C   0  0  0  0  0  0  0  0  0  0  0  0
   18.3830   20.1670   25.4449 O   0  5  0  0  0  0  0  0  0  0  0  0
   17.0072   19.1053   24.1932 O   0  0  0  0  0  0  0  0  0  0  0  0
   18.6455   20.4141   23.1186 C   0  0  0  0  0  0  0  0  0  0  0  0
   18.8794   21.4661   23.3188 H   0  0  0  0  0  0  0  0  0  0  0  0
   17.9300   20.3971   22.2877 H   0  0  0  0  0  0  0  0  0  0  0  0
   19.9111   19.6579   22.7619 C   0  0  0  0  0  0  0  0  0  0  0  0
   20.7311   19.7628   23.4716 H   0  0  0  0  0  0  0  0  0  0  0  0
   20.0522   18.9038   21.6675 C   0  0  0  0  0  0  0  0  0  0  0  0
   19.2308   18.7970   20.9598 H   0  0  0  0  0  0  0  0  0  0  0  0
   21.3137   18.1475   21.3153 C   0  0  0  0  0  0  0  0  0  0  0  0
   21.9852   18.0946   22.1834 H   0  0  0  0  0  0  0  0  0  0  0  0
   21.0626   17.1122   21.0475 H   0  0  0  0  0  0  0  0  0  0  0  0
   22.0514   18.8178   20.1399 C   0  0  0  0  0  0  0  0  0  0  0  0
   22.3357   19.8473   20.3943 H   0  0  0  0  0  0  0  0  0  0  0  0
   22.9654   18.2642   19.8886 H   0  0  0  0  0  0  0  0  0  0  0  0
   21.4156   18.8496   19.2454 H   0  0  0  0  0  0  0  0  0  0  0  0
  1  2  1  0  0  0  0
  1  3  2  0  0  0  0
  1  4  1  0  0  0  0
  4  5  1  0  0  0  0
  4  6  1  0  0  0  0
  4  7  1  0  0  0  0
  7  8  1  0  0  0  0
  7  9  2  0  0  0  0
  9 10  1  0  0  0  0
  9 11  1  0  0  0  0
 11 12  1  0  0  0  0
 11 13  1  0  0  0  0
 11 14  1  0  0  0  0
 14 15  1  0  0  0  0
 14 16  1  0  0  0  0
 14 17  1  0  0  0  0
M  END
> <VConfSearch Rank>
596

> <Conf_Id>
38

> <Delta U+W>
0.000

> <U+W>
-49.427

> <U>
13.666

> <W>
-63.093

> <W(PB)>
-65.225

> <W(SA)>
2.132

> <Valence>
15.226

> <Coulomb>
-1.822

> <VdW>
0.261

> <VdW6>
-4.165

> <VdW12>
4.426

> <Bond>
0.044

> <Angle>
2.229

> <Pdih>
12.953

> <Idih>
0.000

> <Tether>
0.000

$$$$
VeraChem MOL file


 17 16  0  0  0  0  0  0  0  0999 V2000     
   20.5784   20.5093   19.2358 C   0  0  0  0  0  0  0  0  0  0  0  0
   20.0305   19.8146   18.4027 O   0  5  0  0  0  0  0  0  0  0  0  0
   21.6497   21.0545   19.0569 O   0  0  0  0  0  0  0  0  0  0  0  0
   19.8838   20.7135   20.5757 C   0  0  0  0  0  0  0  0  0  0  0  0
   18.8097   20.5429   20.4350 H   0  0  0  0  0  0  0  0  0  0  0  0
   20.0069   21.7650   20.8600 H   0  0  0  0  0  0  0  0  0  0  0  0
   20.4398   19.8120   21.6615 C   0  0  0  0  0  0  0  0  0  0  0  0
   21.4613   20.0316   21.9704 H   0  0  0  0  0  0  0  0  0  0  0  0
   19.7611   18.8076   22.2243 C   0  0  0  0  0  0  0  0  0  0  0  0
   18.7407   18.5866   21.9127 H   0  0  0  0  0  0  0  0  0  0  0  0
   20.3185   17.9072   23.3041 C   0  0  0  0  0  0  0  0  0  0  0  0
   20.1290   16.8567   23.0452 H   0  0  0  0  0  0  0  0  0  0  0  0
   21.4088   18.0225   23.3759 H   0  0  0  0  0  0  0  0  0  0  0  0
   19.6812   18.2222   24.6715 C   0  0  0  0  0  0  0  0  0  0  0  0
   18.5933   18.0778   24.6392 H   0  0  0  0  0  0  0  0  0  0  0  0
   20.0890   17.5653   25.4508 H   0  0  0  0  0  0  0  0  0  0  0  0
   19.8797   19.2618   24.9639 H   0  0  0  0  0  0  0  0  0  0  0  0
  1  2  1  0  0  0  0
  1  3  2  0  0  0  0
  1  4  1  0  0  0  0
  4  5  1  0  0  0  0
  4  6  1  0  0  0  0
  4  7  1  0  0  0  0
  7  8  1  0  0  0  0
  7  9  2  0  0  0  0
  9 10  1  0  0  0  0
  9 11  1  0  0  0  0
 11 12  1  0  0  0  0
 11 13  1  0  0  0  0
 11 14  1  0  0  0  0
 14 15  1  0  0  0  0
 14 16  1  0  0  0  0
 14 17  1  0  0  0  0
M  END
> <VConfSearch Rank>
597

> <Conf_Id>
35

> <Delta U+W>
-0.102

> <U+W>
-49.529

> <U>
13.666

> <W>
-63.195

> <W(PB)>
-65.299

> <W(SA)>
2.103

> <Valence>
15.226

> <Coulomb>
-1.822

> <VdW>
0.261

> <VdW6>
-4.165

> <VdW12>
4.426

> <Bond>
0.044

> <Angle>
2.229

> <Pdih>
12.953

> <Idih>
0.000

> <Tether>
0.000

$$$$
VeraChem MOL file


 17 16  0  0  0  0  0  0  0  0999 V2000     
   18.3686   16.9221   22.9310 C   0  0  0  0  0  0  0  0  0  0  0  0
   18.8951   16.1845   23.7408 O   0  5  0  0  0  0  0  0  0  0  0  0
   17.2275   17.3274   23.0336 O   0  0  0  0  0  0  0  0  0  0  0  0
   19.1818   17.3532   21.7175 C   0  0  0  0  0  0  0  0  0  0  0  0
   18.4842   17.6238   20.9158 H   0  0  0  0  0  0  0  0  0  0  0  0
   19.7491   16.4827   21.3683 H   0  0  0  0  0  0  0  0  0  0  0  0
   20.1260   18.4991   22.0287 C   0  0  0  0  0  0  0  0  0  0  0  0
   20.9422   18.2449   22.7027 H   0  0  0  0  0  0  0  0  0  0  0  0
   19.9887   19.7357   21.5340 C   0  0  0  0  0  0  0  0  0  0  0  0
   19.1563   19.9538   20.8656 H   0  0  0  0  0  0  0  0  0  0  0  0
   20.8914   20.9273   21.8055 C   0  0  0  0  0  0  0  0  0  0  0  0
   21.2811   21.3046   20.8504 H   0  0  0  0  0  0  0  0  0  0  0  0
   20.2870   21.7448   22.2212 H   0  0  0  0  0  0  0  0  0  0  0  0
   22.0760   20.6447   22.7557 C   0  0  0  0  0  0  0  0  0  0  0  0
   22.7340   19.8678   22.3449 H   0  0  0  0  0  0  0  0  0  0  0  0
   22.6772   21.5516   22.9015 H   0  0  0  0  0  0  0  0  0  0  0  0
   21.7207   20.3150   23.7409 H   0  0  0  0  0  0  0  0  0  0  0  0
  1  2  1  0  0  0  0
  1  3  2  0  0  0  0
  1  4  1  0  0  0  0
  4  5  1  0  0  0  0
  4  6  1  0  0  0  0
  4  7  1  0  0  0  0
  7  8  1  0  0  0  0
  7  9  2  0  0  0  0
  9 10  1  0  0  0  0
  9 11  1  0  0  0  0
 11 12  1  0  0  0  0
 11 13  1  0  0  0  0
 11 14  1  0  0  0  0
 14 15  1  0  0  0  0
 14 16  1  0  0  0  0
 14 17  1  0  0  0  0
M  END
> <VConfSearch Rank>
598

> <Conf_Id>
19

> <Delta U+W>
-0.496

> <U+W>
-49.923

> <U>
13.863

> <W>
-63.786

> <W(PB)>
-65.856

> <W(SA)>
2.070

> <Valence>
14.117

> <Coulomb>
-1.228

> <VdW>
0.974

> <VdW6>
-4.885

> <VdW12>
5.859

> <Bond>
0.094

> <Angle>
2.818

> <Pdih>
11.205

> <Idih>
0.000

> <Tether>
0.000

$$$$
VeraChem MOL file


 17 16  0  0  0  0  0  0  0  0999 V2000     
   19.6435   20.9421   20.0141 C   0  0  0  0  0  0  0  0  0  0  0  0
   20.6230   20.7909   19.3108 O   0  5  0  0  0  0  0  0  0  0  0  0
   18.5069   20.9758   19.5851 O   0  0  0  0  0  0  0  0  0  0  0  0
   19.8499   21.1093   21.5139 C   0  0  0  0  0  0  0  0  0  0  0  0
   19.1751   21.9014   21.8582 H   0  0  0  0  0  0  0  0  0  0  0  0
   20.8738   21.4645   21.6819 H   0  0  0  0  0  0  0  0  0  0  0  0
   19.5856   19.8289   22.2829 C   0  0  0  0  0  0  0  0  0  0  0  0
   18.5479   19.4967   22.2903 H   0  0  0  0  0  0  0  0  0  0  0  0
   20.5290   19.1230   22.9137 C   0  0  0  0  0  0  0  0  0  0  0  0
   21.5673   19.4529   22.9016 H   0  0  0  0  0  0  0  0  0  0  0  0
   20.2637   17.8449   23.6775 C   0  0  0  0  0  0  0  0  0  0  0  0
   20.7450   17.8953   24.6636 H   0  0  0  0  0  0  0  0  0  0  0  0
   19.1870   17.7214   23.8579 H   0  0  0  0  0  0  0  0  0  0  0  0
   20.7955   16.6200   22.9082 C   0  0  0  0  0  0  0  0  0  0  0  0
   21.8788   16.6985   22.7474 H   0  0  0  0  0  0  0  0  0  0  0  0
   20.6000   15.6954   23.4666 H   0  0  0  0  0  0  0  0  0  0  0  0
   20.3096   16.5350   21.9272 H   0  0  0  0  0  0  0  0  0  0  0  0
  1  2  1  0  0  0  0
  1  3  2  0  0  0  0
  1  4  1  0  0  0  0
  4  5  1  0  0  0  0
  4  6  1  0  0  0  0
  4  7  1  0  0  0  0
  7  8  1  0  0  0  0
  7  9  2  0  0  0  0
  9 10  1  0  0  0  0
  9 11  1  0  0  0  0
 11 12  1  0  0  0  0
 11 13  1  0  0  0  0
 11 14  1  0  0  0  0
 14 15  1  0  0  0  0
 14 16  1  0  0  0  0
 14 17  1  0  0  0  0
M  END
> <VConfSearch Rank>
599

> <Conf_Id>
7

> <Delta U+W>
-0.041

> <U+W>
-49.468

> <U>
14.121

> <W>
-63.589

> <W(PB)>
-65.660

> <W(SA)>
2.071

> <Valence>
15.230

> <Coulomb>
-1.333

> <VdW>
0.224

> <VdW6>
-4.212

> <VdW12>
4.436

> <Bond>
0.044

> <Angle>
2.230

> <Pdih>
12.956

> <Idih>
0.000

> <Tether>
0.000

$$$$
VeraChem MOL file


 17 16  0  0  0  0  0  0  0  0999 V2000     
   22.4580   20.1354   21.0569 C   0  0  0  0  0  0  0  0  0  0  0  0
   23.2780   19.4219   21.6006 O   0  5  0  0  0  0  0  0  0  0  0  0
   22.5375   21.3478   21.0276 O   0  0  0  0  0  0  0  0  0  0  0  0
   21.2804   19.4722   20.3492 C   0  0  0  0  0  0  0  0  0  0  0  0
   21.6226   18.5063   19.9598 H   0  0  0  0  0  0  0  0  0  0  0  0
   21.0309   20.0797   19.4714 H   0  0  0  0  0  0  0  0  0  0  0  0
   20.0341   19.2671   21.1987 C   0  0  0  0  0  0  0  0  0  0  0  0
   19.2058   18.7924   20.6742 H   0  0  0  0  0  0  0  0  0  0  0  0
   19.8931   19.6109   22.4843 C   0  0  0  0  0  0  0  0  0  0  0  0
   20.7060   20.0859   23.0323 H   0  0  0  0  0  0  0  0  0  0  0  0
   18.6295   19.3858   23.2847 C   0  0  0  0  0  0  0  0  0  0  0  0
   18.3621   20.3060   23.8215 H   0  0  0  0  0  0  0  0  0  0  0  0
   17.7874   19.1539   22.6180 H   0  0  0  0  0  0  0  0  0  0  0  0
   18.8115   18.2363   24.2949 C   0  0  0  0  0  0  0  0  0  0  0  0
   17.8922   18.0782   24.8737 H   0  0  0  0  0  0  0  0  0  0  0  0
   19.0547   17.2983   23.7784 H   0  0  0  0  0  0  0  0  0  0  0  0
   19.6237   18.4590   24.9992 H   0  0  0  0  0  0  0  0  0  0  0  0
  1  2  1  0  0  0  0
  1  3  2  0  0  0  0
  1  4  1  0  0  0  0
  4  5  1  0  0  0  0
  4  6  1  0  0  0  0
  4  7  1  0  0  0  0
  7  8  1  0  0  0  0
  7  9  2  0  0  0  0
  9 10  1  0  0  0  0
  9 11  1  0  0  0  0
 11 12  1  0  0  0  0
 11 13  1  0  0  0  0
 11 14  1  0  0  0  0
 14 15  1  0  0  0  0
 14 16  1  0  0  0  0
 14 17  1  0  0  0  0
M  END
> <VConfSearch Rank>
600

> <Conf_Id>
39

> <Delta U+W>
-0.422

> <U+W>
-49.849

> <U>
14.465

> <W>
-64.314

> <W(PB)>
-66.406

> <W(SA)>
2.093

> <Valence>
14.072

> <Coulomb>
-0.199

> <VdW>
0.592

> <VdW6>
-5.019

> <VdW12>
5.611

> <Bond>
0.085

> <Angle>
2.748

> <Pdih>
11.238

> <Idih>
0.001

> <Tether>
0.000

$$$$
VeraChem MOL file


 17 16  0  0  0  0  0  0  0  0999 V2000     
   17.0068   19.8740   21.9263 C   0  0  0  0  0  0  0  0  0  0  0  0
   16.4309   19.4648   20.9374 O   0  5  0  0  0  0  0  0  0  0  0  0
   16.7806   20.9531   22.4373 O   0  0  0  0  0  0  0  0  0  0  0  0
   18.0654   18.9818   22.5612 C   0  0  0  0  0  0  0  0  0  0  0  0
   17.6899   17.9522   22.5441 H   0  0  0  0  0  0  0  0  0  0  0  0
   18.1686   19.2682   23.6147 H   0  0  0  0  0  0  0  0  0  0  0  0
   19.3991   19.0617   21.8430 C   0  0  0  0  0  0  0  0  0  0  0  0
   19.4117   18.6424   20.8374 H   0  0  0  0  0  0  0  0  0  0  0  0
   20.5035   19.6014   22.3677 C   0  0  0  0  0  0  0  0  0  0  0  0
   20.4895   20.0232   23.3721 H   0  0  0  0  0  0  0  0  0  0  0  0
   21.8315   19.6836   21.6487 C   0  0  0  0  0  0  0  0  0  0  0  0
   21.7013   19.4815   20.5765 H   0  0  0  0  0  0  0  0  0  0  0  0
   22.2352   20.7018   21.7308 H   0  0  0  0  0  0  0  0  0  0  0  0
   22.8431   18.6809   22.2374 C   0  0  0  0  0  0  0  0  0  0  0  0
   22.4719   17.6519   22.1431 H   0  0  0  0  0  0  0  0  0  0  0  0
   23.8048   18.7457   21.7121 H   0  0  0  0  0  0  0  0  0  0  0  0
   23.0218   18.8839   23.3015 H   0  0  0  0  0  0  0  0  0  0  0  0
  1  2  1  0  0  0  0
  1  3  2  0  0  0  0
  1  4  1  0  0  0  0
  4  5  1  0  0  0  0
  4  6  1  0  0  0  0
  4  7  1  0  0  0  0
  7  8  1  0  0  0  0
  7  9  2  0  0  0  0
  9 10  1  0  0  0  0
  9 11  1  0  0  0  0
 11 12  1  0  0  0  0
 11 13  1  0  0  0  0
 11 14  1  0  0  0  0
 14 15  1  0  0  0  0
 14 16  1  0  0  0  0
 14 17  1  0  0  0  0
M  END
> <VConfSearch Rank>
601

> <Conf_Id>
38

> <Delta U+W>
0.000

> <U+W>
-49.427

> <U>
13.666

> <W>
-63.093

> <W(PB)>
-65.225

> <W(SA)>
2.132

> <Valence>
15.226

> <Coulomb>
-1.822

> <VdW>
0.261

> <VdW6>
-4.165

> <VdW12>
4.426

> <Bond>
0.044

> <Angle>
2.229

> <Pdih>
12.953

> <Idih>
0.000

> <Tether>
0.000

$$$$
VeraChem MOL file


 17 16  0  0  0  0  0  0  0  0999 V2000     
   22.7745   17.6104   22.3093 C   0  0  0  0  0  0  0  0  0  0  0  0
   23.6728   18.2446   21.7920 O   0  5  0  0  0  0  0  0  0  0  0  0
   22.6742   16.4017   22.2318 O   0  0  0  0  0  0  0  0  0  0  0  0
   21.7189   18.3689   23.1030 C   0  0  0  0  0  0  0  0  0  0  0  0
   22.1547   19.3198   23.4323 H   0  0  0  0  0  0  0  0  0  0  0  0
   21.4970   17.7882   24.0057 H   0  0  0  0  0  0  0  0  0  0  0  0
   20.4484   18.5999   22.3071 C   0  0  0  0  0  0  0  0  0  0  0  0
   19.8718   17.7035   22.0809 H   0  0  0  0  0  0  0  0  0  0  0  0
   20.0306   19.7992   21.8907 C   0  0  0  0  0  0  0  0  0  0  0  0
   20.6093   20.6948   22.1145 H   0  0  0  0  0  0  0  0  0  0  0  0
   18.7656   20.0272   21.0938 C   0  0  0  0  0  0  0  0  0  0  0  0
   18.9829   20.6681   20.2286 H   0  0  0  0  0  0  0  0  0  0  0  0
   18.3862   19.0765   20.6945 H   0  0  0  0  0  0  0  0  0  0  0  0
   17.6760   20.6871   21.9611 C   0  0  0  0  0  0  0  0  0  0  0  0
   18.0147   21.6592   22.3430 H   0  0  0  0  0  0  0  0  0  0  0  0
   16.7608   20.8507   21.3773 H   0  0  0  0  0  0  0  0  0  0  0  0
   17.4232   20.0515   22.8200 H   0  0  0  0  0  0  0  0  0  0  0  0
  1  2  1  0  0  0  0
  1  3  2  0  0  0  0
  1  4  1  0  0  0  0
  4  5  1  0  0  0  0
  4  6  1  0  0  0  0
  4  7  1  0  0  0  0
  7  8  1  0  0  0  0
  7  9  2  0  0  0  0
  9 10  1  0  0  0  0
  9 11  1  0  0  0  0
 11 12  1  0  0  0  0
 11 13  1  0  0  0  0
 11 14  1  0  0  0  0
 14 15  1  0  0  0  0
 14 16  1  0  0  0  0
 14 17  1  0  0  0  0
M  END
> <VConfSearch Rank>
602

> <Conf_Id>
35

> <Delta U+W>
-0.102

> <U+W>
-49.529

> <U>
13.666

> <W>
-63.195

> <W(PB)>
-65.299

> <W(SA)>
2.103

> <Valence>
15.226

> <Coulomb>
-1.822

> <VdW>
0.261

> <VdW6>
-4.165

> <VdW12>
4.426

> <Bond>
0.044

> <Angle>
2.229

> <Pdih>
12.953

> <Idih>
0.000

> <Tether>
0.000

$$$$
VeraChem MOL file


 17 16  0  0  0  0  0  0  0  0999 V2000     
   17.9350   20.4136   23.5241 C   0  0  0  0  0  0  0  0  0  0  0  0
   17.8890   21.5844   23.2018 O   0  5  0  0  0  0  0  0  0  0  0  0
   16.9621   19.6859   23.5535 O   0  0  0  0  0  0  0  0  0  0  0  0
   19.2849   19.8308   23.9216 C   0  0  0  0  0  0  0  0  0  0  0  0
   19.1068   18.9633   24.5684 H   0  0  0  0  0  0  0  0  0  0  0  0
   19.8076   20.5800   24.5274 H   0  0  0  0  0  0  0  0  0  0  0  0
   20.1297   19.4512   22.7202 C   0  0  0  0  0  0  0  0  0  0  0  0
   20.4740   20.2934   22.1226 H   0  0  0  0  0  0  0  0  0  0  0  0
   20.4389   18.1903   22.3927 C   0  0  0  0  0  0  0  0  0  0  0  0
   20.0724   17.3726   23.0126 H   0  0  0  0  0  0  0  0  0  0  0  0
   21.2740   17.7395   21.2061 C   0  0  0  0  0  0  0  0  0  0  0  0
   22.1258   17.1508   21.5725 H   0  0  0  0  0  0  0  0  0  0  0  0
   20.6792   17.0483   20.5938 H   0  0  0  0  0  0  0  0  0  0  0  0
   21.8003   18.8807   20.3080 C   0  0  0  0  0  0  0  0  0  0  0  0
   22.4454   19.5637   20.8762 H   0  0  0  0  0  0  0  0  0  0  0  0
   22.3907   18.4749   19.4763 H   0  0  0  0  0  0  0  0  0  0  0  0
   20.9711   19.4597   19.8805 H   0  0  0  0  0  0  0  0  0  0  0  0
  1  2  1  0  0  0  0
  1  3  2  0  0  0  0
  1  4  1  0  0  0  0
  4  5  1  0  0  0  0
  4  6  1  0  0  0  0
  4  7  1  0  0  0  0
  7  8  1  0  0  0  0
  7  9  2  0  0  0  0
  9 10  1  0  0  0  0
  9 11  1  0  0  0  0
 11 12  1  0  0  0  0
 11 13  1  0  0  0  0
 11 14  1  0  0  0  0
 14 15  1  0  0  0  0
 14 16  1  0  0  0  0
 14 17  1  0  0  0  0
M  END
> <VConfSearch Rank>
603

> <Conf_Id>
19

> <Delta U+W>
-0.496

> <U+W>
-49.923

> <U>
13.863

> <W>
-63.786

> <W(PB)>
-65.856

> <W(SA)>
2.070

> <Valence>
14.117

> <Coulomb>
-1.228

> <VdW>
0.974

> <VdW6>
-4.885

> <VdW12>
5.859

> <Bond>
0.094

> <Angle>
2.818

> <Pdih>
11.205

> <Idih>
0.000

> <Tether>
0.000

$$$$
VeraChem MOL file


 17 16  0  0  0  0  0  0  0  0999 V2000     
   17.3683   19.4377   23.0481 C   0  0  0  0  0  0  0  0  0  0  0  0
   17.0323   18.3066   23.3389 O   0  5  0  0  0  0  0  0  0  0  0  0
   17.1362   20.4073   23.7432 O   0  0  0  0  0  0  0  0  0  0  0  0
   18.1114   19.6560   21.7367 C   0  0  0  0  0  0  0  0  0  0  0  0
   17.7059   20.5606   21.2689 H   0  0  0  0  0  0  0  0  0  0  0  0
   17.8808   18.8180   21.0679 H   0  0  0  0  0  0  0  0  0  0  0  0
   19.6086   19.7980   21.9341 C   0  0  0  0  0  0  0  0  0  0  0  0
   19.9250   20.6981   22.4604 H   0  0  0  0  0  0  0  0  0  0  0  0
   20.5096   18.9038   21.5159 C   0  0  0  0  0  0  0  0  0  0  0  0
   20.1923   18.0015   20.9943 H   0  0  0  0  0  0  0  0  0  0  0  0
   22.0019   19.0459   21.7164 C   0  0  0  0  0  0  0  0  0  0  0  0
   22.5236   18.8508   20.7697 H   0  0  0  0  0  0  0  0  0  0  0  0
   22.2542   20.0743   22.0094 H   0  0  0  0  0  0  0  0  0  0  0  0
   22.5109   18.0693   22.7944 C   0  0  0  0  0  0  0  0  0  0  0  0
   22.3062   17.0292   22.5087 H   0  0  0  0  0  0  0  0  0  0  0  0
   23.5941   18.1769   22.9362 H   0  0  0  0  0  0  0  0  0  0  0  0
   22.0202   18.2620   23.7577 H   0  0  0  0  0  0  0  0  0  0  0  0
  1  2  1  0  0  0  0
  1  3  2  0  0  0  0
  1  4  1  0  0  0  0
  4  5  1  0  0  0  0
  4  6  1  0  0  0  0
  4  7  1  0  0  0  0
  7  8  1  0  0  0  0
  7  9  2  0  0  0  0
  9 10  1  0  0  0  0
  9 11  1  0  0  0  0
 11 12  1  0  0  0  0
 11 13  1  0  0  0  0
 11 14  1  0  0  0  0
 14 15  1  0  0  0  0
 14 16  1  0  0  0  0
 14 17  1  0  0  0  0
M  END
> <VConfSearch Rank>
604

> <Conf_Id>
7

> <Delta U+W>
-0.041

> <U+W>
-49.468

> <U>
14.121

> <W>
-63.589

> <W(PB)>
-65.660

> <W(SA)>
2.071

> <Valence>
15.230

> <Coulomb>
-1.333

> <VdW>
0.224

> <VdW6>
-4.212

> <VdW12>
4.436

> <Bond>
0.044

> <Angle>
2.230

> <Pdih>
12.956

> <Idih>
0.000

> <Tether>
0.000

$$$$
VeraChem MOL file


 17 16  0  0  0  0  0  0  0  0999 V2000     
   18.1226   19.8188   24.0827 C   0  0  0  0  0  0  0  0  0  0  0  0
   17.7533   20.9104   23.6966 O   0  5  0  0  0  0  0  0  0  0  0  0
   18.4652   19.5919   25.2265 O   0  0  0  0  0  0  0  0  0  0  0  0
   18.1302   18.6648   23.0849 C   0  0  0  0  0  0  0  0  0  0  0  0
   17.3140   18.8310   22.3722 H   0  0  0  0  0  0  0  0  0  0  0  0
   17.8731   17.7486   23.6292 H   0  0  0  0  0  0  0  0  0  0  0  0
   19.4346   18.4594   22.3277 C   0  0  0  0  0  0  0  0  0  0  0  0
   19.4183   17.6306   21.6210 H   0  0  0  0  0  0  0  0  0  0  0  0
   20.5460   19.1926   22.4621 C   0  0  0  0  0  0  0  0  0  0  0  0
   20.5886   20.0273   23.1608 H   0  0  0  0  0  0  0  0  0  0  0  0
   21.8197   18.9452   21.6846 C   0  0  0  0  0  0  0  0  0  0  0  0
   22.6778   18.9432   22.3703 H   0  0  0  0  0  0  0  0  0  0  0  0
   21.7943   17.9553   21.2086 H   0  0  0  0  0  0  0  0  0  0  0  0
   22.0277   20.0249   20.6048 C   0  0  0  0  0  0  0  0  0  0  0  0
   22.9538   19.8413   20.0448 H   0  0  0  0  0  0  0  0  0  0  0  0
   21.1930   20.0286   19.8914 H   0  0  0  0  0  0  0  0  0  0  0  0
   22.0951   21.0231   21.0571 H   0  0  0  0  0  0  0  0  0  0  0  0
  1  2  1  0  0  0  0
  1  3  2  0  0  0  0
  1  4  1  0  0  0  0
  4  5  1  0  0  0  0
  4  6  1  0  0  0  0
  4  7  1  0  0  0  0
  7  8  1  0  0  0  0
  7  9  2  0  0  0  0
  9 10  1  0  0  0  0
  9 11  1  0  0  0  0
 11 12  1  0  0  0  0
 11 13  1  0  0  0  0
 11 14  1  0  0  0  0
 14 15  1  0  0  0  0
 14 16  1  0  0  0  0
 14 17  1  0  0  0  0
M  END
> <VConfSearch Rank>
605

> <Conf_Id>
39

> <Delta U+W>
-0.422

> <U+W>
-49.849

> <U>
14.465

> <W>
-64.314

> <W(PB)>
-66.406

> <W(SA)>
2.093

> <Valence>
14.072

> <Coulomb>
-0.199

> <VdW>
0.592

> <VdW6>
-5.019

> <VdW12>
5.611

> <Bond>
0.085

> <Angle>
2.748

> <Pdih>
11.238

> <Idih>
0.001

> <Tether>
0.000

$$$$
VeraChem MOL file


 17 16  0  0  0  0  0  0  0  0999 V2000     
   22.9668   18.5484   20.9544 C   0  0  0  0  0  0  0  0  0  0  0  0
   23.2670   17.3707   20.9490 O   0  5  0  0  0  0  0  0  0  0  0  0
   23.7453   19.4389   21.2332 O   0  0  0  0  0  0  0  0  0  0  0  0
   21.5382   18.9268   20.5864 C   0  0  0  0  0  0  0  0  0  0  0  0
   21.2314   18.2968   19.7436 H   0  0  0  0  0  0  0  0  0  0  0  0
   21.5393   19.9634   20.2284 H   0  0  0  0  0  0  0  0  0  0  0  0
   20.5745   18.7528   21.7447 C   0  0  0  0  0  0  0  0  0  0  0  0
   20.3981   17.7224   22.0521 H   0  0  0  0  0  0  0  0  0  0  0  0
   19.9655   19.7628   22.3734 C   0  0  0  0  0  0  0  0  0  0  0  0
   20.1447   20.7930   22.0675 H   0  0  0  0  0  0  0  0  0  0  0  0
   19.0077   19.5875   23.5307 C   0  0  0  0  0  0  0  0  0  0  0  0
   19.0799   18.5699   23.9386 H   0  0  0  0  0  0  0  0  0  0  0  0
   19.2801   20.2733   24.3444 H   0  0  0  0  0  0  0  0  0  0  0  0
   17.5552   19.8601   23.0937 C   0  0  0  0  0  0  0  0  0  0  0  0
   17.2515   19.1682   22.2971 H   0  0  0  0  0  0  0  0  0  0  0  0
   16.8651   19.7320   23.9376 H   0  0  0  0  0  0  0  0  0  0  0  0
   17.4455   20.8853   22.7165 H   0  0  0  0  0  0  0  0  0  0  0  0
  1  2  1  0  0  0  0
  1  3  2  0  0  0  0
  1  4  1  0  0  0  0
  4  5  1  0  0  0  0
  4  6  1  0  0  0  0
  4  7  1  0  0  0  0
  7  8  1  0  0  0  0
  7  9  2  0  0  0  0
  9 10  1  0  0  0  0
  9 11  1  0  0  0  0
 11 12  1  0  0  0  0
 11 13  1  0  0  0  0
 11 14  1  0  0  0  0
 14 15  1  0  0  0  0
 14 16  1  0  0  0  0
 14 17  1  0  0  0  0
M  END
> <VConfSearch Rank>
606

> <Conf_Id>
38

> <Delta U+W>
0.000

> <U+W>
-49.427

> <U>
13.666

> <W>
-63.093

> <W(PB)>
-65.225

> <W(SA)>
2.132

> <Valence>
15.226

> <Coulomb>
-1.822

> <VdW>
0.261

> <VdW6>
-4.165

> <VdW12>
4.426

> <Bond>
0.044

> <Angle>
2.229

> <Pdih>
12.953

> <Idih>
0.000

> <Tether>
0.000

$$$$
VeraChem MOL file


 17 16  0  0  0  0  0  0  0  0999 V2000     
   19.6884   21.1522   19.5936 C   0  0  0  0  0  0  0  0  0  0  0  0
   20.6904   21.8214   19.4361 O   0  5  0  0  0  0  0  0  0  0  0  0
   18.5637   21.5708   19.4018 O   0  0  0  0  0  0  0  0  0  0  0  0
   19.8487   19.7083   20.0509 C   0  0  0  0  0  0  0  0  0  0  0  0
   20.8536   19.3695   19.7717 H   0  0  0  0  0  0  0  0  0  0  0  0
   19.1357   19.0968   19.4857 H   0  0  0  0  0  0  0  0  0  0  0  0
   19.6126   19.5409   21.5398 C   0  0  0  0  0  0  0  0  0  0  0  0
   18.5872   19.7052   21.8695 H   0  0  0  0  0  0  0  0  0  0  0  0
   20.5655   19.2188   22.4198 C   0  0  0  0  0  0  0  0  0  0  0  0
   21.5914   19.0578   22.0900 H   0  0  0  0  0  0  0  0  0  0  0  0
   20.3291   19.0562   23.9048 C   0  0  0  0  0  0  0  0  0  0  0  0
   21.0905   19.6159   24.4648 H   0  0  0  0  0  0  0  0  0  0  0  0
   19.3553   19.4792   24.1875 H   0  0  0  0  0  0  0  0  0  0  0  0
   20.3784   17.5713   24.3141 C   0  0  0  0  0  0  0  0  0  0  0  0
   21.3564   17.1320   24.0775 H   0  0  0  0  0  0  0  0  0  0  0  0
   20.2069   17.4597   25.3927 H   0  0  0  0  0  0  0  0  0  0  0  0
   19.6077   16.9952   23.7852 H   0  0  0  0  0  0  0  0  0  0  0  0
  1  2  1  0  0  0  0
  1  3  2  0  0  0  0
  1  4  1  0  0  0  0
  4  5  1  0  0  0  0
  4  6  1  0  0  0  0
  4  7  1  0  0  0  0
  7  8  1  0  0  0  0
  7  9  2  0  0  0  0
  9 10  1  0  0  0  0
  9 11  1  0  0  0  0
 11 12  1  0  0  0  0
 11 13  1  0  0  0  0
 11 14  1  0  0  0  0
 14 15  1  0  0  0  0
 14 16  1  0  0  0  0
 14 17  1  0  0  0  0
M  END
> <VConfSearch Rank>
607

> <Conf_Id>
35

> <Delta U+W>
-0.102

> <U+W>
-49.529

> <U>
13.666

> <W>
-63.195

> <W(PB)>
-65.299

> <W(SA)>
2.103

> <Valence>
15.226

> <Coulomb>
-1.822

> <VdW>
0.261

> <VdW6>
-4.165

> <VdW12>
4.426

> <Bond>
0.044

> <Angle>
2.229

> <Pdih>
12.953

> <Idih>
0.000

> <Tether>
0.000

$$$$
VeraChem MOL file


 17 16  0  0  0  0  0  0  0  0999 V2000     
   18.2547   21.2880   22.4056 C   0  0  0  0  0  0  0  0  0  0  0  0
   17.8381   21.3651   23.5446 O   0  5  0  0  0  0  0  0  0  0  0  0
   18.5943   22.2517   21.7476 O   0  0  0  0  0  0  0  0  0  0  0  0
   18.3463   19.9086   21.7664 C   0  0  0  0  0  0  0  0  0  0  0  0
   18.3105   20.0323   20.6773 H   0  0  0  0  0  0  0  0  0  0  0  0
   17.4508   19.3460   22.0545 H   0  0  0  0  0  0  0  0  0  0  0  0
   19.5931   19.1547   22.1889 C   0  0  0  0  0  0  0  0  0  0  0  0
   19.6133   18.8615   23.2371 H   0  0  0  0  0  0  0  0  0  0  0  0
   20.6062   18.8639   21.3631 C   0  0  0  0  0  0  0  0  0  0  0  0
   20.5524   19.1778   20.3212 H   0  0  0  0  0  0  0  0  0  0  0  0
   21.8814   18.1183   21.7186 C   0  0  0  0  0  0  0  0  0  0  0  0
   21.9728   17.2377   21.0684 H   0  0  0  0  0  0  0  0  0  0  0  0
   22.7445   18.7536   21.4780 H   0  0  0  0  0  0  0  0  0  0  0  0
   21.9841   17.6680   23.1926 C   0  0  0  0  0  0  0  0  0  0  0  0
   21.1647   16.9858   23.4543 H   0  0  0  0  0  0  0  0  0  0  0  0
   22.9302   17.1398   23.3686 H   0  0  0  0  0  0  0  0  0  0  0  0
   21.9494   18.5304   23.8712 H   0  0  0  0  0  0  0  0  0  0  0  0
  1  2  1  0  0  0  0
  1  3  2  0  0  0  0
  1  4  1  0  0  0  0
  4  5  1  0  0  0  0
  4  6  1  0  0  0  0
  4  7  1  0  0  0  0
  7  8  1  0  0  0  0
  7  9  2  0  0  0  0
  9 10  1  0  0  0  0
  9 11  1  0  0  0  0
 11 12  1  0  0  0  0
 11 13  1  0  0  0  0
 11 14  1  0  0  0  0
 14 15  1  0  0  0  0
 14 16  1  0  0  0  0
 14 17  1  0  0  0  0
M  END
> <VConfSearch Rank>
608

> <Conf_Id>
19

> <Delta U+W>
-0.496

> <U+W>
-49.923

> <U>
13.863

> <W>
-63.786

> <W(PB)>
-65.856

> <W(SA)>
2.070

> <Valence>
14.117

> <Coulomb>
-1.228

> <VdW>
0.974

> <VdW6>
-4.885

> <VdW12>
5.859

> <Bond>
0.094

> <Angle>
2.818

> <Pdih>
11.205

> <Idih>
0.000

> <Tether>
0.000

$$$$
VeraChem MOL file


 17 16  0  0  0  0  0  0  0  0999 V2000     
   22.7196   19.5542   23.5596 C   0  0  0  0  0  0  0  0  0  0  0  0
   23.4898   18.8822   22.9024 O   0  5  0  0  0  0  0  0  0  0  0  0
   22.9452   20.7005   23.8944 O   0  0  0  0  0  0  0  0  0  0  0  0
   21.4041   18.9241   23.9979 C   0  0  0  0  0  0  0  0  0  0  0  0
   21.2212   19.2201   25.0374 H   0  0  0  0  0  0  0  0  0  0  0  0
   21.5265   17.8344   23.9914 H   0  0  0  0  0  0  0  0  0  0  0  0
   20.2384   19.3455   23.1236 C   0  0  0  0  0  0  0  0  0  0  0  0
   19.9570   20.3955   23.1981 H   0  0  0  0  0  0  0  0  0  0  0  0
   19.5809   18.5230   22.3006 C   0  0  0  0  0  0  0  0  0  0  0  0
   19.8660   17.4744   22.2227 H   0  0  0  0  0  0  0  0  0  0  0  0
   18.4207   18.9459   21.4274 C   0  0  0  0  0  0  0  0  0  0  0  0
   17.5935   18.2317   21.5379 H   0  0  0  0  0  0  0  0  0  0  0  0
   18.0368   19.9250   21.7458 H   0  0  0  0  0  0  0  0  0  0  0  0
   18.8410   19.0203   19.9466 C   0  0  0  0  0  0  0  0  0  0  0  0
   19.1934   18.0435   19.5900 H   0  0  0  0  0  0  0  0  0  0  0  0
   17.9956   19.3280   19.3176 H   0  0  0  0  0  0  0  0  0  0  0  0
   19.6518   19.7476   19.8077 H   0  0  0  0  0  0  0  0  0  0  0  0
  1  2  1  0  0  0  0
  1  3  2  0  0  0  0
  1  4  1  0  0  0  0
  4  5  1  0  0  0  0
  4  6  1  0  0  0  0
  4  7  1  0  0  0  0
  7  8  1  0  0  0  0
  7  9  2  0  0  0  0
  9 10  1  0  0  0  0
  9 11  1  0  0  0  0
 11 12  1  0  0  0  0
 11 13  1  0  0  0  0
 11 14  1  0  0  0  0
 14 15  1  0  0  0  0
 14 16  1  0  0  0  0
 14 17  1  0  0  0  0
M  END
> <VConfSearch Rank>
609

> <Conf_Id>
7

> <Delta U+W>
-0.041

> <U+W>
-49.468

> <U>
14.121

> <W>
-63.589

> <W(PB)>
-65.660

> <W(SA)>
2.071

> <Valence>
15.230

> <Coulomb>
-1.333

> <VdW>
0.224

> <VdW6>
-4.212

> <VdW12>
4.436

> <Bond>
0.044

> <Angle>
2.230

> <Pdih>
12.956

> <Idih>
0.000

> <Tether>
0.000

$$$$
VeraChem MOL file


 17 16  0  0  0  0  0  0  0  0999 V2000     
   17.4916   19.2962   21.4501 C   0  0  0  0  0  0  0  0  0  0  0  0
   17.5190   20.1715   20.6074 O   0  5  0  0  0  0  0  0  0  0  0  0
   16.7210   19.2930   22.3898 O   0  0  0  0  0  0  0  0  0  0  0  0
   18.4577   18.1243   21.3052 C   0  0  0  0  0  0  0  0  0  0  0  0
   18.6226   17.9548   20.2348 H   0  0  0  0  0  0  0  0  0  0  0  0
   17.9534   17.2254   21.6786 H   0  0  0  0  0  0  0  0  0  0  0  0
   19.7979   18.2868   22.0084 C   0  0  0  0  0  0  0  0  0  0  0  0
   20.4720   17.4391   21.8923 H   0  0  0  0  0  0  0  0  0  0  0  0
   20.1875   19.3490   22.7232 C   0  0  0  0  0  0  0  0  0  0  0  0
   19.5332   20.2101   22.8540 H   0  0  0  0  0  0  0  0  0  0  0  0
   21.5332   19.4602   23.4049 C   0  0  0  0  0  0  0  0  0  0  0  0
   21.3966   19.7956   24.4419 H   0  0  0  0  0  0  0  0  0  0  0  0
   22.0228   18.4778   23.4535 H   0  0  0  0  0  0  0  0  0  0  0  0
   22.4503   20.4506   22.6613 C   0  0  0  0  0  0  0  0  0  0  0  0
   23.4246   20.5284   23.1610 H   0  0  0  0  0  0  0  0  0  0  0  0
   22.6224   20.1219   21.6279 H   0  0  0  0  0  0  0  0  0  0  0  0
   22.0018   21.4523   22.6310 H   0  0  0  0  0  0  0  0  0  0  0  0
  1  2  1  0  0  0  0
  1  3  2  0  0  0  0
  1  4  1  0  0  0  0
  4  5  1  0  0  0  0
  4  6  1  0  0  0  0
  4  7  1  0  0  0  0
  7  8  1  0  0  0  0
  7  9  2  0  0  0  0
  9 10  1  0  0  0  0
  9 11  1  0  0  0  0
 11 12  1  0  0  0  0
 11 13  1  0  0  0  0
 11 14  1  0  0  0  0
 14 15  1  0  0  0  0
 14 16  1  0  0  0  0
 14 17  1  0  0  0  0
M  END
> <VConfSearch Rank>
610

> <Conf_Id>
39

> <Delta U+W>
-0.422

> <U+W>
-49.849

> <U>
14.465

> <W>
-64.314

> <W(PB)>
-66.406

> <W(SA)>
2.093

> <Valence>
14.072

> <Coulomb>
-0.199

> <VdW>
0.592

> <VdW6>
-5.019

> <VdW12>
5.611

> <Bond>
0.085

> <Angle>
2.748

> <Pdih>
11.238

> <Idih>
0.001

> <Tether>
0.000

$$$$
VeraChem MOL file


 17 16  0  0  0  0  0  0  0  0999 V2000     
   19.2115   17.1740   24.2969 C   0  0  0  0  0  0  0  0  0  0  0  0
   18.5090   17.5938   25.1953 O   0  5  0  0  0  0  0  0  0  0  0  0
   20.1047   16.3669   24.4635 O   0  0  0  0  0  0  0  0  0  0  0  0
   18.9534   17.6845   22.8854 C   0  0  0  0  0  0  0  0  0  0  0  0
   17.8680   17.7359   22.7411 H   0  0  0  0  0  0  0  0  0  0  0  0
   19.3364   16.9409   22.1762 H   0  0  0  0  0  0  0  0  0  0  0  0
   19.5768   19.0447   22.6365 C   0  0  0  0  0  0  0  0  0  0  0  0
   19.1325   19.8689   23.1937 H   0  0  0  0  0  0  0  0  0  0  0  0
   20.6001   19.2610   21.8044 C   0  0  0  0  0  0  0  0  0  0  0  0
   21.0458   18.4359   21.2498 H   0  0  0  0  0  0  0  0  0  0  0  0
   21.2229   20.6174   21.5603 C   0  0  0  0  0  0  0  0  0  0  0  0
   20.9009   21.3324   22.3300 H   0  0  0  0  0  0  0  0  0  0  0  0
   22.3161   20.5426   21.6373 H   0  0  0  0  0  0  0  0  0  0  0  0
   20.8417   21.1597   20.1690 C   0  0  0  0  0  0  0  0  0  0  0  0
   19.7528   21.2675   20.0775 H   0  0  0  0  0  0  0  0  0  0  0  0
   21.2970   22.1437   19.9975 H   0  0  0  0  0  0  0  0  0  0  0  0
   21.1861   20.4822   19.3767 H   0  0  0  0  0  0  0  0  0  0  0  0
  1  2  1  0  0  0  0
  1  3  2  0  0  0  0
  1  4  1  0  0  0  0
  4  5  1  0  0  0  0
  4  6  1  0  0  0  0
  4  7  1  0  0  0  0
  7  8  1  0  0  0  0
  7  9  2  0  0  0  0
  9 10  1  0  0  0  0
  9 11  1  0  0  0  0
 11 12  1  0  0  0  0
 11 13  1  0  0  0  0
 11 14  1  0  0  0  0
 14 15  1  0  0  0  0
 14 16  1  0  0  0  0
 14 17  1  0  0  0  0
M  END
> <VConfSearch Rank>
611

> <Conf_Id>
38

> <Delta U+W>
0.000

> <U+W>
-49.427

> <U>
13.666

> <W>
-63.093

> <W(PB)>
-65.225

> <W(SA)>
2.132

> <Valence>
15.226

> <Coulomb>
-1.822

> <VdW>
0.261

> <VdW6>
-4.165

> <VdW12>
4.426

> <Bond>
0.044

> <Angle>
2.229

> <Pdih>
12.953

> <Idih>
0.000

> <Tether>
0.000

$$$$
VeraChem MOL file


 17 16  0  0  0  0  0  0  0  0999 V2000     
   22.9362   18.4980   20.9646 C   0  0  0  0  0  0  0  0  0  0  0  0
   23.5102   17.7936   21.7715 O   0  5  0  0  0  0  0  0  0  0  0  0
   23.4955   19.3390   20.2888 O   0  0  0  0  0  0  0  0  0  0  0  0
   21.4349   18.3148   20.7851 C   0  0  0  0  0  0  0  0  0  0  0  0
   21.1720   17.3003   21.1080 H   0  0  0  0  0  0  0  0  0  0  0  0
   21.2158   18.3768   19.7128 H   0  0  0  0  0  0  0  0  0  0  0  0
   20.6284   19.3526   21.5423 C   0  0  0  0  0  0  0  0  0  0  0  0
   20.7157   20.3725   21.1690 H   0  0  0  0  0  0  0  0  0  0  0  0
   19.8558   19.0796   22.5981 C   0  0  0  0  0  0  0  0  0  0  0  0
   19.7715   18.0600   22.9728 H   0  0  0  0  0  0  0  0  0  0  0  0
   19.0554   20.1163   23.3543 C   0  0  0  0  0  0  0  0  0  0  0  0
   19.2267   20.0022   24.4333 H   0  0  0  0  0  0  0  0  0  0  0  0
   19.3884   21.1288   23.0876 H   0  0  0  0  0  0  0  0  0  0  0  0
   17.5497   19.9795   23.0559 C   0  0  0  0  0  0  0  0  0  0  0  0
   17.1808   18.9878   23.3490 H   0  0  0  0  0  0  0  0  0  0  0  0
   16.9741   20.7338   23.6079 H   0  0  0  0  0  0  0  0  0  0  0  0
   17.3506   20.1156   21.9847 H   0  0  0  0  0  0  0  0  0  0  0  0
  1  2  1  0  0  0  0
  1  3  2  0  0  0  0
  1  4  1  0  0  0  0
  4  5  1  0  0  0  0
  4  6  1  0  0  0  0
  4  7  1  0  0  0  0
  7  8  1  0  0  0  0
  7  9  2  0  0  0  0
  9 10  1  0  0  0  0
  9 11  1  0  0  0  0
 11 12  1  0  0  0  0
 11 13  1  0  0  0  0
 11 14  1  0  0  0  0
 14 15  1  0  0  0  0
 14 16  1  0  0  0  0
 14 17  1  0  0  0  0
M  END
> <VConfSearch Rank>
612

> <Conf_Id>
35

> <Delta U+W>
-0.102

> <U+W>
-49.529

> <U>
13.666

> <W>
-63.195

> <W(PB)>
-65.299

> <W(SA)>
2.103

> <Valence>
15.226

> <Coulomb>
-1.822

> <VdW>
0.261

> <VdW6>
-4.165

> <VdW12>
4.426

> <Bond>
0.044

> <Angle>
2.229

> <Pdih>
12.953

> <Idih>
0.000

> <Tether>
0.000

$$$$
VeraChem MOL file


 17 16  0  0  0  0  0  0  0  0999 V2000     
   18.4452   20.4591   20.2807 C   0  0  0  0  0  0  0  0  0  0  0  0
   19.0284   21.3949   19.7697 O   0  5  0  0  0  0  0  0  0  0  0  0
   17.7764   19.6610   19.6542 O   0  0  0  0  0  0  0  0  0  0  0  0
   18.5520   20.2843   21.7900 C   0  0  0  0  0  0  0  0  0  0  0  0
   17.6789   19.7157   22.1319 H   0  0  0  0  0  0  0  0  0  0  0  0
   18.4862   21.2782   22.2475 H   0  0  0  0  0  0  0  0  0  0  0  0
   19.8427   19.6043   22.2058 C   0  0  0  0  0  0  0  0  0  0  0  0
   20.7420   20.1938   22.0357 H   0  0  0  0  0  0  0  0  0  0  0  0
   19.9030   18.3765   22.7364 C   0  0  0  0  0  0  0  0  0  0  0  0
   18.9819   17.8146   22.8877 H   0  0  0  0  0  0  0  0  0  0  0  0
   21.1567   17.6359   23.1704 C   0  0  0  0  0  0  0  0  0  0  0  0
   21.0638   17.3687   24.2318 H   0  0  0  0  0  0  0  0  0  0  0  0
   21.2119   16.6814   22.6296 H   0  0  0  0  0  0  0  0  0  0  0  0
   22.4769   18.4098   22.9602 C   0  0  0  0  0  0  0  0  0  0  0  0
   22.4794   19.3473   23.5315 H   0  0  0  0  0  0  0  0  0  0  0  0
   23.3325   17.8095   23.2959 H   0  0  0  0  0  0  0  0  0  0  0  0
   22.6291   18.6480   21.8992 H   0  0  0  0  0  0  0  0  0  0  0  0
  1  2  1  0  0  0  0
  1  3  2  0  0  0  0
  1  4  1  0  0  0  0
  4  5  1  0  0  0  0
  4  6  1  0  0  0  0
  4  7  1  0  0  0  0
  7  8  1  0  0  0  0
  7  9  2  0  0  0  0
  9 10  1  0  0  0  0
  9 11  1  0  0  0  0
 11 12  1  0  0  0  0
 11 13  1  0  0  0  0
 11 14  1  0  0  0  0
 14 15  1  0  0  0  0
 14 16  1  0  0  0  0
 14 17  1  0  0  0  0
M  END
> <VConfSearch Rank>
613

> <Conf_Id>
19

> <Delta U+W>
-0.496

> <U+W>
-49.923

> <U>
13.863

> <W>
-63.786

> <W(PB)>
-65.856

> <W(SA)>
2.070

> <Valence>
14.117

> <Coulomb>
-1.228

> <VdW>
0.974

> <VdW6>
-4.885

> <VdW12>
5.859

> <Bond>
0.094

> <Angle>
2.818

> <Pdih>
11.205

> <Idih>
0.000

> <Tether>
0.000

$$$$
VeraChem MOL file


 17 16  0  0  0  0  0  0  0  0999 V2000     
   20.7210   20.2640   19.5920 C   0  0  0  0  0  0  0  0  0  0  0  0
   20.7591   19.2908   18.8652 O   0  5  0  0  0  0  0  0  0  0  0  0
   20.1152   21.2820   19.3208 O   0  0  0  0  0  0  0  0  0  0  0  0
   21.4821   20.2113   20.9103 C   0  0  0  0  0  0  0  0  0  0  0  0
   21.9790   21.1785   21.0487 H   0  0  0  0  0  0  0  0  0  0  0  0
   22.2712   19.4550   20.8210 H   0  0  0  0  0  0  0  0  0  0  0  0
   20.5776   19.9166   22.0917 C   0  0  0  0  0  0  0  0  0  0  0  0
   19.8643   20.7023   22.3387 H   0  0  0  0  0  0  0  0  0  0  0  0
   20.6137   18.7846   22.8014 C   0  0  0  0  0  0  0  0  0  0  0  0
   21.3237   17.9971   22.5507 H   0  0  0  0  0  0  0  0  0  0  0  0
   19.7090   18.4915   23.9773 C   0  0  0  0  0  0  0  0  0  0  0  0
   20.3060   18.1206   24.8214 H   0  0  0  0  0  0  0  0  0  0  0  0
   19.2146   19.4107   24.3205 H   0  0  0  0  0  0  0  0  0  0  0  0
   18.6396   17.4459   23.6055 C   0  0  0  0  0  0  0  0  0  0  0  0
   19.1062   16.5018   23.2951 H   0  0  0  0  0  0  0  0  0  0  0  0
   17.9856   17.2373   24.4622 H   0  0  0  0  0  0  0  0  0  0  0  0
   18.0136   17.8060   22.7784 H   0  0  0  0  0  0  0  0  0  0  0  0
  1  2  1  0  0  0  0
  1  3  2  0  0  0  0
  1  4  1  0  0  0  0
  4  5  1  0  0  0  0
  4  6  1  0  0  0  0
  4  7  1  0  0  0  0
  7  8  1  0  0  0  0
  7  9  2  0  0  0  0
  9 10  1  0  0  0  0
  9 11  1  0  0  0  0
 11 12  1  0  0  0  0
 11 13  1  0  0  0  0
 11 14  1  0  0  0  0
 14 15  1  0  0  0  0
 14 16  1  0  0  0  0
 14 17  1  0  0  0  0
M  END
> <VConfSearch Rank>
614

> <Conf_Id>
7

> <Delta U+W>
-0.041

> <U+W>
-49.468

> <U>
14.121

> <W>
-63.589

> <W(PB)>
-65.660

> <W(SA)>
2.071

> <Valence>
15.230

> <Coulomb>
-1.333

> <VdW>
0.224

> <VdW6>
-4.212

> <VdW12>
4.436

> <Bond>
0.044

> <Angle>
2.230

> <Pdih>
12.956

> <Idih>
0.000

> <Tether>
0.000

$$$$
VeraChem MOL file


 17 16  0  0  0  0  0  0  0  0999 V2000     
   20.8789   21.8511   21.6196 C   0  0  0  0  0  0  0  0  0  0  0  0
   21.4182   22.1998   22.6513 O   0  5  0  0  0  0  0  0  0  0  0  0
   19.9775   22.4713   21.0904 O   0  0  0  0  0  0  0  0  0  0  0  0
   21.3787   20.5814   20.9372 C   0  0  0  0  0  0  0  0  0  0  0  0
   22.4517   20.4896   21.1420 H   0  0  0  0  0  0  0  0  0  0  0  0
   21.2898   20.7253   19.8540 H   0  0  0  0  0  0  0  0  0  0  0  0
   20.6705   19.2960   21.3410 C   0  0  0  0  0  0  0  0  0  0  0  0
   21.0426   18.4021   20.8421 H   0  0  0  0  0  0  0  0  0  0  0  0
   19.6716   19.1928   22.2257 C   0  0  0  0  0  0  0  0  0  0  0  0
   19.2816   20.0708   22.7392 H   0  0  0  0  0  0  0  0  0  0  0  0
   18.9994   17.8880   22.5914 C   0  0  0  0  0  0  0  0  0  0  0  0
   17.9084   18.0103   22.5544 H   0  0  0  0  0  0  0  0  0  0  0  0
   19.2537   17.1062   21.8626 H   0  0  0  0  0  0  0  0  0  0  0  0
   19.4170   17.4262   24.0012 C   0  0  0  0  0  0  0  0  0  0  0  0
   18.9253   16.4800   24.2618 H   0  0  0  0  0  0  0  0  0  0  0  0
   20.5028   17.2724   24.0552 H   0  0  0  0  0  0  0  0  0  0  0  0
   19.1398   18.1737   24.7561 H   0  0  0  0  0  0  0  0  0  0  0  0
  1  2  1  0  0  0  0
  1  3  2  0  0  0  0
  1  4  1  0  0  0  0
  4  5  1  0  0  0  0
  4  6  1  0  0  0  0
  4  7  1  0  0  0  0
  7  8  1  0  0  0  0
  7  9  2  0  0  0  0
  9 10  1  0  0  0  0
  9 11  1  0  0  0  0
 11 12  1  0  0  0  0
 11 13  1  0  0  0  0
 11 14  1  0  0  0  0
 14 15  1  0  0  0  0
 14 16  1  0  0  0  0
 14 17  1  0  0  0  0
M  END
> <VConfSearch Rank>
615

> <Conf_Id>
39

> <Delta U+W>
-0.422

> <U+W>
-49.849

> <U>
14.465

> <W>
-64.314

> <W(PB)>
-66.406

> <W(SA)>
2.093

> <Valence>
14.072

> <Coulomb>
-0.199

> <VdW>
0.592

> <VdW6>
-5.019

> <VdW12>
5.611

> <Bond>
0.085

> <Angle>
2.748

> <Pdih>
11.238

> <Idih>
0.001

> <Tether>
0.000

$$$$
VeraChem MOL file


 17 16  0  0  0  0  0  0  0  0999 V2000     
   17.5868   21.0898   22.7025 C   0  0  0  0  0  0  0  0  0  0  0  0
   17.3451   21.9656   21.8954 O   0  5  0  0  0  0  0  0  0  0  0  0
   17.4767   21.2343   23.9041 O   0  0  0  0  0  0  0  0  0  0  0  0
   18.0475   19.7365   22.1772 C   0  0  0  0  0  0  0  0  0  0  0  0
   17.4494   19.5006   21.2894 H   0  0  0  0  0  0  0  0  0  0  0  0
   17.8132   18.9772   22.9329 H   0  0  0  0  0  0  0  0  0  0  0  0
   19.5239   19.7203   21.8297 C   0  0  0  0  0  0  0  0  0  0  0  0
   19.8074   20.3340   20.9753 H   0  0  0  0  0  0  0  0  0  0  0  0
   20.4452   19.0200   22.4983 C   0  0  0  0  0  0  0  0  0  0  0  0
   20.1616   18.4088   23.3545 H   0  0  0  0  0  0  0  0  0  0  0  0
   21.9176   19.0080   22.1528 C   0  0  0  0  0  0  0  0  0  0  0  0
   22.1572   19.8290   21.4631 H   0  0  0  0  0  0  0  0  0  0  0  0
   22.5128   19.1751   23.0607 H   0  0  0  0  0  0  0  0  0  0  0  0
   22.3249   17.6674   21.5110 C   0  0  0  0  0  0  0  0  0  0  0  0
   21.7603   17.4904   20.5861 H   0  0  0  0  0  0  0  0  0  0  0  0
   23.3943   17.6644   21.2631 H   0  0  0  0  0  0  0  0  0  0  0  0
   22.1316   16.8308   22.1952 H   0  0  0  0  0  0  0  0  0  0  0  0
  1  2  1  0  0  0  0
  1  3  2  0  0  0  0
  1  4  1  0  0  0  0
  4  5  1  0  0  0  0
  4  6  1  0  0  0  0
  4  7  1  0  0  0  0
  7  8  1  0  0  0  0
  7  9  2  0  0  0  0
  9 10  1  0  0  0  0
  9 11  1  0  0  0  0
 11 12  1  0  0  0  0
 11 13  1  0  0  0  0
 11 14  1  0  0  0  0
 14 15  1  0  0  0  0
 14 16  1  0  0  0  0
 14 17  1  0  0  0  0
M  END
> <VConfSearch Rank>
616

> <Conf_Id>
38

> <Delta U+W>
0.000

> <U+W>
-49.427

> <U>
13.666

> <W>
-63.093

> <W(PB)>
-65.225

> <W(SA)>
2.132

> <Valence>
15.226

> <Coulomb>
-1.822

> <VdW>
0.261

> <VdW6>
-4.165

> <VdW12>
4.426

> <Bond>
0.044

> <Angle>
2.229

> <Pdih>
12.953

> <Idih>
0.000

> <Tether>
0.000

$$$$
VeraChem MOL file


 17 16  0  0  0  0  0  0  0  0999 V2000     
   21.4574   20.7746   24.5268 C   0  0  0  0  0  0  0  0  0  0  0  0
   22.1619   21.6649   24.0934 O   0  5  0  0  0  0  0  0  0  0  0  0
   21.7488   20.0970   25.4927 O   0  0  0  0  0  0  0  0  0  0  0  0
   20.1344   20.4946   23.8262 C   0  0  0  0  0  0  0  0  0  0  0  0
   19.8285   21.4037   23.2947 H   0  0  0  0  0  0  0  0  0  0  0  0
   19.3799   20.3055   24.5985 H   0  0  0  0  0  0  0  0  0  0  0  0
   20.2175   19.3129   22.8789 C   0  0  0  0  0  0  0  0  0  0  0  0
   20.3597   18.3436   23.3558 H   0  0  0  0  0  0  0  0  0  0  0  0
   20.1303   19.4091   21.5487 C   0  0  0  0  0  0  0  0  0  0  0  0
   19.9914   20.3790   21.0723 H   0  0  0  0  0  0  0  0  0  0  0  0
   20.2174   18.2301   20.6054 C   0  0  0  0  0  0  0  0  0  0  0  0
   20.9239   18.4551   19.7950 H   0  0  0  0  0  0  0  0  0  0  0  0
   20.6090   17.3470   21.1289 H   0  0  0  0  0  0  0  0  0  0  0  0
   18.8372   17.8973   20.0060 C   0  0  0  0  0  0  0  0  0  0  0  0
   18.4381   18.7515   19.4434 H   0  0  0  0  0  0  0  0  0  0  0  0
   18.9068   17.0416   19.3219 H   0  0  0  0  0  0  0  0  0  0  0  0
   18.1194   17.6435   20.7972 H   0  0  0  0  0  0  0  0  0  0  0  0
  1  2  1  0  0  0  0
  1  3  2  0  0  0  0
  1  4  1  0  0  0  0
  4  5  1  0  0  0  0
  4  6  1  0  0  0  0
  4  7  1  0  0  0  0
  7  8  1  0  0  0  0
  7  9  2  0  0  0  0
  9 10  1  0  0  0  0
  9 11  1  0  0  0  0
 11 12  1  0  0  0  0
 11 13  1  0  0  0  0
 11 14  1  0  0  0  0
 14 15  1  0  0  0  0
 14 16  1  0  0  0  0
 14 17  1  0  0  0  0
M  END
> <VConfSearch Rank>
617

> <Conf_Id>
35

> <Delta U+W>
-0.102

> <U+W>
-49.529

> <U>
13.666

> <W>
-63.195

> <W(PB)>
-65.299

> <W(SA)>
2.103

> <Valence>
15.226

> <Coulomb>
-1.822

> <VdW>
0.261

> <VdW6>
-4.165

> <VdW12>
4.426

> <Bond>
0.044

> <Angle>
2.229

> <Pdih>
12.953

> <Idih>
0.000

> <Tether>
0.000

$$$$
VeraChem MOL file


 17 16  0  0  0  0  0  0  0  0999 V2000     
   22.3496   20.9761   21.3916 C   0  0  0  0  0  0  0  0  0  0  0  0
   22.9594   20.5240   20.4425 O   0  5  0  0  0  0  0  0  0  0  0  0
   21.9730   22.1295   21.4607 O   0  0  0  0  0  0  0  0  0  0  0  0
   22.0503   20.0475   22.5611 C   0  0  0  0  0  0  0  0  0  0  0  0
   21.9081   20.6612   23.4587 H   0  0  0  0  0  0  0  0  0  0  0  0
   22.9388   19.4291   22.7333 H   0  0  0  0  0  0  0  0  0  0  0  0
   20.8430   19.1647   22.3072 C   0  0  0  0  0  0  0  0  0  0  0  0
   20.9813   18.4197   21.5255 H   0  0  0  0  0  0  0  0  0  0  0  0
   19.6852   19.2733   22.9709 C   0  0  0  0  0  0  0  0  0  0  0  0
   19.5825   20.0342   23.7439 H   0  0  0  0  0  0  0  0  0  0  0  0
   18.4391   18.4285   22.7663 C   0  0  0  0  0  0  0  0  0  0  0  0
   18.1743   17.9472   23.7175 H   0  0  0  0  0  0  0  0  0  0  0  0
   17.5958   19.0898   22.5254 H   0  0  0  0  0  0  0  0  0  0  0  0
   18.5577   17.3461   21.6707 C   0  0  0  0  0  0  0  0  0  0  0  0
   19.3584   16.6328   21.9066 H   0  0  0  0  0  0  0  0  0  0  0  0
   17.6200   16.7820   21.5838 H   0  0  0  0  0  0  0  0  0  0  0  0
   18.7704   17.7973   20.6926 H   0  0  0  0  0  0  0  0  0  0  0  0
  1  2  1  0  0  0  0
  1  3  2  0  0  0  0
  1  4  1  0  0  0  0
  4  5  1  0  0  0  0
  4  6  1  0  0  0  0
  4  7  1  0  0  0  0
  7  8  1  0  0  0  0
  7  9  2  0  0  0  0
  9 10  1  0  0  0  0
  9 11  1  0  0  0  0
 11 12  1  0  0  0  0
 11 13  1  0  0  0  0
 11 14  1  0  0  0  0
 14 15  1  0  0  0  0
 14 16  1  0  0  0  0
 14 17  1  0  0  0  0
M  END
> <VConfSearch Rank>
618

> <Conf_Id>
19

> <Delta U+W>
-0.496

> <U+W>
-49.923

> <U>
13.863

> <W>
-63.786

> <W(PB)>
-65.856

> <W(SA)>
2.070

> <Valence>
14.117

> <Coulomb>
-1.228

> <VdW>
0.974

> <VdW6>
-4.885

> <VdW12>
5.859

> <Bond>
0.094

> <Angle>
2.818

> <Pdih>
11.205

> <Idih>
0.000

> <Tether>
0.000

$$$$
VeraChem MOL file


 17 16  0  0  0  0  0  0  0  0999 V2000     
   21.6014   18.3675   19.7522 C   0  0  0  0  0  0  0  0  0  0  0  0
   22.1702   19.4072   19.4832 O   0  5  0  0  0  0  0  0  0  0  0  0
   22.1438   17.2801   19.7320 O   0  0  0  0  0  0  0  0  0  0  0  0
   20.1258   18.4268   20.1248 C   0  0  0  0  0  0  0  0  0  0  0  0
   19.6213   17.5903   19.6277 H   0  0  0  0  0  0  0  0  0  0  0  0
   19.7035   19.3494   19.7086 H   0  0  0  0  0  0  0  0  0  0  0  0
   19.9017   18.3540   21.6232 C   0  0  0  0  0  0  0  0  0  0  0  0
   20.1555   17.4005   22.0856 H   0  0  0  0  0  0  0  0  0  0  0  0
   19.4361   19.3649   22.3632 C   0  0  0  0  0  0  0  0  0  0  0  0
   19.1875   20.3197   21.9011 H   0  0  0  0  0  0  0  0  0  0  0  0
   19.2162   19.2911   23.8577 C   0  0  0  0  0  0  0  0  0  0  0  0
   18.2192   19.6797   24.1056 H   0  0  0  0  0  0  0  0  0  0  0  0
   19.2417   18.2470   24.1989 H   0  0  0  0  0  0  0  0  0  0  0  0
   20.2863   20.1011   24.6151 C   0  0  0  0  0  0  0  0  0  0  0  0
   20.2577   21.1587   24.3215 H   0  0  0  0  0  0  0  0  0  0  0  0
   20.1223   20.0438   25.6990 H   0  0  0  0  0  0  0  0  0  0  0  0
   21.2915   19.7142   24.4015 H   0  0  0  0  0  0  0  0  0  0  0  0
  1  2  1  0  0  0  0
  1  3  2  0  0  0  0
  1  4  1  0  0  0  0
  4  5  1  0  0  0  0
  4  6  1  0  0  0  0
  4  7  1  0  0  0  0
  7  8  1  0  0  0  0
  7  9  2  0  0  0  0
  9 10  1  0  0  0  0
  9 11  1  0  0  0  0
 11 12  1  0  0  0  0
 11 13  1  0  0  0  0
 11 14  1  0  0  0  0
 14 15  1  0  0  0  0
 14 16  1  0  0  0  0
 14 17  1  0  0  0  0
M  END
> <VConfSearch Rank>
619

> <Conf_Id>
7

> <Delta U+W>
-0.041

> <U+W>
-49.468

> <U>
14.121

> <W>
-63.589

> <W(PB)>
-65.660

> <W(SA)>
2.071

> <Valence>
15.230

> <Coulomb>
-1.333

> <VdW>
0.224

> <VdW6>
-4.212

> <VdW12>
4.436

> <Bond>
0.044

> <Angle>
2.230

> <Pdih>
12.956

> <Idih>
0.000

> <Tether>
0.000

$$$$
VeraChem MOL file


 17 16  0  0  0  0  0  0  0  0999 V2000     
   17.5308   18.5653   21.6570 C   0  0  0  0  0  0  0  0  0  0  0  0
   17.4237   19.0240   20.5367 O   0  5  0  0  0  0  0  0  0  0  0  0
   16.7619   18.8202   22.5631 O   0  0  0  0  0  0  0  0  0  0  0  0
   18.6756   17.5955   21.9336 C   0  0  0  0  0  0  0  0  0  0  0  0
   18.8762   17.0398   21.0102 H   0  0  0  0  0  0  0  0  0  0  0  0
   18.3204   16.8552   22.6599 H   0  0  0  0  0  0  0  0  0  0  0  0
   19.9648   18.2279   22.4386 C   0  0  0  0  0  0  0  0  0  0  0  0
   20.7687   17.5181   22.6297 H   0  0  0  0  0  0  0  0  0  0  0  0
   20.1700   19.5330   22.6517 C   0  0  0  0  0  0  0  0  0  0  0  0
   19.3833   20.2638   22.4677 H   0  0  0  0  0  0  0  0  0  0  0  0
   21.4732   20.1113   23.1570 C   0  0  0  0  0  0  0  0  0  0  0  0
   21.2739   20.8079   23.9826 H   0  0  0  0  0  0  0  0  0  0  0  0
   22.1152   19.3174   23.5627 H   0  0  0  0  0  0  0  0  0  0  0  0
   22.2244   20.8495   22.0320 C   0  0  0  0  0  0  0  0  0  0  0  0
   23.1683   21.2681   22.4045 H   0  0  0  0  0  0  0  0  0  0  0  0
   22.4575   20.1657   21.2051 H   0  0  0  0  0  0  0  0  0  0  0  0
   21.6195   21.6744   21.6331 H   0  0  0  0  0  0  0  0  0  0  0  0
  1  2  1  0  0  0  0
  1  3  2  0  0  0  0
  1  4  1  0  0  0  0
  4  5  1  0  0  0  0
  4  6  1  0  0  0  0
  4  7  1  0  0  0  0
  7  8  1  0  0  0  0
  7  9  2  0  0  0  0
  9 10  1  0  0  0  0
  9 11  1  0  0  0  0
 11 12  1  0  0  0  0
 11 13  1  0  0  0  0
 11 14  1  0  0  0  0
 14 15  1  0  0  0  0
 14 16  1  0  0  0  0
 14 17  1  0  0  0  0
M  END
> <VConfSearch Rank>
620

> <Conf_Id>
39

> <Delta U+W>
-0.422

> <U+W>
-49.849

> <U>
14.465

> <W>
-64.314

> <W(PB)>
-66.406

> <W(SA)>
2.093

> <Valence>
14.072

> <Coulomb>
-0.199

> <VdW>
0.592

> <VdW6>
-5.019

> <VdW12>
5.611

> <Bond>
0.085

> <Angle>
2.748

> <Pdih>
11.238

> <Idih>
0.001

> <Tether>
0.000

$$$$
VeraChem MOL file


 17 16  0  0  0  0  0  0  0  0999 V2000     
   19.2430   16.7115   23.7491 C   0  0  0  0  0  0  0  0  0  0  0  0
   18.0696   16.4002   23.6908 O   0  5  0  0  0  0  0  0  0  0  0  0
   19.9050   16.6493   24.7663 O   0  0  0  0  0  0  0  0  0  0  0  0
   19.9200   17.2008   22.4756 C   0  0  0  0  0  0  0  0  0  0  0  0
   19.5697   16.5734   21.6478 H   0  0  0  0  0  0  0  0  0  0  0  0
   20.9988   17.0301   22.5732 H   0  0  0  0  0  0  0  0  0  0  0  0
   19.6246   18.6598   22.1845 C   0  0  0  0  0  0  0  0  0  0  0  0
   18.5916   18.8808   21.9174 H   0  0  0  0  0  0  0  0  0  0  0  0
   20.5350   19.6365   22.2422 C   0  0  0  0  0  0  0  0  0  0  0  0
   21.5671   19.4152   22.5122 H   0  0  0  0  0  0  0  0  0  0  0  0
   20.2378   21.0914   21.9552 C   0  0  0  0  0  0  0  0  0  0  0  0
   19.1534   21.2679   21.9478 H   0  0  0  0  0  0  0  0  0  0  0  0
   20.6539   21.7194   22.7546 H   0  0  0  0  0  0  0  0  0  0  0  0
   20.8339   21.5218   20.6008 C   0  0  0  0  0  0  0  0  0  0  0  0
   20.4127   20.9239   19.7818 H   0  0  0  0  0  0  0  0  0  0  0  0
   20.6156   22.5784   20.3984 H   0  0  0  0  0  0  0  0  0  0  0  0
   21.9241   21.3918   20.5936 H   0  0  0  0  0  0  0  0  0  0  0  0
  1  2  1  0  0  0  0
  1  3  2  0  0  0  0
  1  4  1  0  0  0  0
  4  5  1  0  0  0  0
  4  6  1  0  0  0  0
  4  7  1  0  0  0  0
  7  8  1  0  0  0  0
  7  9  2  0  0  0  0
  9 10  1  0  0  0  0
  9 11  1  0  0  0  0
 11 12  1  0  0  0  0
 11 13  1  0  0  0  0
 11 14  1  0  0  0  0
 14 15  1  0  0  0  0
 14 16  1  0  0  0  0
 14 17  1  0  0  0  0
M  END
> <VConfSearch Rank>
621

> <Conf_Id>
38

> <Delta U+W>
0.000

> <U+W>
-49.427

> <U>
13.666

> <W>
-63.093

> <W(PB)>
-65.225

> <W(SA)>
2.132

> <Valence>
15.226

> <Coulomb>
-1.822

> <VdW>
0.261

> <VdW6>
-4.165

> <VdW12>
4.426

> <Bond>
0.044

> <Angle>
2.229

> <Pdih>
12.953

> <Idih>
0.000

> <Tether>
0.000

$$$$
VeraChem MOL file


 17 16  0  0  0  0  0  0  0  0999 V2000     
   20.1245   16.8212   24.1125 C   0  0  0  0  0  0  0  0  0  0  0  0
   20.5483   15.8396   23.5349 O   0  5  0  0  0  0  0  0  0  0  0  0
   19.2336   16.7826   24.9382 O   0  0  0  0  0  0  0  0  0  0  0  0
   20.7459   18.1737   23.7896 C   0  0  0  0  0  0  0  0  0  0  0  0
   21.7541   18.0023   23.3935 H   0  0  0  0  0  0  0  0  0  0  0  0
   20.8605   18.7231   24.7311 H   0  0  0  0  0  0  0  0  0  0  0  0
   19.9087   18.9798   22.8148 C   0  0  0  0  0  0  0  0  0  0  0  0
   18.9507   19.3267   23.2009 H   0  0  0  0  0  0  0  0  0  0  0  0
   20.2798   19.2647   21.5629 C   0  0  0  0  0  0  0  0  0  0  0  0
   21.2365   18.9148   21.1765 H   0  0  0  0  0  0  0  0  0  0  0  0
   19.4419   20.0653   20.5911 C   0  0  0  0  0  0  0  0  0  0  0  0
   19.3900   19.5411   19.6272 H   0  0  0  0  0  0  0  0  0  0  0  0
   18.4099   20.1555   20.9570 H   0  0  0  0  0  0  0  0  0  0  0  0
   20.0328   21.4728   20.3792 C   0  0  0  0  0  0  0  0  0  0  0  0
   21.0525   21.4130   19.9768 H   0  0  0  0  0  0  0  0  0  0  0  0
   19.4210   22.0486   19.6727 H   0  0  0  0  0  0  0  0  0  0  0  0
   20.0708   22.0263   21.3267 H   0  0  0  0  0  0  0  0  0  0  0  0
  1  2  1  0  0  0  0
  1  3  2  0  0  0  0
  1  4  1  0  0  0  0
  4  5  1  0  0  0  0
  4  6  1  0  0  0  0
  4  7  1  0  0  0  0
  7  8  1  0  0  0  0
  7  9  2  0  0  0  0
  9 10  1  0  0  0  0
  9 11  1  0  0  0  0
 11 12  1  0  0  0  0
 11 13  1  0  0  0  0
 11 14  1  0  0  0  0
 14 15  1  0  0  0  0
 14 16  1  0  0  0  0
 14 17  1  0  0  0  0
M  END
> <VConfSearch Rank>
622

> <Conf_Id>
35

> <Delta U+W>
-0.102

> <U+W>
-49.529

> <U>
13.666

> <W>
-63.195

> <W(PB)>
-65.299

> <W(SA)>
2.103

> <Valence>
15.226

> <Coulomb>
-1.822

> <VdW>
0.261

> <VdW6>
-4.165

> <VdW12>
4.426

> <Bond>
0.044

> <Angle>
2.229

> <Pdih>
12.953

> <Idih>
0.000

> <Tether>
0.000

$$$$
VeraChem MOL file


 17 16  0  0  0  0  0  0  0  0999 V2000     
   17.7390   19.3991   23.7677 C   0  0  0  0  0  0  0  0  0  0  0  0
   16.7761   19.3447   23.0283 O   0  5  0  0  0  0  0  0  0  0  0  0
   17.8076   18.8065   24.8265 O   0  0  0  0  0  0  0  0  0  0  0  0
   18.9192   20.2652   23.3472 C   0  0  0  0  0  0  0  0  0  0  0  0
   19.4732   20.5514   24.2493 H   0  0  0  0  0  0  0  0  0  0  0  0
   18.5187   21.1876   22.9110 H   0  0  0  0  0  0  0  0  0  0  0  0
   19.8245   19.5679   22.3494 C   0  0  0  0  0  0  0  0  0  0  0  0
   19.3772   19.3980   21.3716 H   0  0  0  0  0  0  0  0  0  0  0  0
   21.0753   19.1759   22.6224 C   0  0  0  0  0  0  0  0  0  0  0  0
   21.4877   19.3591   23.6141 H   0  0  0  0  0  0  0  0  0  0  0  0
   22.0328   18.4718   21.6758 C   0  0  0  0  0  0  0  0  0  0  0  0
   22.9487   19.0711   21.5838 H   0  0  0  0  0  0  0  0  0  0  0  0
   22.3463   17.5212   22.1281 H   0  0  0  0  0  0  0  0  0  0  0  0
   21.4689   18.1951   20.2646 C   0  0  0  0  0  0  0  0  0  0  0  0
   21.1944   19.1305   19.7596 H   0  0  0  0  0  0  0  0  0  0  0  0
   22.2174   17.6854   19.6442 H   0  0  0  0  0  0  0  0  0  0  0  0
   20.5799   17.5526   20.3147 H   0  0  0  0  0  0  0  0  0  0  0  0
  1  2  1  0  0  0  0
  1  3  2  0  0  0  0
  1  4  1  0  0  0  0
  4  5  1  0  0  0  0
  4  6  1  0  0  0  0
  4  7  1  0  0  0  0
  7  8  1  0  0  0  0
  7  9  2  0  0  0  0
  9 10  1  0  0  0  0
  9 11  1  0  0  0  0
 11 12  1  0  0  0  0
 11 13  1  0  0  0  0
 11 14  1  0  0  0  0
 14 15  1  0  0  0  0
 14 16  1  0  0  0  0
 14 17  1  0  0  0  0
M  END
> <VConfSearch Rank>
623

> <Conf_Id>
19

> <Delta U+W>
-0.496

> <U+W>
-49.923

> <U>
13.863

> <W>
-63.786

> <W(PB)>
-65.856

> <W(SA)>
2.070

> <Valence>
14.117

> <Coulomb>
-1.228

> <VdW>
0.974

> <VdW6>
-4.885

> <VdW12>
5.859

> <Bond>
0.094

> <Angle>
2.818

> <Pdih>
11.205

> <Idih>
0.000

> <Tether>
0.000

$$$$
VeraChem MOL file


 17 16  0  0  0  0  0  0  0  0999 V2000     
   18.0603   19.3502   20.1774 C   0  0  0  0  0  0  0  0  0  0  0  0
   18.7067   19.4841   19.1571 O   0  5  0  0  0  0  0  0  0  0  0  0
   17.1057   18.6044   20.2751 O   0  0  0  0  0  0  0  0  0  0  0  0
   18.4598   20.1684   21.3984 C   0  0  0  0  0  0  0  0  0  0  0  0
   17.5414   20.5393   21.8678 H   0  0  0  0  0  0  0  0  0  0  0  0
   19.0215   21.0454   21.0550 H   0  0  0  0  0  0  0  0  0  0  0  0
   19.2673   19.3630   22.3984 C   0  0  0  0  0  0  0  0  0  0  0  0
   18.7224   18.5640   22.9003 H   0  0  0  0  0  0  0  0  0  0  0  0
   20.5582   19.5786   22.6691 C   0  0  0  0  0  0  0  0  0  0  0  0
   21.1040   20.3744   22.1632 H   0  0  0  0  0  0  0  0  0  0  0  0
   21.3624   18.7725   23.6645 C   0  0  0  0  0  0  0  0  0  0  0  0
   21.9159   19.4494   24.3293 H   0  0  0  0  0  0  0  0  0  0  0  0
   20.6965   18.1770   24.3042 H   0  0  0  0  0  0  0  0  0  0  0  0
   22.3521   17.8347   22.9462 C   0  0  0  0  0  0  0  0  0  0  0  0
   23.0562   18.4074   22.3285 H   0  0  0  0  0  0  0  0  0  0  0  0
   22.9326   17.2519   23.6731 H   0  0  0  0  0  0  0  0  0  0  0  0
   21.8185   17.1312   22.2934 H   0  0  0  0  0  0  0  0  0  0  0  0
  1  2  1  0  0  0  0
  1  3  2  0  0  0  0
  1  4  1  0  0  0  0
  4  5  1  0  0  0  0
  4  6  1  0  0  0  0
  4  7  1  0  0  0  0
  7  8  1  0  0  0  0
  7  9  2  0  0  0  0
  9 10  1  0  0  0  0
  9 11  1  0  0  0  0
 11 12  1  0  0  0  0
 11 13  1  0  0  0  0
 11 14  1  0  0  0  0
 14 15  1  0  0  0  0
 14 16  1  0  0  0  0
 14 17  1  0  0  0  0
M  END
> <VConfSearch Rank>
624

> <Conf_Id>
7

> <Delta U+W>
-0.041

> <U+W>
-49.468

> <U>
14.121

> <W>
-63.589

> <W(PB)>
-65.660

> <W(SA)>
2.071

> <Valence>
15.230

> <Coulomb>
-1.333

> <VdW>
0.224

> <VdW6>
-4.212

> <VdW12>
4.436

> <Bond>
0.044

> <Angle>
2.230

> <Pdih>
12.956

> <Idih>
0.000

> <Tether>
0.000

$$$$
VeraChem MOL file


 17 16  0  0  0  0  0  0  0  0999 V2000     
   21.2912   17.5187   24.0555 C   0  0  0  0  0  0  0  0  0  0  0  0
   21.2670   18.1799   25.0749 O   0  5  0  0  0  0  0  0  0  0  0  0
   22.3006   17.0099   23.6091 O   0  0  0  0  0  0  0  0  0  0  0  0
   19.9790   17.2918   23.3109 C   0  0  0  0  0  0  0  0  0  0  0  0
   19.1718   17.2659   24.0523 H   0  0  0  0  0  0  0  0  0  0  0  0
   20.0135   16.2898   22.8677 H   0  0  0  0  0  0  0  0  0  0  0  0
   19.6494   18.3152   22.2335 C   0  0  0  0  0  0  0  0  0  0  0  0
   18.7089   18.1345   21.7146 H   0  0  0  0  0  0  0  0  0  0  0  0
   20.3981   19.3723   21.8972 C   0  0  0  0  0  0  0  0  0  0  0  0
   21.3422   19.5764   22.4009 H   0  0  0  0  0  0  0  0  0  0  0  0
   20.0249   20.3611   20.8151 C   0  0  0  0  0  0  0  0  0  0  0  0
   20.8857   20.5289   20.1538 H   0  0  0  0  0  0  0  0  0  0  0  0
   19.2187   19.9583   20.1866 H   0  0  0  0  0  0  0  0  0  0  0  0
   19.5749   21.7037   21.4233 C   0  0  0  0  0  0  0  0  0  0  0  0
   19.3067   22.4177   20.6337 H   0  0  0  0  0  0  0  0  0  0  0  0
   18.6980   21.5645   22.0693 H   0  0  0  0  0  0  0  0  0  0  0  0
   20.3770   22.1484   22.0269 H   0  0  0  0  0  0  0  0  0  0  0  0
  1  2  1  0  0  0  0
  1  3  2  0  0  0  0
  1  4  1  0  0  0  0
  4  5  1  0  0  0  0
  4  6  1  0  0  0  0
  4  7  1  0  0  0  0
  7  8  1  0  0  0  0
  7  9  2  0  0  0  0
  9 10  1  0  0  0  0
  9 11  1  0  0  0  0
 11 12  1  0  0  0  0
 11 13  1  0  0  0  0
 11 14  1  0  0  0  0
 14 15  1  0  0  0  0
 14 16  1  0  0  0  0
 14 17  1  0  0  0  0
M  END
> <VConfSearch Rank>
625

> <Conf_Id>
39

> <Delta U+W>
-0.422

> <U+W>
-49.849

> <U>
14.465

> <W>
-64.314

> <W(PB)>
-66.406

> <W(SA)>
2.093

> <Valence>
14.072

> <Coulomb>
-0.199

> <VdW>
0.592

> <VdW6>
-5.019

> <VdW12>
5.611

> <Bond>
0.085

> <Angle>
2.748

> <Pdih>
11.238

> <Idih>
0.001

> <Tether>
0.000

$$$$
VeraChem MOL file


 17 16  0  0  0  0  0  0  0  0999 V2000     
   18.1425   16.8044   22.3336 C   0  0  0  0  0  0  0  0  0  0  0  0
   18.6176   15.7694   22.7579 O   0  5  0  0  0  0  0  0  0  0  0  0
   17.3385   16.8512   21.4235 O   0  0  0  0  0  0  0  0  0  0  0  0
   18.5757   18.1123   22.9826 C   0  0  0  0  0  0  0  0  0  0  0  0
   18.6281   17.9479   24.0651 H   0  0  0  0  0  0  0  0  0  0  0  0
   17.7905   18.8580   22.8091 H   0  0  0  0  0  0  0  0  0  0  0  0
   19.9146   18.6022   22.4648 C   0  0  0  0  0  0  0  0  0  0  0  0
   20.7723   17.9894   22.7406 H   0  0  0  0  0  0  0  0  0  0  0  0
   20.0757   19.6995   21.7190 C   0  0  0  0  0  0  0  0  0  0  0  0
   19.2172   20.3102   21.4411 H   0  0  0  0  0  0  0  0  0  0  0  0
   21.4111   20.1843   21.2004 C   0  0  0  0  0  0  0  0  0  0  0  0
   22.1705   19.3963   21.2982 H   0  0  0  0  0  0  0  0  0  0  0  0
   21.3315   20.4142   20.1293 H   0  0  0  0  0  0  0  0  0  0  0  0
   21.8782   21.4400   21.9621 C   0  0  0  0  0  0  0  0  0  0  0  0
   21.9898   21.2271   23.0334 H   0  0  0  0  0  0  0  0  0  0  0  0
   22.8473   21.7875   21.5810 H   0  0  0  0  0  0  0  0  0  0  0  0
   21.1547   22.2582   21.8495 H   0  0  0  0  0  0  0  0  0  0  0  0
  1  2  1  0  0  0  0
  1  3  2  0  0  0  0
  1  4  1  0  0  0  0
  4  5  1  0  0  0  0
  4  6  1  0  0  0  0
  4  7  1  0  0  0  0
  7  8  1  0  0  0  0
  7  9  2  0  0  0  0
  9 10  1  0  0  0  0
  9 11  1  0  0  0  0
 11 12  1  0  0  0  0
 11 13  1  0  0  0  0
 11 14  1  0  0  0  0
 14 15  1  0  0  0  0
 14 16  1  0  0  0  0
 14 17  1  0  0  0  0
M  END
> <VConfSearch Rank>
626

> <Conf_Id>
38

> <Delta U+W>
0.000

> <U+W>
-49.427

> <U>
13.666

> <W>
-63.093

> <W(PB)>
-65.225

> <W(SA)>
2.132

> <Valence>
15.226

> <Coulomb>
-1.822

> <VdW>
0.261

> <VdW6>
-4.165

> <VdW12>
4.426

> <Bond>
0.044

> <Angle>
2.229

> <Pdih>
12.953

> <Idih>
0.000

> <Tether>
0.000

$$$$
VeraChem MOL file


 17 16  0  0  0  0  0  0  0  0999 V2000     
   23.1451   18.6794   21.5460 C   0  0  0  0  0  0  0  0  0  0  0  0
   23.5496   17.8719   22.3591 O   0  5  0  0  0  0  0  0  0  0  0  0
   23.8102   19.6095   21.1344 O   0  0  0  0  0  0  0  0  0  0  0  0
   21.7296   18.5157   21.0082 C   0  0  0  0  0  0  0  0  0  0  0  0
   21.4384   17.4647   21.1231 H   0  0  0  0  0  0  0  0  0  0  0  0
   21.7535   18.7260   19.9328 H   0  0  0  0  0  0  0  0  0  0  0  0
   20.7370   19.4332   21.6964 C   0  0  0  0  0  0  0  0  0  0  0  0
   20.8682   20.4958   21.4940 H   0  0  0  0  0  0  0  0  0  0  0  0
   19.7585   19.0113   22.5031 C   0  0  0  0  0  0  0  0  0  0  0  0
   19.6298   17.9489   22.7076 H   0  0  0  0  0  0  0  0  0  0  0  0
   18.7721   19.9279   23.1916 C   0  0  0  0  0  0  0  0  0  0  0  0
   18.7019   19.6648   24.2557 H   0  0  0  0  0  0  0  0  0  0  0  0
   19.1191   20.9694   23.1465 H   0  0  0  0  0  0  0  0  0  0  0  0
   17.3771   19.8267   22.5444 C   0  0  0  0  0  0  0  0  0  0  0  0
   16.9884   18.8020   22.6095 H   0  0  0  0  0  0  0  0  0  0  0  0
   16.6656   20.4935   23.0486 H   0  0  0  0  0  0  0  0  0  0  0  0
   17.4175   20.1105   21.4845 H   0  0  0  0  0  0  0  0  0  0  0  0
  1  2  1  0  0  0  0
  1  3  2  0  0  0  0
  1  4  1  0  0  0  0
  4  5  1  0  0  0  0
  4  6  1  0  0  0  0
  4  7  1  0  0  0  0
  7  8  1  0  0  0  0
  7  9  2  0  0  0  0
  9 10  1  0  0  0  0
  9 11  1  0  0  0  0
 11 12  1  0  0  0  0
 11 13  1  0  0  0  0
 11 14  1  0  0  0  0
 14 15  1  0  0  0  0
 14 16  1  0  0  0  0
 14 17  1  0  0  0  0
M  END
> <VConfSearch Rank>
627

> <Conf_Id>
35

> <Delta U+W>
-0.102

> <U+W>
-49.529

> <U>
13.666

> <W>
-63.195

> <W(PB)>
-65.299

> <W(SA)>
2.103

> <Valence>
15.226

> <Coulomb>
-1.822

> <VdW>
0.261

> <VdW6>
-4.165

> <VdW12>
4.426

> <Bond>
0.044

> <Angle>
2.229

> <Pdih>
12.953

> <Idih>
0.000

> <Tether>
0.000

$$$$
VeraChem MOL file


 17 16  0  0  0  0  0  0  0  0999 V2000     
   21.2881   21.6163   23.3144 C   0  0  0  0  0  0  0  0  0  0  0  0
   21.3380   21.5443   24.5266 O   0  5  0  0  0  0  0  0  0  0  0  0
   22.1906   22.0562   22.6297 O   0  0  0  0  0  0  0  0  0  0  0  0
   20.0210   21.1373   22.6183 C   0  0  0  0  0  0  0  0  0  0  0  0
   19.9505   21.6435   21.6480 H   0  0  0  0  0  0  0  0  0  0  0  0
   19.1645   21.4700   23.2161 H   0  0  0  0  0  0  0  0  0  0  0  0
   19.9850   19.6300   22.4510 C   0  0  0  0  0  0  0  0  0  0  0  0
   19.8931   19.0717   23.3811 H   0  0  0  0  0  0  0  0  0  0  0  0
   20.0636   19.0075   21.2682 C   0  0  0  0  0  0  0  0  0  0  0  0
   20.1594   19.5996   20.3587 H   0  0  0  0  0  0  0  0  0  0  0  0
   20.0376   17.5073   21.0287 C   0  0  0  0  0  0  0  0  0  0  0  0
   19.2074   17.2687   20.3502 H   0  0  0  0  0  0  0  0  0  0  0  0
   20.9505   17.2164   20.4915 H   0  0  0  0  0  0  0  0  0  0  0  0
   19.9087   16.6454   22.3040 C   0  0  0  0  0  0  0  0  0  0  0  0
   18.9775   16.8715   22.8399 H   0  0  0  0  0  0  0  0  0  0  0  0
   19.8983   15.5780   22.0478 H   0  0  0  0  0  0  0  0  0  0  0  0
   20.7529   16.8196   22.9841 H   0  0  0  0  0  0  0  0  0  0  0  0
  1  2  1  0  0  0  0
  1  3  2  0  0  0  0
  1  4  1  0  0  0  0
  4  5  1  0  0  0  0
  4  6  1  0  0  0  0
  4  7  1  0  0  0  0
  7  8  1  0  0  0  0
  7  9  2  0  0  0  0
  9 10  1  0  0  0  0
  9 11  1  0  0  0  0
 11 12  1  0  0  0  0
 11 13  1  0  0  0  0
 11 14  1  0  0  0  0
 14 15  1  0  0  0  0
 14 16  1  0  0  0  0
 14 17  1  0  0  0  0
M  END
> <VConfSearch Rank>
628

> <Conf_Id>
19

> <Delta U+W>
-0.496

> <U+W>
-49.923

> <U>
13.863

> <W>
-63.786

> <W(PB)>
-65.856

> <W(SA)>
2.070

> <Valence>
14.117

> <Coulomb>
-1.228

> <VdW>
0.974

> <VdW6>
-4.885

> <VdW12>
5.859

> <Bond>
0.094

> <Angle>
2.818

> <Pdih>
11.205

> <Idih>
0.000

> <Tether>
0.000

$$$$
VeraChem MOL file


 17 16  0  0  0  0  0  0  0  0999 V2000     
   20.2544   18.1380   24.9961 C   0  0  0  0  0  0  0  0  0  0  0  0
   21.1298   18.8351   25.4699 O   0  5  0  0  0  0  0  0  0  0  0  0
   19.1851   17.9405   25.5387 O   0  0  0  0  0  0  0  0  0  0  0  0
   20.5134   17.4656   23.6542 C   0  0  0  0  0  0  0  0  0  0  0  0
   20.1287   16.4410   23.7136 H   0  0  0  0  0  0  0  0  0  0  0  0
   21.5982   17.3933   23.5102 H   0  0  0  0  0  0  0  0  0  0  0  0
   19.8597   18.2014   22.5000 C   0  0  0  0  0  0  0  0  0  0  0  0
   18.7703   18.1809   22.4929 H   0  0  0  0  0  0  0  0  0  0  0  0
   20.5330   18.8483   21.5438 C   0  0  0  0  0  0  0  0  0  0  0  0
   21.6222   18.8728   21.5543 H   0  0  0  0  0  0  0  0  0  0  0  0
   19.8791   19.5838   20.3954 C   0  0  0  0  0  0  0  0  0  0  0  0
   20.3579   19.2958   19.4497 H   0  0  0  0  0  0  0  0  0  0  0  0
   18.8204   19.3021   20.3116 H   0  0  0  0  0  0  0  0  0  0  0  0
   19.9873   21.1097   20.5824 C   0  0  0  0  0  0  0  0  0  0  0  0
   21.0380   21.4248   20.6305 H   0  0  0  0  0  0  0  0  0  0  0  0
   19.5109   21.6385   19.7466 H   0  0  0  0  0  0  0  0  0  0  0  0
   19.4932   21.4245   21.5110 H   0  0  0  0  0  0  0  0  0  0  0  0
  1  2  1  0  0  0  0
  1  3  2  0  0  0  0
  1  4  1  0  0  0  0
  4  5  1  0  0  0  0
  4  6  1  0  0  0  0
  4  7  1  0  0  0  0
  7  8  1  0  0  0  0
  7  9  2  0  0  0  0
  9 10  1  0  0  0  0
  9 11  1  0  0  0  0
 11 12  1  0  0  0  0
 11 13  1  0  0  0  0
 11 14  1  0  0  0  0
 14 15  1  0  0  0  0
 14 16  1  0  0  0  0
 14 17  1  0  0  0  0
M  END
> <VConfSearch Rank>
629

> <Conf_Id>
7

> <Delta U+W>
-0.041

> <U+W>
-49.468

> <U>
14.121

> <W>
-63.589

> <W(PB)>
-65.660

> <W(SA)>
2.071

> <Valence>
15.230

> <Coulomb>
-1.333

> <VdW>
0.224

> <VdW6>
-4.212

> <VdW12>
4.436

> <Bond>
0.044

> <Angle>
2.230

> <Pdih>
12.956

> <Idih>
0.000

> <Tether>
0.000

$$$$
VeraChem MOL file


 17 16  0  0  0  0  0  0  0  0999 V2000     
   19.1678   21.8266   22.6895 C   0  0  0  0  0  0  0  0  0  0  0  0
   20.1809   22.4816   22.5429 O   0  5  0  0  0  0  0  0  0  0  0  0
   18.4625   21.8930   23.6770 O   0  0  0  0  0  0  0  0  0  0  0  0
   18.7434   20.8912   21.5614 C   0  0  0  0  0  0  0  0  0  0  0  0
   19.0648   21.3395   20.6140 H   0  0  0  0  0  0  0  0  0  0  0  0
   17.6477   20.8768   21.5316 H   0  0  0  0  0  0  0  0  0  0  0  0
   19.2701   19.4663   21.6561 C   0  0  0  0  0  0  0  0  0  0  0  0
   18.9552   18.8156   20.8412 H   0  0  0  0  0  0  0  0  0  0  0  0
   20.0573   18.9813   22.6236 C   0  0  0  0  0  0  0  0  0  0  0  0
   20.3872   19.6108   23.4492 H   0  0  0  0  0  0  0  0  0  0  0  0
   20.5531   17.5531   22.6720 C   0  0  0  0  0  0  0  0  0  0  0  0
   20.3902   17.1382   23.6759 H   0  0  0  0  0  0  0  0  0  0  0  0
   19.9832   16.9237   21.9747 H   0  0  0  0  0  0  0  0  0  0  0  0
   22.0517   17.4751   22.3209 C   0  0  0  0  0  0  0  0  0  0  0  0
   22.4063   16.4369   22.3589 H   0  0  0  0  0  0  0  0  0  0  0  0
   22.2357   17.8615   21.3097 H   0  0  0  0  0  0  0  0  0  0  0  0
   22.6503   18.0658   23.0267 H   0  0  0  0  0  0  0  0  0  0  0  0
  1  2  1  0  0  0  0
  1  3  2  0  0  0  0
  1  4  1  0  0  0  0
  4  5  1  0  0  0  0
  4  6  1  0  0  0  0
  4  7  1  0  0  0  0
  7  8  1  0  0  0  0
  7  9  2  0  0  0  0
  9 10  1  0  0  0  0
  9 11  1  0  0  0  0
 11 12  1  0  0  0  0
 11 13  1  0  0  0  0
 11 14  1  0  0  0  0
 14 15  1  0  0  0  0
 14 16  1  0  0  0  0
 14 17  1  0  0  0  0
M  END
> <VConfSearch Rank>
630

> <Conf_Id>
39

> <Delta U+W>
-0.422

> <U+W>
-49.849

> <U>
14.465

> <W>
-64.314

> <W(PB)>
-66.406

> <W(SA)>
2.093

> <Valence>
14.072

> <Coulomb>
-0.199

> <VdW>
0.592

> <VdW6>
-5.019

> <VdW12>
5.611

> <Bond>
0.085

> <Angle>
2.748

> <Pdih>
11.238

> <Idih>
0.001

> <Tether>
0.000

$$$$
VeraChem MOL file


 17 16  0  0  0  0  0  0  0  0999 V2000     
   21.6906   17.7321   19.8383 C   0  0  0  0  0  0  0  0  0  0  0  0
   21.2605   16.6400   19.5230 O   0  5  0  0  0  0  0  0  0  0  0  0
   22.8751   17.9846   19.9380 O   0  0  0  0  0  0  0  0  0  0  0  0
   20.6889   18.8447   20.1180 C   0  0  0  0  0  0  0  0  0  0  0  0
   19.8932   18.7756   19.3673 H   0  0  0  0  0  0  0  0  0  0  0  0
   21.1926   19.8066   19.9638 H   0  0  0  0  0  0  0  0  0  0  0  0
   20.0984   18.7577   21.5124 C   0  0  0  0  0  0  0  0  0  0  0  0
   19.4477   17.9018   21.6893 H   0  0  0  0  0  0  0  0  0  0  0  0
   20.3348   19.6435   22.4849 C   0  0  0  0  0  0  0  0  0  0  0  0
   20.9879   20.4975   22.3082 H   0  0  0  0  0  0  0  0  0  0  0  0
   19.7481   19.5530   23.8759 C   0  0  0  0  0  0  0  0  0  0  0  0
   19.3246   18.5543   24.0502 H   0  0  0  0  0  0  0  0  0  0  0  0
   20.5412   19.6937   24.6226 H   0  0  0  0  0  0  0  0  0  0  0  0
   18.6515   20.6155   24.0847 C   0  0  0  0  0  0  0  0  0  0  0  0
   17.8340   20.4787   23.3646 H   0  0  0  0  0  0  0  0  0  0  0  0
   18.2300   20.5453   25.0959 H   0  0  0  0  0  0  0  0  0  0  0  0
   19.0567   21.6275   23.9540 H   0  0  0  0  0  0  0  0  0  0  0  0
  1  2  1  0  0  0  0
  1  3  2  0  0  0  0
  1  4  1  0  0  0  0
  4  5  1  0  0  0  0
  4  6  1  0  0  0  0
  4  7  1  0  0  0  0
  7  8  1  0  0  0  0
  7  9  2  0  0  0  0
  9 10  1  0  0  0  0
  9 11  1  0  0  0  0
 11 12  1  0  0  0  0
 11 13  1  0  0  0  0
 11 14  1  0  0  0  0
 14 15  1  0  0  0  0
 14 16  1  0  0  0  0
 14 17  1  0  0  0  0
M  END
> <VConfSearch Rank>
631

> <Conf_Id>
38

> <Delta U+W>
0.000

> <U+W>
-49.427

> <U>
13.666

> <W>
-63.093

> <W(PB)>
-65.225

> <W(SA)>
2.132

> <Valence>
15.226

> <Coulomb>
-1.822

> <VdW>
0.261

> <VdW6>
-4.165

> <VdW12>
4.426

> <Bond>
0.044

> <Angle>
2.229

> <Pdih>
12.953

> <Idih>
0.000

> <Tether>
0.000

$$$$
VeraChem MOL file


 17 16  0  0  0  0  0  0  0  0999 V2000     
   22.7169   20.7769   21.2011 C   0  0  0  0  0  0  0  0  0  0  0  0
   22.6792   21.9209   21.6094 O   0  5  0  0  0  0  0  0  0  0  0  0
   23.1786   20.4637   20.1215 O   0  0  0  0  0  0  0  0  0  0  0  0
   22.1608   19.6736   22.0916 C   0  0  0  0  0  0  0  0  0  0  0  0
   22.1885   20.0243   23.1303 H   0  0  0  0  0  0  0  0  0  0  0  0
   22.8395   18.8154   22.0249 H   0  0  0  0  0  0  0  0  0  0  0  0
   20.7567   19.2592   21.6949 C   0  0  0  0  0  0  0  0  0  0  0  0
   20.6755   18.7520   20.7340 H   0  0  0  0  0  0  0  0  0  0  0  0
   19.6691   19.4829   22.4388 C   0  0  0  0  0  0  0  0  0  0  0  0
   19.7506   19.9931   23.3981 H   0  0  0  0  0  0  0  0  0  0  0  0
   18.2692   19.0726   22.0398 C   0  0  0  0  0  0  0  0  0  0  0  0
   17.5820   19.9186   22.1760 H   0  0  0  0  0  0  0  0  0  0  0  0
   18.2355   18.8074   20.9741 H   0  0  0  0  0  0  0  0  0  0  0  0
   17.7827   17.8751   22.8790 C   0  0  0  0  0  0  0  0  0  0  0  0
   17.7698   18.1254   23.9480 H   0  0  0  0  0  0  0  0  0  0  0  0
   16.7662   17.5824   22.5855 H   0  0  0  0  0  0  0  0  0  0  0  0
   18.4409   17.0076   22.7388 H   0  0  0  0  0  0  0  0  0  0  0  0
  1  2  1  0  0  0  0
  1  3  2  0  0  0  0
  1  4  1  0  0  0  0
  4  5  1  0  0  0  0
  4  6  1  0  0  0  0
  4  7  1  0  0  0  0
  7  8  1  0  0  0  0
  7  9  2  0  0  0  0
  9 10  1  0  0  0  0
  9 11  1  0  0  0  0
 11 12  1  0  0  0  0
 11 13  1  0  0  0  0
 11 14  1  0  0  0  0
 14 15  1  0  0  0  0
 14 16  1  0  0  0  0
 14 17  1  0  0  0  0
M  END
> <VConfSearch Rank>
632

> <Conf_Id>
35

> <Delta U+W>
-0.102

> <U+W>
-49.529

> <U>
13.666

> <W>
-63.195

> <W(PB)>
-65.299

> <W(SA)>
2.103

> <Valence>
15.226

> <Coulomb>
-1.822

> <VdW>
0.261

> <VdW6>
-4.165

> <VdW12>
4.426

> <Bond>
0.044

> <Angle>
2.229

> <Pdih>
12.953

> <Idih>
0.000

> <Tether>
0.000

$$$$
VeraChem MOL file


 17 16  0  0  0  0  0  0  0  0999 V2000     
   18.2463   16.9816   21.6411 C   0  0  0  0  0  0  0  0  0  0  0  0
   18.4980   16.4541   20.5755 O   0  5  0  0  0  0  0  0  0  0  0  0
   17.9621   16.3619   22.6471 O   0  0  0  0  0  0  0  0  0  0  0  0
   18.2803   18.5025   21.7151 C   0  0  0  0  0  0  0  0  0  0  0  0
   17.6422   18.8196   22.5487 H   0  0  0  0  0  0  0  0  0  0  0  0
   17.8256   18.8925   20.7972 H   0  0  0  0  0  0  0  0  0  0  0  0
   19.6886   19.0448   21.8695 C   0  0  0  0  0  0  0  0  0  0  0  0
   20.3291   18.8994   21.0013 H   0  0  0  0  0  0  0  0  0  0  0  0
   20.1381   19.6528   22.9744 C   0  0  0  0  0  0  0  0  0  0  0  0
   19.4691   19.7764   23.8254 H   0  0  0  0  0  0  0  0  0  0  0  0
   21.5321   20.2146   23.1980 C   0  0  0  0  0  0  0  0  0  0  0  0
   21.4512   21.2818   23.4451 H   0  0  0  0  0  0  0  0  0  0  0  0
   21.9699   19.7385   24.0857 H   0  0  0  0  0  0  0  0  0  0  0  0
   22.5017   20.0459   22.0075 C   0  0  0  0  0  0  0  0  0  0  0  0
   22.1210   20.5573   21.1136 H   0  0  0  0  0  0  0  0  0  0  0  0
   23.4836   20.4745   22.2471 H   0  0  0  0  0  0  0  0  0  0  0  0
   22.6480   18.9849   21.7659 H   0  0  0  0  0  0  0  0  0  0  0  0
  1  2  1  0  0  0  0
  1  3  2  0  0  0  0
  1  4  1  0  0  0  0
  4  5  1  0  0  0  0
  4  6  1  0  0  0  0
  4  7  1  0  0  0  0
  7  8  1  0  0  0  0
  7  9  2  0  0  0  0
  9 10  1  0  0  0  0
  9 11  1  0  0  0  0
 11 12  1  0  0  0  0
 11 13  1  0  0  0  0
 11 14  1  0  0  0  0
 14 15  1  0  0  0  0
 14 16  1  0  0  0  0
 14 17  1  0  0  0  0
M  END
> <VConfSearch Rank>
633

> <Conf_Id>
19

> <Delta U+W>
-0.496

> <U+W>
-49.923

> <U>
13.863

> <W>
-63.786

> <W(PB)>
-65.856

> <W(SA)>
2.070

> <Valence>
14.117

> <Coulomb>
-1.228

> <VdW>
0.974

> <VdW6>
-4.885

> <VdW12>
5.859

> <Bond>
0.094

> <Angle>
2.818

> <Pdih>
11.205

> <Idih>
0.000

> <Tether>
0.000

$$$$
VeraChem MOL file


 17 16  0  0  0  0  0  0  0  0999 V2000     
   22.5140   20.7359   22.7354 C   0  0  0  0  0  0  0  0  0  0  0  0
   23.0594   20.1369   23.6412 O   0  5  0  0  0  0  0  0  0  0  0  0
   23.1027   21.1626   21.7615 O   0  0  0  0  0  0  0  0  0  0  0  0
   21.0128   20.9755   22.8285 C   0  0  0  0  0  0  0  0  0  0  0  0
   20.8163   22.0012   22.4958 H   0  0  0  0  0  0  0  0  0  0  0  0
   20.7211   20.9190   23.8841 H   0  0  0  0  0  0  0  0  0  0  0  0
   20.2149   19.9944   21.9908 C   0  0  0  0  0  0  0  0  0  0  0  0
   20.3367   20.0967   20.9129 H   0  0  0  0  0  0  0  0  0  0  0  0
   19.4146   19.0513   22.4973 C   0  0  0  0  0  0  0  0  0  0  0  0
   19.2973   18.9461   23.5754 H   0  0  0  0  0  0  0  0  0  0  0  0
   18.6222   18.0721   21.6603 C   0  0  0  0  0  0  0  0  0  0  0  0
   17.5821   18.0404   22.0119 H   0  0  0  0  0  0  0  0  0  0  0  0
   18.5910   18.3997   20.6120 H   0  0  0  0  0  0  0  0  0  0  0  0
   19.2333   16.6593   21.7349 C   0  0  0  0  0  0  0  0  0  0  0  0
   19.2414   16.2902   22.7688 H   0  0  0  0  0  0  0  0  0  0  0  0
   18.6547   15.9529   21.1254 H   0  0  0  0  0  0  0  0  0  0  0  0
   20.2670   16.6618   21.3647 H   0  0  0  0  0  0  0  0  0  0  0  0
  1  2  1  0  0  0  0
  1  3  2  0  0  0  0
  1  4  1  0  0  0  0
  4  5  1  0  0  0  0
  4  6  1  0  0  0  0
  4  7  1  0  0  0  0
  7  8  1  0  0  0  0
  7  9  2  0  0  0  0
  9 10  1  0  0  0  0
  9 11  1  0  0  0  0
 11 12  1  0  0  0  0
 11 13  1  0  0  0  0
 11 14  1  0  0  0  0
 14 15  1  0  0  0  0
 14 16  1  0  0  0  0
 14 17  1  0  0  0  0
M  END
> <VConfSearch Rank>
634

> <Conf_Id>
7

> <Delta U+W>
-0.041

> <U+W>
-49.468

> <U>
14.121

> <W>
-63.589

> <W(PB)>
-65.660

> <W(SA)>
2.071

> <Valence>
15.230

> <Coulomb>
-1.333

> <VdW>
0.224

> <VdW6>
-4.212

> <VdW12>
4.436

> <Bond>
0.044

> <Angle>
2.230

> <Pdih>
12.956

> <Idih>
0.000

> <Tether>
0.000

$$$$
VeraChem MOL file


 17 16  0  0  0  0  0  0  0  0999 V2000     
   22.3530   20.8704   22.6292 C   0  0  0  0  0  0  0  0  0  0  0  0
   23.0308   20.5422   21.6753 O   0  5  0  0  0  0  0  0  0  0  0  0
   22.7527   20.8461   23.7767 O   0  0  0  0  0  0  0  0  0  0  0  0
   20.9336   21.3660   22.3699 C   0  0  0  0  0  0  0  0  0  0  0  0
   20.9259   21.8699   21.3964 H   0  0  0  0  0  0  0  0  0  0  0  0
   20.7077   22.1406   23.1120 H   0  0  0  0  0  0  0  0  0  0  0  0
   19.8491   20.2984   22.4003 C   0  0  0  0  0  0  0  0  0  0  0  0
   18.8438   20.6736   22.2130 H   0  0  0  0  0  0  0  0  0  0  0  0
   20.0364   18.9930   22.6282 C   0  0  0  0  0  0  0  0  0  0  0  0
   21.0314   18.5918   22.8173 H   0  0  0  0  0  0  0  0  0  0  0  0
   18.9213   17.9712   22.6490 C   0  0  0  0  0  0  0  0  0  0  0  0
   19.0135   17.3406   23.5436 H   0  0  0  0  0  0  0  0  0  0  0  0
   17.9439   18.4689   22.7138 H   0  0  0  0  0  0  0  0  0  0  0  0
   18.9594   17.0844   21.3892 C   0  0  0  0  0  0  0  0  0  0  0  0
   18.1491   16.3441   21.4103 H   0  0  0  0  0  0  0  0  0  0  0  0
   18.8431   17.6914   20.4817 H   0  0  0  0  0  0  0  0  0  0  0  0
   19.9128   16.5444   21.3193 H   0  0  0  0  0  0  0  0  0  0  0  0
  1  2  1  0  0  0  0
  1  3  2  0  0  0  0
  1  4  1  0  0  0  0
  4  5  1  0  0  0  0
  4  6  1  0  0  0  0
  4  7  1  0  0  0  0
  7  8  1  0  0  0  0
  7  9  2  0  0  0  0
  9 10  1  0  0  0  0
  9 11  1  0  0  0  0
 11 12  1  0  0  0  0
 11 13  1  0  0  0  0
 11 14  1  0  0  0  0
 14 15  1  0  0  0  0
 14 16  1  0  0  0  0
 14 17  1  0  0  0  0
M  END
> <VConfSearch Rank>
635

> <Conf_Id>
39

> <Delta U+W>
-0.422

> <U+W>
-49.849

> <U>
14.465

> <W>
-64.314

> <W(PB)>
-66.406

> <W(SA)>
2.093

> <Valence>
14.072

> <Coulomb>
-0.199

> <VdW>
0.592

> <VdW6>
-5.019

> <VdW12>
5.611

> <Bond>
0.085

> <Angle>
2.748

> <Pdih>
11.238

> <Idih>
0.001

> <Tether>
0.000

$$$$
VeraChem MOL file


 17 16  0  0  0  0  0  0  0  0999 V2000     
   18.5535   21.7287   23.3582 C   0  0  0  0  0  0  0  0  0  0  0  0
   17.3441   21.7233   23.2384 O   0  5  0  0  0  0  0  0  0  0  0  0
   19.2351   22.7288   23.2489 O   0  0  0  0  0  0  0  0  0  0  0  0
   19.2501   20.4101   23.6675 C   0  0  0  0  0  0  0  0  0  0  0  0
   18.6387   19.8723   24.4012 H   0  0  0  0  0  0  0  0  0  0  0  0
   20.2087   20.6337   24.1510 H   0  0  0  0  0  0  0  0  0  0  0  0
   19.4513   19.5554   22.4306 C   0  0  0  0  0  0  0  0  0  0  0  0
   18.5391   19.1594   21.9855 H   0  0  0  0  0  0  0  0  0  0  0  0
   20.6435   19.2844   21.8907 C   0  0  0  0  0  0  0  0  0  0  0  0
   21.5551   19.6832   22.3346 H   0  0  0  0  0  0  0  0  0  0  0  0
   20.8420   18.4351   20.6552 C   0  0  0  0  0  0  0  0  0  0  0  0
   19.8876   18.2917   20.1299 H   0  0  0  0  0  0  0  0  0  0  0  0
   21.5129   18.9506   19.9548 H   0  0  0  0  0  0  0  0  0  0  0  0
   21.4360   17.0601   21.0179 C   0  0  0  0  0  0  0  0  0  0  0  0
   20.7691   16.5144   21.6984 H   0  0  0  0  0  0  0  0  0  0  0  0
   21.5783   16.4486   20.1174 H   0  0  0  0  0  0  0  0  0  0  0  0
   22.4106   17.1722   21.5110 H   0  0  0  0  0  0  0  0  0  0  0  0
  1  2  1  0  0  0  0
  1  3  2  0  0  0  0
  1  4  1  0  0  0  0
  4  5  1  0  0  0  0
  4  6  1  0  0  0  0
  4  7  1  0  0  0  0
  7  8  1  0  0  0  0
  7  9  2  0  0  0  0
  9 10  1  0  0  0  0
  9 11  1  0  0  0  0
 11 12  1  0  0  0  0
 11 13  1  0  0  0  0
 11 14  1  0  0  0  0
 14 15  1  0  0  0  0
 14 16  1  0  0  0  0
 14 17  1  0  0  0  0
M  END
> <VConfSearch Rank>
636

> <Conf_Id>
38

> <Delta U+W>
0.000

> <U+W>
-49.427

> <U>
13.666

> <W>
-63.093

> <W(PB)>
-65.225

> <W(SA)>
2.132

> <Valence>
15.226

> <Coulomb>
-1.822

> <VdW>
0.261

> <VdW6>
-4.165

> <VdW12>
4.426

> <Bond>
0.044

> <Angle>
2.229

> <Pdih>
12.953

> <Idih>
0.000

> <Tether>
0.000

$$$$
VeraChem MOL file


 17 16  0  0  0  0  0  0  0  0999 V2000     
   18.3398   19.6375   24.7186 C   0  0  0  0  0  0  0  0  0  0  0  0
   17.1654   19.5104   24.4333 O   0  5  0  0  0  0  0  0  0  0  0  0
   18.7499   20.4372   25.5367 O   0  0  0  0  0  0  0  0  0  0  0  0
   19.3541   18.7431   24.0179 C   0  0  0  0  0  0  0  0  0  0  0  0
   18.8344   17.8426   23.6692 H   0  0  0  0  0  0  0  0  0  0  0  0
   20.0885   18.4204   24.7649 H   0  0  0  0  0  0  0  0  0  0  0  0
   20.0532   19.4462   22.8700 C   0  0  0  0  0  0  0  0  0  0  0  0
   20.7208   20.2574   23.1590 H   0  0  0  0  0  0  0  0  0  0  0  0
   19.8890   19.1278   21.5825 C   0  0  0  0  0  0  0  0  0  0  0  0
   19.2188   18.3186   21.2941 H   0  0  0  0  0  0  0  0  0  0  0  0
   20.5839   19.8325   20.4389 C   0  0  0  0  0  0  0  0  0  0  0  0
   19.8512   20.0906   19.6624 H   0  0  0  0  0  0  0  0  0  0  0  0
   21.0261   20.7780   20.7820 H   0  0  0  0  0  0  0  0  0  0  0  0
   21.6869   18.9451   19.8298 C   0  0  0  0  0  0  0  0  0  0  0  0
   21.2664   18.0074   19.4434 H   0  0  0  0  0  0  0  0  0  0  0  0
   22.1871   19.4614   19.0002 H   0  0  0  0  0  0  0  0  0  0  0  0
   22.4461   18.6949   20.5826 H   0  0  0  0  0  0  0  0  0  0  0  0
  1  2  1  0  0  0  0
  1  3  2  0  0  0  0
  1  4  1  0  0  0  0
  4  5  1  0  0  0  0
  4  6  1  0  0  0  0
  4  7  1  0  0  0  0
  7  8  1  0  0  0  0
  7  9  2  0  0  0  0
  9 10  1  0  0  0  0
  9 11  1  0  0  0  0
 11 12  1  0  0  0  0
 11 13  1  0  0  0  0
 11 14  1  0  0  0  0
 14 15  1  0  0  0  0
 14 16  1  0  0  0  0
 14 17  1  0  0  0  0
M  END
> <VConfSearch Rank>
637

> <Conf_Id>
35

> <Delta U+W>
-0.102

> <U+W>
-49.529

> <U>
13.666

> <W>
-63.195

> <W(PB)>
-65.299

> <W(SA)>
2.103

> <Valence>
15.226

> <Coulomb>
-1.822

> <VdW>
0.261

> <VdW6>
-4.165

> <VdW12>
4.426

> <Bond>
0.044

> <Angle>
2.229

> <Pdih>
12.953

> <Idih>
0.000

> <Tether>
0.000

$$$$
VeraChem MOL file


 17 16  0  0  0  0  0  0  0  0999 V2000     
   18.6165   21.3824   23.1585 C   0  0  0  0  0  0  0  0  0  0  0  0
   17.9289   21.8112   22.2528 O   0  5  0  0  0  0  0  0  0  0  0  0
   18.2019   21.1925   24.2849 O   0  0  0  0  0  0  0  0  0  0  0  0
   20.0794   21.0758   22.8661 C   0  0  0  0  0  0  0  0  0  0  0  0
   20.6354   21.1252   23.8100 H   0  0  0  0  0  0  0  0  0  0  0  0
   20.4670   21.8751   22.2239 H   0  0  0  0  0  0  0  0  0  0  0  0
   20.2670   19.7296   22.1924 C   0  0  0  0  0  0  0  0  0  0  0  0
   19.8718   19.6694   21.1798 H   0  0  0  0  0  0  0  0  0  0  0  0
   20.8616   18.6799   22.7731 C   0  0  0  0  0  0  0  0  0  0  0  0
   21.2410   18.7765   23.7899 H   0  0  0  0  0  0  0  0  0  0  0  0
   21.0791   17.3066   22.1606 C   0  0  0  0  0  0  0  0  0  0  0  0
   22.1532   17.0772   22.1713 H   0  0  0  0  0  0  0  0  0  0  0  0
   20.6096   16.5508   22.8046 H   0  0  0  0  0  0  0  0  0  0  0  0
   20.5440   17.1425   20.7209 C   0  0  0  0  0  0  0  0  0  0  0  0
   21.0325   17.8481   20.0361 H   0  0  0  0  0  0  0  0  0  0  0  0
   20.7378   16.1271   20.3516 H   0  0  0  0  0  0  0  0  0  0  0  0
   19.4601   17.3132   20.6817 H   0  0  0  0  0  0  0  0  0  0  0  0
  1  2  1  0  0  0  0
  1  3  2  0  0  0  0
  1  4  1  0  0  0  0
  4  5  1  0  0  0  0
  4  6  1  0  0  0  0
  4  7  1  0  0  0  0
  7  8  1  0  0  0  0
  7  9  2  0  0  0  0
  9 10  1  0  0  0  0
  9 11  1  0  0  0  0
 11 12  1  0  0  0  0
 11 13  1  0  0  0  0
 11 14  1  0  0  0  0
 14 15  1  0  0  0  0
 14 16  1  0  0  0  0
 14 17  1  0  0  0  0
M  END
> <VConfSearch Rank>
638

> <Conf_Id>
19

> <Delta U+W>
-0.496

> <U+W>
-49.923

> <U>
13.863

> <W>
-63.786

> <W(PB)>
-65.856

> <W(SA)>
2.070

> <Valence>
14.117

> <Coulomb>
-1.228

> <VdW>
0.974

> <VdW6>
-4.885

> <VdW12>
5.859

> <Bond>
0.094

> <Angle>
2.818

> <Pdih>
11.205

> <Idih>
0.000

> <Tether>
0.000

$$$$
VeraChem MOL file


 17 16  0  0  0  0  0  0  0  0999 V2000     
   20.5143   17.5576   24.7062 C   0  0  0  0  0  0  0  0  0  0  0  0
   20.4180   18.4274   25.5494 O   0  5  0  0  0  0  0  0  0  0  0  0
   19.9451   16.4862   24.7779 O   0  0  0  0  0  0  0  0  0  0  0  0
   21.4046   17.8179   23.4981 C   0  0  0  0  0  0  0  0  0  0  0  0
   21.9700   16.9010   23.2954 H   0  0  0  0  0  0  0  0  0  0  0  0
   22.1335   18.5911   23.7693 H   0  0  0  0  0  0  0  0  0  0  0  0
   20.6128   18.2240   22.2698 C   0  0  0  0  0  0  0  0  0  0  0  0
   19.9774   17.4459   21.8479 H   0  0  0  0  0  0  0  0  0  0  0  0
   20.6554   19.4400   21.7167 C   0  0  0  0  0  0  0  0  0  0  0  0
   21.2871   20.2192   22.1420 H   0  0  0  0  0  0  0  0  0  0  0  0
   19.8628   19.8437   20.4935 C   0  0  0  0  0  0  0  0  0  0  0  0
   20.5218   20.3493   19.7747 H   0  0  0  0  0  0  0  0  0  0  0  0
   19.4628   18.9560   19.9845 H   0  0  0  0  0  0  0  0  0  0  0  0
   18.7000   20.7814   20.8724 C   0  0  0  0  0  0  0  0  0  0  0  0
   19.0744   21.6968   21.3492 H   0  0  0  0  0  0  0  0  0  0  0  0
   18.1280   21.0709   19.9813 H   0  0  0  0  0  0  0  0  0  0  0  0
   18.0135   20.2875   21.5726 H   0  0  0  0  0  0  0  0  0  0  0  0
  1  2  1  0  0  0  0
  1  3  2  0  0  0  0
  1  4  1  0  0  0  0
  4  5  1  0  0  0  0
  4  6  1  0  0  0  0
  4  7  1  0  0  0  0
  7  8  1  0  0  0  0
  7  9  2  0  0  0  0
  9 10  1  0  0  0  0
  9 11  1  0  0  0  0
 11 12  1  0  0  0  0
 11 13  1  0  0  0  0
 11 14  1  0  0  0  0
 14 15  1  0  0  0  0
 14 16  1  0  0  0  0
 14 17  1  0  0  0  0
M  END
> <VConfSearch Rank>
639

> <Conf_Id>
7

> <Delta U+W>
-0.041

> <U+W>
-49.468

> <U>
14.121

> <W>
-63.589

> <W(PB)>
-65.660

> <W(SA)>
2.071

> <Valence>
15.230

> <Coulomb>
-1.333

> <VdW>
0.224

> <VdW6>
-4.212

> <VdW12>
4.436

> <Bond>
0.044

> <Angle>
2.230

> <Pdih>
12.956

> <Idih>
0.000

> <Tether>
0.000

$$$$
VeraChem MOL file


 17 16  0  0  0  0  0  0  0  0999 V2000     
   19.7225   17.2412   24.0920 C   0  0  0  0  0  0  0  0  0  0  0  0
   19.1395   16.4266   23.4039 O   0  5  0  0  0  0  0  0  0  0  0  0
   19.2931   17.6556   25.1508 O   0  0  0  0  0  0  0  0  0  0  0  0
   21.0792   17.7502   23.6148 C   0  0  0  0  0  0  0  0  0  0  0  0
   21.5662   16.9399   23.0598 H   0  0  0  0  0  0  0  0  0  0  0  0
   21.7020   17.9261   24.4997 H   0  0  0  0  0  0  0  0  0  0  0  0
   21.0449   19.0071   22.7570 C   0  0  0  0  0  0  0  0  0  0  0  0
   22.0237   19.3532   22.4274 H   0  0  0  0  0  0  0  0  0  0  0  0
   19.9479   19.6829   22.3953 C   0  0  0  0  0  0  0  0  0  0  0  0
   18.9571   19.3578   22.7105 H   0  0  0  0  0  0  0  0  0  0  0  0
   19.9685   20.9306   21.5405 C   0  0  0  0  0  0  0  0  0  0  0  0
   19.3421   21.7061   22.0019 H   0  0  0  0  0  0  0  0  0  0  0  0
   20.9860   21.3409   21.4824 H   0  0  0  0  0  0  0  0  0  0  0  0
   19.4557   20.6354   20.1175 C   0  0  0  0  0  0  0  0  0  0  0  0
   19.4715   21.5444   19.5023 H   0  0  0  0  0  0  0  0  0  0  0  0
   20.0830   19.8801   19.6261 H   0  0  0  0  0  0  0  0  0  0  0  0
   18.4246   20.2591   20.1432 H   0  0  0  0  0  0  0  0  0  0  0  0
  1  2  1  0  0  0  0
  1  3  2  0  0  0  0
  1  4  1  0  0  0  0
  4  5  1  0  0  0  0
  4  6  1  0  0  0  0
  4  7  1  0  0  0  0
  7  8  1  0  0  0  0
  7  9  2  0  0  0  0
  9 10  1  0  0  0  0
  9 11  1  0  0  0  0
 11 12  1  0  0  0  0
 11 13  1  0  0  0  0
 11 14  1  0  0  0  0
 14 15  1  0  0  0  0
 14 16  1  0  0  0  0
 14 17  1  0  0  0  0
M  END
> <VConfSearch Rank>
640

> <Conf_Id>
39

> <Delta U+W>
-0.422

> <U+W>
-49.849

> <U>
14.465

> <W>
-64.314

> <W(PB)>
-66.406

> <W(SA)>
2.093

> <Valence>
14.072

> <Coulomb>
-0.199

> <VdW>
0.592

> <VdW6>
-5.019

> <VdW12>
5.611

> <Bond>
0.085

> <Angle>
2.748

> <Pdih>
11.238

> <Idih>
0.001

> <Tether>
0.000

$$$$
VeraChem MOL file


 17 16  0  0  0  0  0  0  0  0999 V2000     
   20.4468   21.3323   19.7253 C   0  0  0  0  0  0  0  0  0  0  0  0
   19.6458   22.2451   19.6792 O   0  5  0  0  0  0  0  0  0  0  0  0
   20.8493   20.7413   18.7427 O   0  0  0  0  0  0  0  0  0  0  0  0
   20.9780   20.9114   21.0892 C   0  0  0  0  0  0  0  0  0  0  0  0
   21.1642   21.8212   21.6715 H   0  0  0  0  0  0  0  0  0  0  0  0
   21.9474   20.4200   20.9431 H   0  0  0  0  0  0  0  0  0  0  0  0
   20.0156   20.0050   21.8329 C   0  0  0  0  0  0  0  0  0  0  0  0
   19.0879   20.4766   22.1556 H   0  0  0  0  0  0  0  0  0  0  0  0
   20.2478   18.7148   22.0927 C   0  0  0  0  0  0  0  0  0  0  0  0
   21.1743   18.2431   21.7671 H   0  0  0  0  0  0  0  0  0  0  0  0
   19.2853   17.8116   22.8311 C   0  0  0  0  0  0  0  0  0  0  0  0
   18.2921   18.2773   22.8937 H   0  0  0  0  0  0  0  0  0  0  0  0
   19.1585   16.8722   22.2761 H   0  0  0  0  0  0  0  0  0  0  0  0
   19.7946   17.5036   24.2527 C   0  0  0  0  0  0  0  0  0  0  0  0
   19.9048   18.4273   24.8360 H   0  0  0  0  0  0  0  0  0  0  0  0
   19.0925   16.8474   24.7833 H   0  0  0  0  0  0  0  0  0  0  0  0
   20.7706   17.0019   24.2190 H   0  0  0  0  0  0  0  0  0  0  0  0
  1  2  1  0  0  0  0
  1  3  2  0  0  0  0
  1  4  1  0  0  0  0
  4  5  1  0  0  0  0
  4  6  1  0  0  0  0
  4  7  1  0  0  0  0
  7  8  1  0  0  0  0
  7  9  2  0  0  0  0
  9 10  1  0  0  0  0
  9 11  1  0  0  0  0
 11 12  1  0  0  0  0
 11 13  1  0  0  0  0
 11 14  1  0  0  0  0
 14 15  1  0  0  0  0
 14 16  1  0  0  0  0
 14 17  1  0  0  0  0
M  END
> <VConfSearch Rank>
641

> <Conf_Id>
38

> <Delta U+W>
0.000

> <U+W>
-49.427

> <U>
13.666

> <W>
-63.093

> <W(PB)>
-65.225

> <W(SA)>
2.132

> <Valence>
15.226

> <Coulomb>
-1.822

> <VdW>
0.261

> <VdW6>
-4.165

> <VdW12>
4.426

> <Bond>
0.044

> <Angle>
2.229

> <Pdih>
12.953

> <Idih>
0.000

> <Tether>
0.000

$$$$
VeraChem MOL file


 17 16  0  0  0  0  0  0  0  0999 V2000     
   20.1655   21.0753   19.5083 C   0  0  0  0  0  0  0  0  0  0  0  0
   20.4298   22.2178   19.8272 O   0  5  0  0  0  0  0  0  0  0  0  0
   19.3838   20.7884   18.6232 O   0  0  0  0  0  0  0  0  0  0  0  0
   20.8545   19.9397   20.2536 C   0  0  0  0  0  0  0  0  0  0  0  0
   21.7876   20.3261   20.6809 H   0  0  0  0  0  0  0  0  0  0  0  0
   21.1310   19.1755   19.5181 H   0  0  0  0  0  0  0  0  0  0  0  0
   19.9743   19.3328   21.3295 C   0  0  0  0  0  0  0  0  0  0  0  0
   19.1043   18.7870   20.9655 H   0  0  0  0  0  0  0  0  0  0  0  0
   20.2102   19.4380   22.6408 C   0  0  0  0  0  0  0  0  0  0  0  0
   21.0785   19.9866   23.0042 H   0  0  0  0  0  0  0  0  0  0  0  0
   19.3292   18.8355   23.7123 C   0  0  0  0  0  0  0  0  0  0  0  0
   19.1140   19.5888   24.4822 H   0  0  0  0  0  0  0  0  0  0  0  0
   18.3618   18.5321   23.2889 H   0  0  0  0  0  0  0  0  0  0  0  0
   20.0063   17.6140   24.3639 C   0  0  0  0  0  0  0  0  0  0  0  0
   20.9596   17.8966   24.8295 H   0  0  0  0  0  0  0  0  0  0  0  0
   19.3627   17.1815   25.1410 H   0  0  0  0  0  0  0  0  0  0  0  0
   20.2083   16.8354   23.6165 H   0  0  0  0  0  0  0  0  0  0  0  0
  1  2  1  0  0  0  0
  1  3  2  0  0  0  0
  1  4  1  0  0  0  0
  4  5  1  0  0  0  0
  4  6  1  0  0  0  0
  4  7  1  0  0  0  0
  7  8  1  0  0  0  0
  7  9  2  0  0  0  0
  9 10  1  0  0  0  0
  9 11  1  0  0  0  0
 11 12  1  0  0  0  0
 11 13  1  0  0  0  0
 11 14  1  0  0  0  0
 14 15  1  0  0  0  0
 14 16  1  0  0  0  0
 14 17  1  0  0  0  0
M  END
> <VConfSearch Rank>
642

> <Conf_Id>
35

> <Delta U+W>
-0.102

> <U+W>
-49.529

> <U>
13.666

> <W>
-63.195

> <W(PB)>
-65.299

> <W(SA)>
2.103

> <Valence>
15.226

> <Coulomb>
-1.822

> <VdW>
0.261

> <VdW6>
-4.165

> <VdW12>
4.426

> <Bond>
0.044

> <Angle>
2.229

> <Pdih>
12.953

> <Idih>
0.000

> <Tether>
0.000

$$$$
VeraChem MOL file


 17 16  0  0  0  0  0  0  0  0999 V2000     
   20.8034   20.9774   24.4035 C   0  0  0  0  0  0  0  0  0  0  0  0
   20.3699   20.5354   25.4493 O   0  5  0  0  0  0  0  0  0  0  0  0
   21.9097   21.4670   24.2881 O   0  0  0  0  0  0  0  0  0  0  0  0
   19.9062   20.9225   23.1740 C   0  0  0  0  0  0  0  0  0  0  0  0
   20.2322   21.7033   22.4764 H   0  0  0  0  0  0  0  0  0  0  0  0
   18.8888   21.1801   23.4904 H   0  0  0  0  0  0  0  0  0  0  0  0
   19.9151   19.5589   22.5094 C   0  0  0  0  0  0  0  0  0  0  0  0
   19.4549   18.7650   23.0951 H   0  0  0  0  0  0  0  0  0  0  0  0
   20.4440   19.3192   21.3029 C   0  0  0  0  0  0  0  0  0  0  0  0
   20.9002   20.1383   20.7478 H   0  0  0  0  0  0  0  0  0  0  0  0
   20.4908   17.9828   20.5817 C   0  0  0  0  0  0  0  0  0  0  0  0
   19.9918   18.0849   19.6085 H   0  0  0  0  0  0  0  0  0  0  0  0
   21.5367   17.7378   20.3527 H   0  0  0  0  0  0  0  0  0  0  0  0
   19.8555   16.8038   21.3514 C   0  0  0  0  0  0  0  0  0  0  0  0
   18.7921   16.9907   21.5508 H   0  0  0  0  0  0  0  0  0  0  0  0
   19.9300   15.8777   20.7668 H   0  0  0  0  0  0  0  0  0  0  0  0
   20.3656   16.6384   22.3095 H   0  0  0  0  0  0  0  0  0  0  0  0
  1  2  1  0  0  0  0
  1  3  2  0  0  0  0
  1  4  1  0  0  0  0
  4  5  1  0  0  0  0
  4  6  1  0  0  0  0
  4  7  1  0  0  0  0
  7  8  1  0  0  0  0
  7  9  2  0  0  0  0
  9 10  1  0  0  0  0
  9 11  1  0  0  0  0
 11 12  1  0  0  0  0
 11 13  1  0  0  0  0
 11 14  1  0  0  0  0
 14 15  1  0  0  0  0
 14 16  1  0  0  0  0
 14 17  1  0  0  0  0
M  END
> <VConfSearch Rank>
643

> <Conf_Id>
19

> <Delta U+W>
-0.496

> <U+W>
-49.923

> <U>
13.863

> <W>
-63.786

> <W(PB)>
-65.856

> <W(SA)>
2.070

> <Valence>
14.117

> <Coulomb>
-1.228

> <VdW>
0.974

> <VdW6>
-4.885

> <VdW12>
5.859

> <Bond>
0.094

> <Angle>
2.818

> <Pdih>
11.205

> <Idih>
0.000

> <Tether>
0.000

$$$$
VeraChem MOL file


 17 16  0  0  0  0  0  0  0  0999 V2000     
   21.9756   19.5585   24.4637 C   0  0  0  0  0  0  0  0  0  0  0  0
   21.2105   19.9048   25.3421 O   0  5  0  0  0  0  0  0  0  0  0  0
   22.8659   18.7480   24.6291 O   0  0  0  0  0  0  0  0  0  0  0  0
   21.8189   20.1807   23.0824 C   0  0  0  0  0  0  0  0  0  0  0  0
   22.8215   20.4073   22.7017 H   0  0  0  0  0  0  0  0  0  0  0  0
   21.2943   21.1372   23.1943 H   0  0  0  0  0  0  0  0  0  0  0  0
   21.0879   19.2698   22.1145 C   0  0  0  0  0  0  0  0  0  0  0  0
   21.6243   18.3641   21.8330 H   0  0  0  0  0  0  0  0  0  0  0  0
   19.8696   19.5177   21.6241 C   0  0  0  0  0  0  0  0  0  0  0  0
   19.3315   20.4209   21.9100 H   0  0  0  0  0  0  0  0  0  0  0  0
   19.1412   18.6066   20.6614 C   0  0  0  0  0  0  0  0  0  0  0  0
   18.7445   19.1943   19.8225 H   0  0  0  0  0  0  0  0  0  0  0  0
   19.8335   17.8699   20.2310 H   0  0  0  0  0  0  0  0  0  0  0  0
   17.9849   17.8694   21.3646 C   0  0  0  0  0  0  0  0  0  0  0  0
   17.2559   18.5824   21.7717 H   0  0  0  0  0  0  0  0  0  0  0  0
   17.4602   17.2094   20.6617 H   0  0  0  0  0  0  0  0  0  0  0  0
   18.3613   17.2549   22.1931 H   0  0  0  0  0  0  0  0  0  0  0  0
  1  2  1  0  0  0  0
  1  3  2  0  0  0  0
  1  4  1  0  0  0  0
  4  5  1  0  0  0  0
  4  6  1  0  0  0  0
  4  7  1  0  0  0  0
  7  8  1  0  0  0  0
  7  9  2  0  0  0  0
  9 10  1  0  0  0  0
  9 11  1  0  0  0  0
 11 12  1  0  0  0  0
 11 13  1  0  0  0  0
 11 14  1  0  0  0  0
 14 15  1  0  0  0  0
 14 16  1  0  0  0  0
 14 17  1  0  0  0  0
M  END
> <VConfSearch Rank>
644

> <Conf_Id>
7

> <Delta U+W>
-0.041

> <U+W>
-49.468

> <U>
14.121

> <W>
-63.589

> <W(PB)>
-65.660

> <W(SA)>
2.071

> <Valence>
15.230

> <Coulomb>
-1.333

> <VdW>
0.224

> <VdW6>
-4.212

> <VdW12>
4.436

> <Bond>
0.044

> <Angle>
2.230

> <Pdih>
12.956

> <Idih>
0.000

> <Tether>
0.000

$$$$
VeraChem MOL file


 17 16  0  0  0  0  0  0  0  0999 V2000     
   21.2191   21.7836   22.6349 C   0  0  0  0  0  0  0  0  0  0  0  0
   21.6571   21.6812   23.7639 O   0  5  0  0  0  0  0  0  0  0  0  0
   20.4614   22.6677   22.2865 O   0  0  0  0  0  0  0  0  0  0  0  0
   21.6661   20.7639   21.5918 C   0  0  0  0  0  0  0  0  0  0  0  0
   22.6892   20.4569   21.8385 H   0  0  0  0  0  0  0  0  0  0  0  0
   21.7304   21.2780   20.6258 H   0  0  0  0  0  0  0  0  0  0  0  0
   20.7825   19.5319   21.4565 C   0  0  0  0  0  0  0  0  0  0  0  0
   21.1195   18.8174   20.7066 H   0  0  0  0  0  0  0  0  0  0  0  0
   19.6746   19.2770   22.1626 C   0  0  0  0  0  0  0  0  0  0  0  0
   19.3164   19.9744   22.9190 H   0  0  0  0  0  0  0  0  0  0  0  0
   18.8293   18.0349   21.9878 C   0  0  0  0  0  0  0  0  0  0  0  0
   17.7705   18.3158   21.9069 H   0  0  0  0  0  0  0  0  0  0  0  0
   19.0908   17.5193   21.0535 H   0  0  0  0  0  0  0  0  0  0  0  0
   19.0150   17.0677   23.1731 C   0  0  0  0  0  0  0  0  0  0  0  0
   18.3983   16.1690   23.0418 H   0  0  0  0  0  0  0  0  0  0  0  0
   20.0633   16.7524   23.2584 H   0  0  0  0  0  0  0  0  0  0  0  0
   18.7239   17.5457   24.1178 H   0  0  0  0  0  0  0  0  0  0  0  0
  1  2  1  0  0  0  0
  1  3  2  0  0  0  0
  1  4  1  0  0  0  0
  4  5  1  0  0  0  0
  4  6  1  0  0  0  0
  4  7  1  0  0  0  0
  7  8  1  0  0  0  0
  7  9  2  0  0  0  0
  9 10  1  0  0  0  0
  9 11  1  0  0  0  0
 11 12  1  0  0  0  0
 11 13  1  0  0  0  0
 11 14  1  0  0  0  0
 14 15  1  0  0  0  0
 14 16  1  0  0  0  0
 14 17  1  0  0  0  0
M  END
> <VConfSearch Rank>
645

> <Conf_Id>
39

> <Delta U+W>
-0.422

> <U+W>
-49.849

> <U>
14.465

> <W>
-64.314

> <W(PB)>
-66.406

> <W(SA)>
2.093

> <Valence>
14.072

> <Coulomb>
-0.199

> <VdW>
0.592

> <VdW6>
-5.019

> <VdW12>
5.611

> <Bond>
0.085

> <Angle>
2.748

> <Pdih>
11.238

> <Idih>
0.001

> <Tether>
0.000

$$$$
VeraChem MOL file


 17 16  0  0  0  0  0  0  0  0999 V2000     
   17.2313   17.9950   22.4215 C   0  0  0  0  0  0  0  0  0  0  0  0
   16.9683   17.0619   21.6887 O   0  5  0  0  0  0  0  0  0  0  0  0
   16.4372   18.8693   22.7076 O   0  0  0  0  0  0  0  0  0  0  0  0
   18.6312   18.0678   23.0171 C   0  0  0  0  0  0  0  0  0  0  0  0
   18.9232   17.0531   23.3112 H   0  0  0  0  0  0  0  0  0  0  0  0
   18.5830   18.6664   23.9346 H   0  0  0  0  0  0  0  0  0  0  0  0
   19.6462   18.6411   22.0466 C   0  0  0  0  0  0  0  0  0  0  0  0
   19.8672   18.0163   21.1818 H   0  0  0  0  0  0  0  0  0  0  0  0
   20.2481   19.8243   22.2012 C   0  0  0  0  0  0  0  0  0  0  0  0
   20.0244   20.4500   23.0646 H   0  0  0  0  0  0  0  0  0  0  0  0
   21.2572   20.3961   21.2305 C   0  0  0  0  0  0  0  0  0  0  0  0
   21.2337   19.8430   20.2814 H   0  0  0  0  0  0  0  0  0  0  0  0
   20.9967   21.4369   20.9952 H   0  0  0  0  0  0  0  0  0  0  0  0
   22.6814   20.3429   21.8167 C   0  0  0  0  0  0  0  0  0  0  0  0
   22.9742   19.3077   22.0363 H   0  0  0  0  0  0  0  0  0  0  0  0
   23.4090   20.7596   21.1082 H   0  0  0  0  0  0  0  0  0  0  0  0
   22.7435   20.9208   22.7481 H   0  0  0  0  0  0  0  0  0  0  0  0
  1  2  1  0  0  0  0
  1  3  2  0  0  0  0
  1  4  1  0  0  0  0
  4  5  1  0  0  0  0
  4  6  1  0  0  0  0
  4  7  1  0  0  0  0
  7  8  1  0  0  0  0
  7  9  2  0  0  0  0
  9 10  1  0  0  0  0
  9 11  1  0  0  0  0
 11 12  1  0  0  0  0
 11 13  1  0  0  0  0
 11 14  1  0  0  0  0
 14 15  1  0  0  0  0
 14 16  1  0  0  0  0
 14 17  1  0  0  0  0
M  END
> <VConfSearch Rank>
646

> <Conf_Id>
38

> <Delta U+W>
0.000

> <U+W>
-49.427

> <U>
13.666

> <W>
-63.093

> <W(PB)>
-65.225

> <W(SA)>
2.132

> <Valence>
15.226

> <Coulomb>
-1.822

> <VdW>
0.261

> <VdW6>
-4.165

> <VdW12>
4.426

> <Bond>
0.044

> <Angle>
2.229

> <Pdih>
12.953

> <Idih>
0.000

> <Tether>
0.000

$$$$
VeraChem MOL file


 17 16  0  0  0  0  0  0  0  0999 V2000     
   17.2263   20.0201   23.2333 C   0  0  0  0  0  0  0  0  0  0  0  0
   17.2588   19.9943   24.4479 O   0  5  0  0  0  0  0  0  0  0  0  0
   16.2707   19.6527   22.5786 O   0  0  0  0  0  0  0  0  0  0  0  0
   18.4466   20.5464   22.4893 C   0  0  0  0  0  0  0  0  0  0  0  0
   19.0047   21.2035   23.1671 H   0  0  0  0  0  0  0  0  0  0  0  0
   18.0908   21.1688   21.6602 H   0  0  0  0  0  0  0  0  0  0  0  0
   19.3306   19.4322   21.9620 C   0  0  0  0  0  0  0  0  0  0  0  0
   18.8961   18.8328   21.1625 H   0  0  0  0  0  0  0  0  0  0  0  0
   20.5587   19.1681   22.4182 C   0  0  0  0  0  0  0  0  0  0  0  0
   20.9913   19.7659   23.2198 H   0  0  0  0  0  0  0  0  0  0  0  0
   21.4372   18.0542   21.8939 C   0  0  0  0  0  0  0  0  0  0  0  0
   21.8461   17.4776   22.7346 H   0  0  0  0  0  0  0  0  0  0  0  0
   20.8476   17.3527   21.2876 H   0  0  0  0  0  0  0  0  0  0  0  0
   22.5943   18.6147   21.0443 C   0  0  0  0  0  0  0  0  0  0  0  0
   23.2239   19.2909   21.6374 H   0  0  0  0  0  0  0  0  0  0  0  0
   23.2286   17.8019   20.6672 H   0  0  0  0  0  0  0  0  0  0  0  0
   22.2092   19.1744   20.1817 H   0  0  0  0  0  0  0  0  0  0  0  0
  1  2  1  0  0  0  0
  1  3  2  0  0  0  0
  1  4  1  0  0  0  0
  4  5  1  0  0  0  0
  4  6  1  0  0  0  0
  4  7  1  0  0  0  0
  7  8  1  0  0  0  0
  7  9  2  0  0  0  0
  9 10  1  0  0  0  0
  9 11  1  0  0  0  0
 11 12  1  0  0  0  0
 11 13  1  0  0  0  0
 11 14  1  0  0  0  0
 14 15  1  0  0  0  0
 14 16  1  0  0  0  0
 14 17  1  0  0  0  0
M  END
> <VConfSearch Rank>
647

> <Conf_Id>
35

> <Delta U+W>
-0.102

> <U+W>
-49.529

> <U>
13.666

> <W>
-63.195

> <W(PB)>
-65.299

> <W(SA)>
2.103

> <Valence>
15.226

> <Coulomb>
-1.822

> <VdW>
0.261

> <VdW6>
-4.165

> <VdW12>
4.426

> <Bond>
0.044

> <Angle>
2.229

> <Pdih>
12.953

> <Idih>
0.000

> <Tether>
0.000

$$$$
VeraChem MOL file


 17 16  0  0  0  0  0  0  0  0999 V2000     
   22.0413   21.0950   21.0140 C   0  0  0  0  0  0  0  0  0  0  0  0
   22.7716   21.5513   21.8716 O   0  5  0  0  0  0  0  0  0  0  0  0
   22.4303   20.7428   19.9179 O   0  0  0  0  0  0  0  0  0  0  0  0
   20.5566   20.9674   21.3288 C   0  0  0  0  0  0  0  0  0  0  0  0
   20.0041   20.9671   20.3815 H   0  0  0  0  0  0  0  0  0  0  0  0
   20.2522   21.8665   21.8769 H   0  0  0  0  0  0  0  0  0  0  0  0
   20.2407   19.7283   22.1449 C   0  0  0  0  0  0  0  0  0  0  0  0
   20.6325   19.7412   23.1605 H   0  0  0  0  0  0  0  0  0  0  0  0
   19.5434   18.6846   21.6790 C   0  0  0  0  0  0  0  0  0  0  0  0
   19.1708   18.7057   20.6554 H   0  0  0  0  0  0  0  0  0  0  0  0
   19.1948   17.4148   22.4371 C   0  0  0  0  0  0  0  0  0  0  0  0
   18.1032   17.2921   22.4447 H   0  0  0  0  0  0  0  0  0  0  0  0
   19.5850   16.5504   21.8830 H   0  0  0  0  0  0  0  0  0  0  0  0
   19.7174   17.3582   23.8896 C   0  0  0  0  0  0  0  0  0  0  0  0
   19.3035   18.1792   24.4896 H   0  0  0  0  0  0  0  0  0  0  0  0
   19.4264   16.4134   24.3668 H   0  0  0  0  0  0  0  0  0  0  0  0
   20.8130   17.4250   23.9168 H   0  0  0  0  0  0  0  0  0  0  0  0
  1  2  1  0  0  0  0
  1  3  2  0  0  0  0
  1  4  1  0  0  0  0
  4  5  1  0  0  0  0
  4  6  1  0  0  0  0
  4  7  1  0  0  0  0
  7  8  1  0  0  0  0
  7  9  2  0  0  0  0
  9 10  1  0  0  0  0
  9 11  1  0  0  0  0
 11 12  1  0  0  0  0
 11 13  1  0  0  0  0
 11 14  1  0  0  0  0
 14 15  1  0  0  0  0
 14 16  1  0  0  0  0
 14 17  1  0  0  0  0
M  END
> <VConfSearch Rank>
648

> <Conf_Id>
19

> <Delta U+W>
-0.496

> <U+W>
-49.923

> <U>
13.863

> <W>
-63.786

> <W(PB)>
-65.856

> <W(SA)>
2.070

> <Valence>
14.117

> <Coulomb>
-1.228

> <VdW>
0.974

> <VdW6>
-4.885

> <VdW12>
5.859

> <Bond>
0.094

> <Angle>
2.818

> <Pdih>
11.205

> <Idih>
0.000

> <Tether>
0.000

$$$$
VeraChem MOL file


 17 16  0  0  0  0  0  0  0  0999 V2000     
   22.1565   21.1037   21.5292 C   0  0  0  0  0  0  0  0  0  0  0  0
   22.2271   21.7500   22.5559 O   0  5  0  0  0  0  0  0  0  0  0  0
   23.1284   20.7228   20.9068 O   0  0  0  0  0  0  0  0  0  0  0  0
   20.7759   20.7604   20.9852 C   0  0  0  0  0  0  0  0  0  0  0  0
   20.8000   20.9015   19.8984 H   0  0  0  0  0  0  0  0  0  0  0  0
   20.0585   21.4859   21.3872 H   0  0  0  0  0  0  0  0  0  0  0  0
   20.3573   19.3408   21.3171 C   0  0  0  0  0  0  0  0  0  0  0  0
   20.9336   18.5587   20.8237 H   0  0  0  0  0  0  0  0  0  0  0  0
   19.3645   19.0268   22.1549 C   0  0  0  0  0  0  0  0  0  0  0  0
   18.7920   19.8092   22.6519 H   0  0  0  0  0  0  0  0  0  0  0  0
   18.9506   17.6105   22.4867 C   0  0  0  0  0  0  0  0  0  0  0  0
   17.8601   17.5126   22.3995 H   0  0  0  0  0  0  0  0  0  0  0  0
   19.3892   16.9037   21.7689 H   0  0  0  0  0  0  0  0  0  0  0  0
   19.3887   17.2259   23.9133 C   0  0  0  0  0  0  0  0  0  0  0  0
   18.9331   17.8935   24.6563 H   0  0  0  0  0  0  0  0  0  0  0  0
   19.0863   16.1972   24.1487 H   0  0  0  0  0  0  0  0  0  0  0  0
   20.4798   17.2927   24.0172 H   0  0  0  0  0  0  0  0  0  0  0  0
  1  2  1  0  0  0  0
  1  3  2  0  0  0  0
  1  4  1  0  0  0  0
  4  5  1  0  0  0  0
  4  6  1  0  0  0  0
  4  7  1  0  0  0  0
  7  8  1  0  0  0  0
  7  9  2  0  0  0  0
  9 10  1  0  0  0  0
  9 11  1  0  0  0  0
 11 12  1  0  0  0  0
 11 13  1  0  0  0  0
 11 14  1  0  0  0  0
 14 15  1  0  0  0  0
 14 16  1  0  0  0  0
 14 17  1  0  0  0  0
M  END
> <VConfSearch Rank>
649

> <Conf_Id>
7

> <Delta U+W>
-0.041

> <U+W>
-49.468

> <U>
14.121

> <W>
-63.589

> <W(PB)>
-65.660

> <W(SA)>
2.071

> <Valence>
15.230

> <Coulomb>
-1.333

> <VdW>
0.224

> <VdW6>
-4.212

> <VdW12>
4.436

> <Bond>
0.044

> <Angle>
2.230

> <Pdih>
12.956

> <Idih>
0.000

> <Tether>
0.000

$$$$
VeraChem MOL file


 17 16  0  0  0  0  0  0  0  0999 V2000     
   19.4885   20.7845   20.0458 C   0  0  0  0  0  0  0  0  0  0  0  0
   19.7940   20.0208   19.1511 O   0  5  0  0  0  0  0  0  0  0  0  0
   19.9073   21.9224   20.1293 O   0  0  0  0  0  0  0  0  0  0  0  0
   18.5049   20.2981   21.1057 C   0  0  0  0  0  0  0  0  0  0  0  0
   17.8173   19.5910   20.6272 H   0  0  0  0  0  0  0  0  0  0  0  0
   17.8920   21.1536   21.4128 H   0  0  0  0  0  0  0  0  0  0  0  0
   19.1292   19.6508   22.3338 C   0  0  0  0  0  0  0  0  0  0  0  0
   18.4096   19.3110   23.0776 H   0  0  0  0  0  0  0  0  0  0  0  0
   20.4381   19.4766   22.5516 C   0  0  0  0  0  0  0  0  0  0  0  0
   21.1785   19.8062   21.8237 H   0  0  0  0  0  0  0  0  0  0  0  0
   21.0082   18.8269   23.7929 C   0  0  0  0  0  0  0  0  0  0  0  0
   21.8216   19.4461   24.1948 H   0  0  0  0  0  0  0  0  0  0  0  0
   20.2437   18.7619   24.5794 H   0  0  0  0  0  0  0  0  0  0  0  0
   21.5424   17.4149   23.4832 C   0  0  0  0  0  0  0  0  0  0  0  0
   21.9561   16.9489   24.3869 H   0  0  0  0  0  0  0  0  0  0  0  0
   20.7397   16.7691   23.1034 H   0  0  0  0  0  0  0  0  0  0  0  0
   22.3365   17.4542   22.7260 H   0  0  0  0  0  0  0  0  0  0  0  0
  1  2  1  0  0  0  0
  1  3  2  0  0  0  0
  1  4  1  0  0  0  0
  4  5  1  0  0  0  0
  4  6  1  0  0  0  0
  4  7  1  0  0  0  0
  7  8  1  0  0  0  0
  7  9  2  0  0  0  0
  9 10  1  0  0  0  0
  9 11  1  0  0  0  0
 11 12  1  0  0  0  0
 11 13  1  0  0  0  0
 11 14  1  0  0  0  0
 14 15  1  0  0  0  0
 14 16  1  0  0  0  0
 14 17  1  0  0  0  0
M  END
> <VConfSearch Rank>
650

> <Conf_Id>
39

> <Delta U+W>
-0.422

> <U+W>
-49.849

> <U>
14.465

> <W>
-64.314

> <W(PB)>
-66.406

> <W(SA)>
2.093

> <Valence>
14.072

> <Coulomb>
-0.199

> <VdW>
0.592

> <VdW6>
-5.019

> <VdW12>
5.611

> <Bond>
0.085

> <Angle>
2.748

> <Pdih>
11.238

> <Idih>
0.001

> <Tether>
0.000

$$$$
VeraChem MOL file


 17 16  0  0  0  0  0  0  0  0999 V2000     
   17.6763   21.2447   22.5671 C   0  0  0  0  0  0  0  0  0  0  0  0
   16.6809   20.7685   23.0762 O   0  5  0  0  0  0  0  0  0  0  0  0
   17.6461   22.0572   21.6639 O   0  0  0  0  0  0  0  0  0  0  0  0
   19.0346   20.8019   23.0950 C   0  0  0  0  0  0  0  0  0  0  0  0
   18.9654   20.7397   24.1872 H   0  0  0  0  0  0  0  0  0  0  0  0
   19.7649   21.5867   22.8640 H   0  0  0  0  0  0  0  0  0  0  0  0
   19.4725   19.4666   22.5241 C   0  0  0  0  0  0  0  0  0  0  0  0
   18.8831   18.6080   22.8446 H   0  0  0  0  0  0  0  0  0  0  0  0
   20.4996   19.3096   21.6835 C   0  0  0  0  0  0  0  0  0  0  0  0
   21.0866   20.1690   21.3611 H   0  0  0  0  0  0  0  0  0  0  0  0
   20.9324   17.9779   21.1122 C   0  0  0  0  0  0  0  0  0  0  0  0
   20.1533   17.2197   21.2717 H   0  0  0  0  0  0  0  0  0  0  0  0
   21.0679   18.0669   20.0258 H   0  0  0  0  0  0  0  0  0  0  0  0
   22.2484   17.5002   21.7566 C   0  0  0  0  0  0  0  0  0  0  0  0
   22.1298   17.3790   22.8414 H   0  0  0  0  0  0  0  0  0  0  0  0
   22.5577   16.5338   21.3376 H   0  0  0  0  0  0  0  0  0  0  0  0
   23.0561   18.2225   21.5793 H   0  0  0  0  0  0  0  0  0  0  0  0
  1  2  1  0  0  0  0
  1  3  2  0  0  0  0
  1  4  1  0  0  0  0
  4  5  1  0  0  0  0
  4  6  1  0  0  0  0
  4  7  1  0  0  0  0
  7  8  1  0  0  0  0
  7  9  2  0  0  0  0
  9 10  1  0  0  0  0
  9 11  1  0  0  0  0
 11 12  1  0  0  0  0
 11 13  1  0  0  0  0
 11 14  1  0  0  0  0
 14 15  1  0  0  0  0
 14 16  1  0  0  0  0
 14 17  1  0  0  0  0
M  END
> <VConfSearch Rank>
651

> <Conf_Id>
38

> <Delta U+W>
0.000

> <U+W>
-49.427

> <U>
13.666

> <W>
-63.093

> <W(PB)>
-65.225

> <W(SA)>
2.132

> <Valence>
15.226

> <Coulomb>
-1.822

> <VdW>
0.261

> <VdW6>
-4.165

> <VdW12>
4.426

> <Bond>
0.044

> <Angle>
2.229

> <Pdih>
12.953

> <Idih>
0.000

> <Tether>
0.000

$$$$
VeraChem MOL file


 17 16  0  0  0  0  0  0  0  0999 V2000     
   22.2585   16.9674   22.1772 C   0  0  0  0  0  0  0  0  0  0  0  0
   22.3597   16.5517   23.3146 O   0  5  0  0  0  0  0  0  0  0  0  0
   23.2007   17.0868   21.4189 O   0  0  0  0  0  0  0  0  0  0  0  0
   20.8756   17.3552   21.6704 C   0  0  0  0  0  0  0  0  0  0  0  0
   20.1286   16.8148   22.2641 H   0  0  0  0  0  0  0  0  0  0  0  0
   20.7847   16.9977   20.6382 H   0  0  0  0  0  0  0  0  0  0  0  0
   20.6352   18.8518   21.7262 C   0  0  0  0  0  0  0  0  0  0  0  0
   21.2355   19.4453   21.0372 H   0  0  0  0  0  0  0  0  0  0  0  0
   19.7619   19.4422   22.5478 C   0  0  0  0  0  0  0  0  0  0  0  0
   19.1642   18.8485   23.2387 H   0  0  0  0  0  0  0  0  0  0  0  0
   19.5263   20.9350   22.6048 C   0  0  0  0  0  0  0  0  0  0  0  0
   19.5497   21.2744   23.6492 H   0  0  0  0  0  0  0  0  0  0  0  0
   20.3297   21.4712   22.0810 H   0  0  0  0  0  0  0  0  0  0  0  0
   18.1700   21.3062   21.9742 C   0  0  0  0  0  0  0  0  0  0  0  0
   17.3440   20.8133   22.5035 H   0  0  0  0  0  0  0  0  0  0  0  0
   18.0044   22.3905   22.0191 H   0  0  0  0  0  0  0  0  0  0  0  0
   18.1328   20.9992   20.9207 H   0  0  0  0  0  0  0  0  0  0  0  0
  1  2  1  0  0  0  0
  1  3  2  0  0  0  0
  1  4  1  0  0  0  0
  4  5  1  0  0  0  0
  4  6  1  0  0  0  0
  4  7  1  0  0  0  0
  7  8  1  0  0  0  0
  7  9  2  0  0  0  0
  9 10  1  0  0  0  0
  9 11  1  0  0  0  0
 11 12  1  0  0  0  0
 11 13  1  0  0  0  0
 11 14  1  0  0  0  0
 14 15  1  0  0  0  0
 14 16  1  0  0  0  0
 14 17  1  0  0  0  0
M  END
> <VConfSearch Rank>
652

> <Conf_Id>
35

> <Delta U+W>
-0.102

> <U+W>
-49.529

> <U>
13.666

> <W>
-63.195

> <W(PB)>
-65.299

> <W(SA)>
2.103

> <Valence>
15.226

> <Coulomb>
-1.822

> <VdW>
0.261

> <VdW6>
-4.165

> <VdW12>
4.426

> <Bond>
0.044

> <Angle>
2.229

> <Pdih>
12.953

> <Idih>
0.000

> <Tether>
0.000

$$$$
VeraChem MOL file


 17 16  0  0  0  0  0  0  0  0999 V2000     
   22.0387   16.7746   22.2792 C   0  0  0  0  0  0  0  0  0  0  0  0
   22.5243   16.6658   23.3879 O   0  5  0  0  0  0  0  0  0  0  0  0
   21.5877   15.8390   21.6483 O   0  0  0  0  0  0  0  0  0  0  0  0
   22.0030   18.1583   21.6436 C   0  0  0  0  0  0  0  0  0  0  0  0
   21.9567   18.0345   20.5550 H   0  0  0  0  0  0  0  0  0  0  0  0
   22.9537   18.6550   21.8694 H   0  0  0  0  0  0  0  0  0  0  0  0
   20.8444   18.9985   22.1468 C   0  0  0  0  0  0  0  0  0  0  0  0
   20.9157   19.2904   23.1932 H   0  0  0  0  0  0  0  0  0  0  0  0
   19.8015   19.3625   21.3901 C   0  0  0  0  0  0  0  0  0  0  0  0
   19.7626   19.0477   20.3478 H   0  0  0  0  0  0  0  0  0  0  0  0
   18.6096   20.1967   21.8283 C   0  0  0  0  0  0  0  0  0  0  0  0
   18.5377   21.0827   21.1832 H   0  0  0  0  0  0  0  0  0  0  0  0
   17.6891   19.6250   21.6480 H   0  0  0  0  0  0  0  0  0  0  0  0
   18.6385   20.6502   23.3046 C   0  0  0  0  0  0  0  0  0  0  0  0
   19.5203   21.2717   23.5087 H   0  0  0  0  0  0  0  0  0  0  0  0
   17.7465   21.2443   23.5422 H   0  0  0  0  0  0  0  0  0  0  0  0
   18.6570   19.7862   23.9818 H   0  0  0  0  0  0  0  0  0  0  0  0
  1  2  1  0  0  0  0
  1  3  2  0  0  0  0
  1  4  1  0  0  0  0
  4  5  1  0  0  0  0
  4  6  1  0  0  0  0
  4  7  1  0  0  0  0
  7  8  1  0  0  0  0
  7  9  2  0  0  0  0
  9 10  1  0  0  0  0
  9 11  1  0  0  0  0
 11 12  1  0  0  0  0
 11 13  1  0  0  0  0
 11 14  1  0  0  0  0
 14 15  1  0  0  0  0
 14 16  1  0  0  0  0
 14 17  1  0  0  0  0
M  END
> <VConfSearch Rank>
653

> <Conf_Id>
19

> <Delta U+W>
-0.496

> <U+W>
-49.923

> <U>
13.863

> <W>
-63.786

> <W(PB)>
-65.856

> <W(SA)>
2.070

> <Valence>
14.117

> <Coulomb>
-1.228

> <VdW>
0.974

> <VdW6>
-4.885

> <VdW12>
5.859

> <Bond>
0.094

> <Angle>
2.818

> <Pdih>
11.205

> <Idih>
0.000

> <Tether>
0.000

$$$$
VeraChem MOL file


 17 16  0  0  0  0  0  0  0  0999 V2000     
   20.2528   20.6072   24.7079 C   0  0  0  0  0  0  0  0  0  0  0  0
   19.7383   21.6586   24.3814 O   0  5  0  0  0  0  0  0  0  0  0  0
   19.9689   20.0079   25.7264 O   0  0  0  0  0  0  0  0  0  0  0  0
   21.3194   20.0117   23.7982 C   0  0  0  0  0  0  0  0  0  0  0  0
   22.1273   19.6316   24.4340 H   0  0  0  0  0  0  0  0  0  0  0  0
   21.7427   20.8205   23.1905 H   0  0  0  0  0  0  0  0  0  0  0  0
   20.7791   18.8983   22.9211 C   0  0  0  0  0  0  0  0  0  0  0  0
   20.4816   17.9930   23.4494 H   0  0  0  0  0  0  0  0  0  0  0  0
   20.6523   18.9824   21.5933 C   0  0  0  0  0  0  0  0  0  0  0  0
   20.9450   19.8899   21.0662 H   0  0  0  0  0  0  0  0  0  0  0  0
   20.1106   17.8721   20.7209 C   0  0  0  0  0  0  0  0  0  0  0  0
   20.7788   17.7143   19.8636 H   0  0  0  0  0  0  0  0  0  0  0  0
   20.0824   16.9251   21.2773 H   0  0  0  0  0  0  0  0  0  0  0  0
   18.6945   18.2077   20.2138 C   0  0  0  0  0  0  0  0  0  0  0  0
   18.6998   19.1313   19.6202 H   0  0  0  0  0  0  0  0  0  0  0  0
   18.3061   17.3986   19.5818 H   0  0  0  0  0  0  0  0  0  0  0  0
   18.0021   18.3458   21.0547 H   0  0  0  0  0  0  0  0  0  0  0  0
  1  2  1  0  0  0  0
  1  3  2  0  0  0  0
  1  4  1  0  0  0  0
  4  5  1  0  0  0  0
  4  6  1  0  0  0  0
  4  7  1  0  0  0  0
  7  8  1  0  0  0  0
  7  9  2  0  0  0  0
  9 10  1  0  0  0  0
  9 11  1  0  0  0  0
 11 12  1  0  0  0  0
 11 13  1  0  0  0  0
 11 14  1  0  0  0  0
 14 15  1  0  0  0  0
 14 16  1  0  0  0  0
 14 17  1  0  0  0  0
M  END
> <VConfSearch Rank>
654

> <Conf_Id>
7

> <Delta U+W>
-0.041

> <U+W>
-49.468

> <U>
14.121

> <W>
-63.589

> <W(PB)>
-65.660

> <W(SA)>
2.071

> <Valence>
15.230

> <Coulomb>
-1.333

> <VdW>
0.224

> <VdW6>
-4.212

> <VdW12>
4.436

> <Bond>
0.044

> <Angle>
2.230

> <Pdih>
12.956

> <Idih>
0.000

> <Tether>
0.000

$$$$
VeraChem MOL file


 17 16  0  0  0  0  0  0  0  0999 V2000     
   21.0871   16.7713   21.5932 C   0  0  0  0  0  0  0  0  0  0  0  0
   21.5173   16.3932   22.6651 O   0  5  0  0  0  0  0  0  0  0  0  0
   21.7488   16.7925   20.5740 O   0  0  0  0  0  0  0  0  0  0  0  0
   19.6300   17.2168   21.5168 C   0  0  0  0  0  0  0  0  0  0  0  0
   19.0599   16.6289   22.2455 H   0  0  0  0  0  0  0  0  0  0  0  0
   19.2432   16.9323   20.5313 H   0  0  0  0  0  0  0  0  0  0  0  0
   19.3832   18.7001   21.7530 C   0  0  0  0  0  0  0  0  0  0  0  0
   18.3367   18.9966   21.6938 H   0  0  0  0  0  0  0  0  0  0  0  0
   20.3177   19.6207   22.0179 C   0  0  0  0  0  0  0  0  0  0  0  0
   21.3711   19.3506   22.0835 H   0  0  0  0  0  0  0  0  0  0  0  0
   20.0190   21.0862   22.2438 C   0  0  0  0  0  0  0  0  0  0  0  0
   20.7019   21.7006   21.6416 H   0  0  0  0  0  0  0  0  0  0  0  0
   19.0005   21.3276   21.9099 H   0  0  0  0  0  0  0  0  0  0  0  0
   20.1695   21.4588   23.7316 C   0  0  0  0  0  0  0  0  0  0  0  0
   19.9530   22.5234   23.8895 H   0  0  0  0  0  0  0  0  0  0  0  0
   19.4771   20.8744   24.3518 H   0  0  0  0  0  0  0  0  0  0  0  0
   21.1912   21.2631   24.0828 H   0  0  0  0  0  0  0  0  0  0  0  0
  1  2  1  0  0  0  0
  1  3  2  0  0  0  0
  1  4  1  0  0  0  0
  4  5  1  0  0  0  0
  4  6  1  0  0  0  0
  4  7  1  0  0  0  0
  7  8  1  0  0  0  0
  7  9  2  0  0  0  0
  9 10  1  0  0  0  0
  9 11  1  0  0  0  0
 11 12  1  0  0  0  0
 11 13  1  0  0  0  0
 11 14  1  0  0  0  0
 14 15  1  0  0  0  0
 14 16  1  0  0  0  0
 14 17  1  0  0  0  0
M  END
> <VConfSearch Rank>
655

> <Conf_Id>
39

> <Delta U+W>
-0.422

> <U+W>
-49.849

> <U>
14.465

> <W>
-64.314

> <W(PB)>
-66.406

> <W(SA)>
2.093

> <Valence>
14.072

> <Coulomb>
-0.199

> <VdW>
0.592

> <VdW6>
-5.019

> <VdW12>
5.611

> <Bond>
0.085

> <Angle>
2.748

> <Pdih>
11.238

> <Idih>
0.001

> <Tether>
0.000

$$$$
VeraChem MOL file


 17 16  0  0  0  0  0  0  0  0999 V2000     
   18.9594   20.2603   19.3266 C   0  0  0  0  0  0  0  0  0  0  0  0
   17.7862   20.0276   19.1111 O   0  5  0  0  0  0  0  0  0  0  0  0
   19.8286   20.1697   18.4821 O   0  0  0  0  0  0  0  0  0  0  0  0
   19.3591   20.6941   20.7308 C   0  0  0  0  0  0  0  0  0  0  0  0
   18.5960   21.3910   21.0960 H   0  0  0  0  0  0  0  0  0  0  0  0
   20.2991   21.2548   20.6621 H   0  0  0  0  0  0  0  0  0  0  0  0
   19.4936   19.5223   21.6845 C   0  0  0  0  0  0  0  0  0  0  0  0
   18.5623   19.0120   21.9284 H   0  0  0  0  0  0  0  0  0  0  0  0
   20.6515   19.1100   22.2093 C   0  0  0  0  0  0  0  0  0  0  0  0
   21.5828   19.6189   21.9626 H   0  0  0  0  0  0  0  0  0  0  0  0
   20.7842   17.9390   23.1571 C   0  0  0  0  0  0  0  0  0  0  0  0
   19.8674   17.3334   23.1506 H   0  0  0  0  0  0  0  0  0  0  0  0
   21.5984   17.2819   22.8228 H   0  0  0  0  0  0  0  0  0  0  0  0
   21.0682   18.4188   24.5939 C   0  0  0  0  0  0  0  0  0  0  0  0
   20.2537   19.0579   24.9596 H   0  0  0  0  0  0  0  0  0  0  0  0
   21.1641   17.5648   25.2769 H   0  0  0  0  0  0  0  0  0  0  0  0
   22.0013   18.9958   24.6369 H   0  0  0  0  0  0  0  0  0  0  0  0
  1  2  1  0  0  0  0
  1  3  2  0  0  0  0
  1  4  1  0  0  0  0
  4  5  1  0  0  0  0
  4  6  1  0  0  0  0
  4  7  1  0  0  0  0
  7  8  1  0  0  0  0
  7  9  2  0  0  0  0
  9 10  1  0  0  0  0
  9 11  1  0  0  0  0
 11 12  1  0  0  0  0
 11 13  1  0  0  0  0
 11 14  1  0  0  0  0
 14 15  1  0  0  0  0
 14 16  1  0  0  0  0
 14 17  1  0  0  0  0
M  END
> <VConfSearch Rank>
656

> <Conf_Id>
38

> <Delta U+W>
0.000

> <U+W>
-49.427

> <U>
13.666

> <W>
-63.093

> <W(PB)>
-65.225

> <W(SA)>
2.132

> <Valence>
15.226

> <Coulomb>
-1.822

> <VdW>
0.261

> <VdW6>
-4.165

> <VdW12>
4.426

> <Bond>
0.044

> <Angle>
2.229

> <Pdih>
12.953

> <Idih>
0.000

> <Tether>
0.000

$$$$
VeraChem MOL file


 17 16  0  0  0  0  0  0  0  0999 V2000     
   21.1108   18.5632   25.0154 C   0  0  0  0  0  0  0  0  0  0  0  0
   20.3774   19.0845   25.8321 O   0  5  0  0  0  0  0  0  0  0  0  0
   22.3137   18.4652   25.1583 O   0  0  0  0  0  0  0  0  0  0  0  0
   20.4902   17.9964   23.7453 C   0  0  0  0  0  0  0  0  0  0  0  0
   19.4352   17.7760   23.9477 H   0  0  0  0  0  0  0  0  0  0  0  0
   20.9818   17.0406   23.5300 H   0  0  0  0  0  0  0  0  0  0  0  0
   20.6323   18.9335   22.5610 C   0  0  0  0  0  0  0  0  0  0  0  0
   21.6502   19.0738   22.1985 H   0  0  0  0  0  0  0  0  0  0  0  0
   19.6099   19.5646   21.9757 C   0  0  0  0  0  0  0  0  0  0  0  0
   18.5927   19.4263   22.3407 H   0  0  0  0  0  0  0  0  0  0  0  0
   19.7540   20.5017   20.7974 C   0  0  0  0  0  0  0  0  0  0  0  0
   19.2002   21.4301   20.9923 H   0  0  0  0  0  0  0  0  0  0  0  0
   20.8063   20.7856   20.6585 H   0  0  0  0  0  0  0  0  0  0  0  0
   19.2264   19.8506   19.5041 C   0  0  0  0  0  0  0  0  0  0  0  0
   18.1641   19.5909   19.6014 H   0  0  0  0  0  0  0  0  0  0  0  0
   19.3330   20.5356   18.6529 H   0  0  0  0  0  0  0  0  0  0  0  0
   19.7833   18.9326   19.2745 H   0  0  0  0  0  0  0  0  0  0  0  0
  1  2  1  0  0  0  0
  1  3  2  0  0  0  0
  1  4  1  0  0  0  0
  4  5  1  0  0  0  0
  4  6  1  0  0  0  0
  4  7  1  0  0  0  0
  7  8  1  0  0  0  0
  7  9  2  0  0  0  0
  9 10  1  0  0  0  0
  9 11  1  0  0  0  0
 11 12  1  0  0  0  0
 11 13  1  0  0  0  0
 11 14  1  0  0  0  0
 14 15  1  0  0  0  0
 14 16  1  0  0  0  0
 14 17  1  0  0  0  0
M  END
> <VConfSearch Rank>
657

> <Conf_Id>
35

> <Delta U+W>
-0.102

> <U+W>
-49.529

> <U>
13.666

> <W>
-63.195

> <W(PB)>
-65.299

> <W(SA)>
2.103

> <Valence>
15.226

> <Coulomb>
-1.822

> <VdW>
0.261

> <VdW6>
-4.165

> <VdW12>
4.426

> <Bond>
0.044

> <Angle>
2.229

> <Pdih>
12.953

> <Idih>
0.000

> <Tether>
0.000

$$$$
VeraChem MOL file


 17 16  0  0  0  0  0  0  0  0999 V2000     
   22.7156   17.5508   21.8954 C   0  0  0  0  0  0  0  0  0  0  0  0
   22.5174   16.5861   21.1833 O   0  5  0  0  0  0  0  0  0  0  0  0
   23.6803   18.2814   21.7839 O   0  0  0  0  0  0  0  0  0  0  0  0
   21.7036   17.8533   22.9927 C   0  0  0  0  0  0  0  0  0  0  0  0
   22.2087   18.4328   23.7747 H   0  0  0  0  0  0  0  0  0  0  0  0
   21.4036   16.9002   23.4434 H   0  0  0  0  0  0  0  0  0  0  0  0
   20.4838   18.5889   22.4706 C   0  0  0  0  0  0  0  0  0  0  0  0
   19.8498   18.0035   21.8070 H   0  0  0  0  0  0  0  0  0  0  0  0
   20.1879   19.8578   22.7791 C   0  0  0  0  0  0  0  0  0  0  0  0
   20.8487   20.4137   23.4434 H   0  0  0  0  0  0  0  0  0  0  0  0
   18.9897   20.6546   22.2912 C   0  0  0  0  0  0  0  0  0  0  0  0
   18.4185   21.0080   23.1603 H   0  0  0  0  0  0  0  0  0  0  0  0
   19.3471   21.5612   21.7845 H   0  0  0  0  0  0  0  0  0  0  0  0
   18.0404   19.8897   21.3425 C   0  0  0  0  0  0  0  0  0  0  0  0
   17.6202   19.0035   21.8360 H   0  0  0  0  0  0  0  0  0  0  0  0
   17.2044   20.5313   21.0351 H   0  0  0  0  0  0  0  0  0  0  0  0
   18.5671   19.5662   20.4351 H   0  0  0  0  0  0  0  0  0  0  0  0
  1  2  1  0  0  0  0
  1  3  2  0  0  0  0
  1  4  1  0  0  0  0
  4  5  1  0  0  0  0
  4  6  1  0  0  0  0
  4  7  1  0  0  0  0
  7  8  1  0  0  0  0
  7  9  2  0  0  0  0
  9 10  1  0  0  0  0
  9 11  1  0  0  0  0
 11 12  1  0  0  0  0
 11 13  1  0  0  0  0
 11 14  1  0  0  0  0
 14 15  1  0  0  0  0
 14 16  1  0  0  0  0
 14 17  1  0  0  0  0
M  END
> <VConfSearch Rank>
658

> <Conf_Id>
19

> <Delta U+W>
-0.496

> <U+W>
-49.923

> <U>
13.863

> <W>
-63.786

> <W(PB)>
-65.856

> <W(SA)>
2.070

> <Valence>
14.117

> <Coulomb>
-1.228

> <VdW>
0.974

> <VdW6>
-4.885

> <VdW12>
5.859

> <Bond>
0.094

> <Angle>
2.818

> <Pdih>
11.205

> <Idih>
0.000

> <Tether>
0.000

$$$$
VeraChem MOL file


 17 16  0  0  0  0  0  0  0  0999 V2000     
   19.7597   21.9730   22.1677 C   0  0  0  0  0  0  0  0  0  0  0  0
   20.3349   22.2969   21.1475 O   0  5  0  0  0  0  0  0  0  0  0  0
   18.6529   22.3729   22.4711 O   0  0  0  0  0  0  0  0  0  0  0  0
   20.4667   21.0225   23.1250 C   0  0  0  0  0  0  0  0  0  0  0  0
   20.2935   21.3847   24.1450 H   0  0  0  0  0  0  0  0  0  0  0  0
   21.5456   21.0886   22.9399 H   0  0  0  0  0  0  0  0  0  0  0  0
   19.9786   19.5927   22.9901 C   0  0  0  0  0  0  0  0  0  0  0  0
   18.9508   19.4203   23.3079 H   0  0  0  0  0  0  0  0  0  0  0  0
   20.7196   18.5878   22.5133 C   0  0  0  0  0  0  0  0  0  0  0  0
   21.7457   18.7618   22.1909 H   0  0  0  0  0  0  0  0  0  0  0  0
   20.2300   17.1634   22.3768 C   0  0  0  0  0  0  0  0  0  0  0  0
   20.9720   16.4737   22.8015 H   0  0  0  0  0  0  0  0  0  0  0  0
   19.3024   17.0193   22.9479 H   0  0  0  0  0  0  0  0  0  0  0  0
   19.9801   16.8033   20.8994 C   0  0  0  0  0  0  0  0  0  0  0  0
   20.9020   16.9011   20.3111 H   0  0  0  0  0  0  0  0  0  0  0  0
   19.6246   15.7689   20.8061 H   0  0  0  0  0  0  0  0  0  0  0  0
   19.2223   17.4652   20.4598 H   0  0  0  0  0  0  0  0  0  0  0  0
  1  2  1  0  0  0  0
  1  3  2  0  0  0  0
  1  4  1  0  0  0  0
  4  5  1  0  0  0  0
  4  6  1  0  0  0  0
  4  7  1  0  0  0  0
  7  8  1  0  0  0  0
  7  9  2  0  0  0  0
  9 10  1  0  0  0  0
  9 11  1  0  0  0  0
 11 12  1  0  0  0  0
 11 13  1  0  0  0  0
 11 14  1  0  0  0  0
 14 15  1  0  0  0  0
 14 16  1  0  0  0  0
 14 17  1  0  0  0  0
M  END
> <VConfSearch Rank>
659

> <Conf_Id>
7

> <Delta U+W>
-0.041

> <U+W>
-49.468

> <U>
14.121

> <W>
-63.589

> <W(PB)>
-65.660

> <W(SA)>
2.071

> <Valence>
15.230

> <Coulomb>
-1.333

> <VdW>
0.224

> <VdW6>
-4.212

> <VdW12>
4.436

> <Bond>
0.044

> <Angle>
2.230

> <Pdih>
12.956

> <Idih>
0.000

> <Tether>
0.000

$$$$
VeraChem MOL file


 17 16  0  0  0  0  0  0  0  0999 V2000     
   20.1007   19.4280   25.0233 C   0  0  0  0  0  0  0  0  0  0  0  0
   18.9089   19.3440   25.2462 O   0  5  0  0  0  0  0  0  0  0  0  0
   20.7993   20.3315   25.4391 O   0  0  0  0  0  0  0  0  0  0  0  0
   20.7608   18.3255   24.2009 C   0  0  0  0  0  0  0  0  0  0  0  0
   20.2290   17.3890   24.4056 H   0  0  0  0  0  0  0  0  0  0  0  0
   21.7782   18.1844   24.5840 H   0  0  0  0  0  0  0  0  0  0  0  0
   20.8100   18.5663   22.6988 C   0  0  0  0  0  0  0  0  0  0  0  0
   21.2852   17.7675   22.1309 H   0  0  0  0  0  0  0  0  0  0  0  0
   20.3309   19.6391   22.0579 C   0  0  0  0  0  0  0  0  0  0  0  0
   19.8504   20.4515   22.6018 H   0  0  0  0  0  0  0  0  0  0  0  0
   20.4067   19.8308   20.5594 C   0  0  0  0  0  0  0  0  0  0  0  0
   20.7834   20.8376   20.3334 H   0  0  0  0  0  0  0  0  0  0  0  0
   21.1184   19.1211   20.1157 H   0  0  0  0  0  0  0  0  0  0  0  0
   19.0236   19.6414   19.9065 C   0  0  0  0  0  0  0  0  0  0  0  0
   19.0842   19.7830   18.8196 H   0  0  0  0  0  0  0  0  0  0  0  0
   18.6374   18.6315   20.0977 H   0  0  0  0  0  0  0  0  0  0  0  0
   18.3003   20.3650   20.3047 H   0  0  0  0  0  0  0  0  0  0  0  0
  1  2  1  0  0  0  0
  1  3  2  0  0  0  0
  1  4  1  0  0  0  0
  4  5  1  0  0  0  0
  4  6  1  0  0  0  0
  4  7  1  0  0  0  0
  7  8  1  0  0  0  0
  7  9  2  0  0  0  0
  9 10  1  0  0  0  0
  9 11  1  0  0  0  0
 11 12  1  0  0  0  0
 11 13  1  0  0  0  0
 11 14  1  0  0  0  0
 14 15  1  0  0  0  0
 14 16  1  0  0  0  0
 14 17  1  0  0  0  0
M  END
> <VConfSearch Rank>
660

> <Conf_Id>
39

> <Delta U+W>
-0.422

> <U+W>
-49.849

> <U>
14.465

> <W>
-64.314

> <W(PB)>
-66.406

> <W(SA)>
2.093

> <Valence>
14.072

> <Coulomb>
-0.199

> <VdW>
0.592

> <VdW6>
-5.019

> <VdW12>
5.611

> <Bond>
0.085

> <Angle>
2.748

> <Pdih>
11.238

> <Idih>
0.001

> <Tether>
0.000

$$$$
VeraChem MOL file


 17 16  0  0  0  0  0  0  0  0999 V2000     
   20.7746   22.2524   21.2679 C   0  0  0  0  0  0  0  0  0  0  0  0
   21.1574   22.4229   20.1271 O   0  5  0  0  0  0  0  0  0  0  0  0
   21.2346   22.8413   22.2262 O   0  0  0  0  0  0  0  0  0  0  0  0
   19.6536   21.2494   21.5066 C   0  0  0  0  0  0  0  0  0  0  0  0
   18.9171   21.3730   20.7042 H   0  0  0  0  0  0  0  0  0  0  0  0
   19.1520   21.5125   22.4457 H   0  0  0  0  0  0  0  0  0  0  0  0
   20.1526   19.8174   21.5394 C   0  0  0  0  0  0  0  0  0  0  0  0
   20.5199   19.4310   20.5891 H   0  0  0  0  0  0  0  0  0  0  0  0
   20.1616   19.0500   22.6335 C   0  0  0  0  0  0  0  0  0  0  0  0
   19.7969   19.4379   23.5841 H   0  0  0  0  0  0  0  0  0  0  0  0
   20.6631   17.6235   22.6652 C   0  0  0  0  0  0  0  0  0  0  0  0
   21.2403   17.3988   21.7577 H   0  0  0  0  0  0  0  0  0  0  0  0
   21.3465   17.4896   23.5146 H   0  0  0  0  0  0  0  0  0  0  0  0
   19.4931   16.6276   22.7851 C   0  0  0  0  0  0  0  0  0  0  0  0
   18.8089   16.7254   21.9319 H   0  0  0  0  0  0  0  0  0  0  0  0
   19.8632   15.5944   22.8082 H   0  0  0  0  0  0  0  0  0  0  0  0
   18.9204   16.8050   23.7049 H   0  0  0  0  0  0  0  0  0  0  0  0
  1  2  1  0  0  0  0
  1  3  2  0  0  0  0
  1  4  1  0  0  0  0
  4  5  1  0  0  0  0
  4  6  1  0  0  0  0
  4  7  1  0  0  0  0
  7  8  1  0  0  0  0
  7  9  2  0  0  0  0
  9 10  1  0  0  0  0
  9 11  1  0  0  0  0
 11 12  1  0  0  0  0
 11 13  1  0  0  0  0
 11 14  1  0  0  0  0
 14 15  1  0  0  0  0
 14 16  1  0  0  0  0
 14 17  1  0  0  0  0
M  END
> <VConfSearch Rank>
661

> <Conf_Id>
38

> <Delta U+W>
0.000

> <U+W>
-49.427

> <U>
13.666

> <W>
-63.093

> <W(PB)>
-65.225

> <W(SA)>
2.132

> <Valence>
15.226

> <Coulomb>
-1.822

> <VdW>
0.261

> <VdW6>
-4.165

> <VdW12>
4.426

> <Bond>
0.044

> <Angle>
2.229

> <Pdih>
12.953

> <Idih>
0.000

> <Tether>
0.000

$$$$
VeraChem MOL file


 17 16  0  0  0  0  0  0  0  0999 V2000     
   17.6809   21.1537   22.9269 C   0  0  0  0  0  0  0  0  0  0  0  0
   16.6836   20.4784   23.0887 O   0  5  0  0  0  0  0  0  0  0  0  0
   17.6680   22.2636   22.4322 O   0  0  0  0  0  0  0  0  0  0  0  0
   19.0203   20.5819   23.3728 C   0  0  0  0  0  0  0  0  0  0  0  0
   18.8309   19.8257   24.1441 H   0  0  0  0  0  0  0  0  0  0  0  0
   19.5877   21.3901   23.8487 H   0  0  0  0  0  0  0  0  0  0  0  0
   19.8144   19.9964   22.2207 C   0  0  0  0  0  0  0  0  0  0  0  0
   20.1785   20.7198   21.4918 H   0  0  0  0  0  0  0  0  0  0  0  0
   20.0700   18.6932   22.0703 C   0  0  0  0  0  0  0  0  0  0  0  0
   19.7028   17.9701   22.7978 H   0  0  0  0  0  0  0  0  0  0  0  0
   20.8586   18.1108   20.9187 C   0  0  0  0  0  0  0  0  0  0  0  0
   20.3153   17.2570   20.4916 H   0  0  0  0  0  0  0  0  0  0  0  0
   20.9664   18.8506   20.1135 H   0  0  0  0  0  0  0  0  0  0  0  0
   22.2556   17.6519   21.3801 C   0  0  0  0  0  0  0  0  0  0  0  0
   22.1776   16.8827   22.1596 H   0  0  0  0  0  0  0  0  0  0  0  0
   22.8228   17.2296   20.5404 H   0  0  0  0  0  0  0  0  0  0  0  0
   22.8281   18.4955   21.7879 H   0  0  0  0  0  0  0  0  0  0  0  0
  1  2  1  0  0  0  0
  1  3  2  0  0  0  0
  1  4  1  0  0  0  0
  4  5  1  0  0  0  0
  4  6  1  0  0  0  0
  4  7  1  0  0  0  0
  7  8  1  0  0  0  0
  7  9  2  0  0  0  0
  9 10  1  0  0  0  0
  9 11  1  0  0  0  0
 11 12  1  0  0  0  0
 11 13  1  0  0  0  0
 11 14  1  0  0  0  0
 14 15  1  0  0  0  0
 14 16  1  0  0  0  0
 14 17  1  0  0  0  0
M  END
> <VConfSearch Rank>
662

> <Conf_Id>
35

> <Delta U+W>
-0.102

> <U+W>
-49.529

> <U>
13.666

> <W>
-63.195

> <W(PB)>
-65.299

> <W(SA)>
2.103

> <Valence>
15.226

> <Coulomb>
-1.822

> <VdW>
0.261

> <VdW6>
-4.165

> <VdW12>
4.426

> <Bond>
0.044

> <Angle>
2.229

> <Pdih>
12.953

> <Idih>
0.000

> <Tether>
0.000

$$$$
VeraChem MOL file


 17 16  0  0  0  0  0  0  0  0999 V2000     
   20.9662   20.4003   19.6618 C   0  0  0  0  0  0  0  0  0  0  0  0
   21.2331   21.5695   19.8589 O   0  5  0  0  0  0  0  0  0  0  0  0
   21.6403   19.6649   18.9678 O   0  0  0  0  0  0  0  0  0  0  0  0
   19.7130   19.8302   20.3132 C   0  0  0  0  0  0  0  0  0  0  0  0
   19.3852   18.9639   19.7261 H   0  0  0  0  0  0  0  0  0  0  0  0
   18.9229   20.5862   20.2374 H   0  0  0  0  0  0  0  0  0  0  0  0
   19.9344   19.4525   21.7657 C   0  0  0  0  0  0  0  0  0  0  0  0
   20.1082   20.2951   22.4328 H   0  0  0  0  0  0  0  0  0  0  0  0
   19.9279   18.1928   22.2194 C   0  0  0  0  0  0  0  0  0  0  0  0
   19.7548   17.3748   21.5209 H   0  0  0  0  0  0  0  0  0  0  0  0
   20.1454   17.7440   23.6546 C   0  0  0  0  0  0  0  0  0  0  0  0
   19.2725   17.1637   23.9831 H   0  0  0  0  0  0  0  0  0  0  0  0
   20.9925   17.0454   23.6850 H   0  0  0  0  0  0  0  0  0  0  0  0
   20.3991   18.8858   24.6636 C   0  0  0  0  0  0  0  0  0  0  0  0
   19.5463   19.5763   24.6999 H   0  0  0  0  0  0  0  0  0  0  0  0
   20.5471   18.4813   25.6733 H   0  0  0  0  0  0  0  0  0  0  0  0
   21.2979   19.4563   24.3949 H   0  0  0  0  0  0  0  0  0  0  0  0
  1  2  1  0  0  0  0
  1  3  2  0  0  0  0
  1  4  1  0  0  0  0
  4  5  1  0  0  0  0
  4  6  1  0  0  0  0
  4  7  1  0  0  0  0
  7  8  1  0  0  0  0
  7  9  2  0  0  0  0
  9 10  1  0  0  0  0
  9 11  1  0  0  0  0
 11 12  1  0  0  0  0
 11 13  1  0  0  0  0
 11 14  1  0  0  0  0
 14 15  1  0  0  0  0
 14 16  1  0  0  0  0
 14 17  1  0  0  0  0
M  END
> <VConfSearch Rank>
663

> <Conf_Id>
19

> <Delta U+W>
-0.496

> <U+W>
-49.923

> <U>
13.863

> <W>
-63.786

> <W(PB)>
-65.856

> <W(SA)>
2.070

> <Valence>
14.117

> <Coulomb>
-1.228

> <VdW>
0.974

> <VdW6>
-4.885

> <VdW12>
5.859

> <Bond>
0.094

> <Angle>
2.818

> <Pdih>
11.205

> <Idih>
0.000

> <Tether>
0.000

$$$$
VeraChem MOL file


 17 16  0  0  0  0  0  0  0  0999 V2000     
   20.5890   20.0074   24.9586 C   0  0  0  0  0  0  0  0  0  0  0  0
   19.8016   19.3310   25.5904 O   0  5  0  0  0  0  0  0  0  0  0  0
   21.7431   20.1856   25.2952 O   0  0  0  0  0  0  0  0  0  0  0  0
   20.1025   20.6779   23.6805 C   0  0  0  0  0  0  0  0  0  0  0  0
   20.5113   21.6947   23.6595 H   0  0  0  0  0  0  0  0  0  0  0  0
   19.0113   20.7719   23.7362 H   0  0  0  0  0  0  0  0  0  0  0  0
   20.5201   19.9227   22.4331 C   0  0  0  0  0  0  0  0  0  0  0  0
   21.5900   19.9207   22.2271 H   0  0  0  0  0  0  0  0  0  0  0  0
   19.6711   19.2849   21.6215 C   0  0  0  0  0  0  0  0  0  0  0  0
   18.6018   19.2829   21.8309 H   0  0  0  0  0  0  0  0  0  0  0  0
   20.0899   18.5299   20.3798 C   0  0  0  0  0  0  0  0  0  0  0  0
   19.4522   18.8228   19.5348 H   0  0  0  0  0  0  0  0  0  0  0  0
   21.1207   18.7892   20.1017 H   0  0  0  0  0  0  0  0  0  0  0  0
   19.9881   17.0076   20.5970 C   0  0  0  0  0  0  0  0  0  0  0  0
   18.9580   16.7145   20.8388 H   0  0  0  0  0  0  0  0  0  0  0  0
   20.2935   16.4647   19.6931 H   0  0  0  0  0  0  0  0  0  0  0  0
   20.6373   16.6876   21.4227 H   0  0  0  0  0  0  0  0  0  0  0  0
  1  2  1  0  0  0  0
  1  3  2  0  0  0  0
  1  4  1  0  0  0  0
  4  5  1  0  0  0  0
  4  6  1  0  0  0  0
  4  7  1  0  0  0  0
  7  8  1  0  0  0  0
  7  9  2  0  0  0  0
  9 10  1  0  0  0  0
  9 11  1  0  0  0  0
 11 12  1  0  0  0  0
 11 13  1  0  0  0  0
 11 14  1  0  0  0  0
 14 15  1  0  0  0  0
 14 16  1  0  0  0  0
 14 17  1  0  0  0  0
M  END
> <VConfSearch Rank>
664

> <Conf_Id>
7

> <Delta U+W>
-0.041

> <U+W>
-49.468

> <U>
14.121

> <W>
-63.589

> <W(PB)>
-65.660

> <W(SA)>
2.071

> <Valence>
15.230

> <Coulomb>
-1.333

> <VdW>
0.224

> <VdW6>
-4.212

> <VdW12>
4.436

> <Bond>
0.044

> <Angle>
2.230

> <Pdih>
12.956

> <Idih>
0.000

> <Tether>
0.000

$$$$
VeraChem MOL file


 17 16  0  0  0  0  0  0  0  0999 V2000     
   19.2961   16.9168   21.0909 C   0  0  0  0  0  0  0  0  0  0  0  0
   18.9087   17.3219   20.0126 O   0  5  0  0  0  0  0  0  0  0  0  0
   18.6137   16.2468   21.8409 O   0  0  0  0  0  0  0  0  0  0  0  0
   20.7251   17.2435   21.5138 C   0  0  0  0  0  0  0  0  0  0  0  0
   21.3408   17.2929   20.6082 H   0  0  0  0  0  0  0  0  0  0  0  0
   21.1067   16.3937   22.0917 H   0  0  0  0  0  0  0  0  0  0  0  0
   20.8959   18.5249   22.3173 C   0  0  0  0  0  0  0  0  0  0  0  0
   21.9234   18.7389   22.6089 H   0  0  0  0  0  0  0  0  0  0  0  0
   19.9184   19.3675   22.6716 C   0  0  0  0  0  0  0  0  0  0  0  0
   18.8828   19.1775   22.3921 H   0  0  0  0  0  0  0  0  0  0  0  0
   20.1418   20.6302   23.4739 C   0  0  0  0  0  0  0  0  0  0  0  0
   19.4146   20.6805   24.2955 H   0  0  0  0  0  0  0  0  0  0  0  0
   21.1388   20.6219   23.9356 H   0  0  0  0  0  0  0  0  0  0  0  0
   20.0014   21.8822   22.5863 C   0  0  0  0  0  0  0  0  0  0  0  0
   20.1631   22.7953   23.1738 H   0  0  0  0  0  0  0  0  0  0  0  0
   20.7369   21.8665   21.7711 H   0  0  0  0  0  0  0  0  0  0  0  0
   18.9991   21.9362   22.1413 H   0  0  0  0  0  0  0  0  0  0  0  0
  1  2  1  0  0  0  0
  1  3  2  0  0  0  0
  1  4  1  0  0  0  0
  4  5  1  0  0  0  0
  4  6  1  0  0  0  0
  4  7  1  0  0  0  0
  7  8  1  0  0  0  0
  7  9  2  0  0  0  0
  9 10  1  0  0  0  0
  9 11  1  0  0  0  0
 11 12  1  0  0  0  0
 11 13  1  0  0  0  0
 11 14  1  0  0  0  0
 14 15  1  0  0  0  0
 14 16  1  0  0  0  0
 14 17  1  0  0  0  0
M  END
> <VConfSearch Rank>
665

> <Conf_Id>
39

> <Delta U+W>
-0.422

> <U+W>
-49.849

> <U>
14.465

> <W>
-64.314

> <W(PB)>
-66.406

> <W(SA)>
2.093

> <Valence>
14.072

> <Coulomb>
-0.199

> <VdW>
0.592

> <VdW6>
-5.019

> <VdW12>
5.611

> <Bond>
0.085

> <Angle>
2.748

> <Pdih>
11.238

> <Idih>
0.001

> <Tether>
0.000

$$$$
VeraChem MOL file


 17 16  0  0  0  0  0  0  0  0999 V2000     
   17.6565   20.5386   23.6550 C   0  0  0  0  0  0  0  0  0  0  0  0
   17.5854   21.7518   23.6609 O   0  5  0  0  0  0  0  0  0  0  0  0
   17.3947   19.8454   24.6182 O   0  0  0  0  0  0  0  0  0  0  0  0
   18.0924   19.8513   22.3677 C   0  0  0  0  0  0  0  0  0  0  0  0
   17.6055   20.3663   21.5315 H   0  0  0  0  0  0  0  0  0  0  0  0
   17.7077   18.8244   22.3797 H   0  0  0  0  0  0  0  0  0  0  0  0
   19.5978   19.8657   22.1826 C   0  0  0  0  0  0  0  0  0  0  0  0
   20.0348   20.8473   22.0015 H   0  0  0  0  0  0  0  0  0  0  0  0
   20.3712   18.7769   22.2328 C   0  0  0  0  0  0  0  0  0  0  0  0
   19.9340   17.7960   22.4169 H   0  0  0  0  0  0  0  0  0  0  0  0
   21.8727   18.7936   22.0517 C   0  0  0  0  0  0  0  0  0  0  0  0
   22.2578   19.8196   22.1302 H   0  0  0  0  0  0  0  0  0  0  0  0
   22.3494   18.2157   22.8550 H   0  0  0  0  0  0  0  0  0  0  0  0
   22.2725   18.2018   20.6861 C   0  0  0  0  0  0  0  0  0  0  0  0
   21.8276   18.7799   19.8654 H   0  0  0  0  0  0  0  0  0  0  0  0
   23.3630   18.2161   20.5608 H   0  0  0  0  0  0  0  0  0  0  0  0
   21.9327   17.1617   20.5953 H   0  0  0  0  0  0  0  0  0  0  0  0
  1  2  1  0  0  0  0
  1  3  2  0  0  0  0
  1  4  1  0  0  0  0
  4  5  1  0  0  0  0
  4  6  1  0  0  0  0
  4  7  1  0  0  0  0
  7  8  1  0  0  0  0
  7  9  2  0  0  0  0
  9 10  1  0  0  0  0
  9 11  1  0  0  0  0
 11 12  1  0  0  0  0
 11 13  1  0  0  0  0
 11 14  1  0  0  0  0
 14 15  1  0  0  0  0
 14 16  1  0  0  0  0
 14 17  1  0  0  0  0
M  END
> <VConfSearch Rank>
666

> <Conf_Id>
38

> <Delta U+W>
0.000

> <U+W>
-49.427

> <U>
13.666

> <W>
-63.093

> <W(PB)>
-65.225

> <W(SA)>
2.132

> <Valence>
15.226

> <Coulomb>
-1.822

> <VdW>
0.261

> <VdW6>
-4.165

> <VdW12>
4.426

> <Bond>
0.044

> <Angle>
2.229

> <Pdih>
12.953

> <Idih>
0.000

> <Tether>
0.000

$$$$
VeraChem MOL file


 17 16  0  0  0  0  0  0  0  0999 V2000     
   20.0904   16.1294   22.5147 C   0  0  0  0  0  0  0  0  0  0  0  0
   20.7587   15.6152   21.6396 O   0  5  0  0  0  0  0  0  0  0  0  0
   19.0708   15.6385   22.9578 O   0  0  0  0  0  0  0  0  0  0  0  0
   20.5573   17.4589   23.0929 C   0  0  0  0  0  0  0  0  0  0  0  0
   21.6375   17.5458   22.9247 H   0  0  0  0  0  0  0  0  0  0  0  0
   20.4034   17.4248   24.1777 H   0  0  0  0  0  0  0  0  0  0  0  0
   19.8176   18.6424   22.4989 C   0  0  0  0  0  0  0  0  0  0  0  0
   18.7622   18.7104   22.7610 H   0  0  0  0  0  0  0  0  0  0  0  0
   20.3804   19.5579   21.7043 C   0  0  0  0  0  0  0  0  0  0  0  0
   21.4350   19.4875   21.4401 H   0  0  0  0  0  0  0  0  0  0  0  0
   19.6403   20.7352   21.1097 C   0  0  0  0  0  0  0  0  0  0  0  0
   19.8555   20.8037   20.0347 H   0  0  0  0  0  0  0  0  0  0  0  0
   18.5548   20.5951   21.2056 H   0  0  0  0  0  0  0  0  0  0  0  0
   20.0477   22.0514   21.8001 C   0  0  0  0  0  0  0  0  0  0  0  0
   21.1239   22.2365   21.6867 H   0  0  0  0  0  0  0  0  0  0  0  0
   19.5080   22.9021   21.3639 H   0  0  0  0  0  0  0  0  0  0  0  0
   19.8179   22.0162   22.8732 H   0  0  0  0  0  0  0  0  0  0  0  0
  1  2  1  0  0  0  0
  1  3  2  0  0  0  0
  1  4  1  0  0  0  0
  4  5  1  0  0  0  0
  4  6  1  0  0  0  0
  4  7  1  0  0  0  0
  7  8  1  0  0  0  0
  7  9  2  0  0  0  0
  9 10  1  0  0  0  0
  9 11  1  0  0  0  0
 11 12  1  0  0  0  0
 11 13  1  0  0  0  0
 11 14  1  0  0  0  0
 14 15  1  0  0  0  0
 14 16  1  0  0  0  0
 14 17  1  0  0  0  0
M  END
> <VConfSearch Rank>
667

> <Conf_Id>
35

> <Delta U+W>
-0.102

> <U+W>
-49.529

> <U>
13.666

> <W>
-63.195

> <W(PB)>
-65.299

> <W(SA)>
2.103

> <Valence>
15.226

> <Coulomb>
-1.822

> <VdW>
0.261

> <VdW6>
-4.165

> <VdW12>
4.426

> <Bond>
0.044

> <Angle>
2.229

> <Pdih>
12.953

> <Idih>
0.000

> <Tether>
0.000

$$$$
VeraChem MOL file


 17 16  0  0  0  0  0  0  0  0999 V2000     
   22.6513   20.4116   21.1616 C   0  0  0  0  0  0  0  0  0  0  0  0
   23.6017   20.1441   21.8702 O   0  5  0  0  0  0  0  0  0  0  0  0
   22.6876   20.3772   19.9474 O   0  0  0  0  0  0  0  0  0  0  0  0
   21.3474   20.8212   21.8337 C   0  0  0  0  0  0  0  0  0  0  0  0
   20.7677   21.4204   21.1212 H   0  0  0  0  0  0  0  0  0  0  0  0
   21.5965   21.4773   22.6758 H   0  0  0  0  0  0  0  0  0  0  0  0
   20.5465   19.6290   22.3221 C   0  0  0  0  0  0  0  0  0  0  0  0
   21.0019   19.0826   23.1463 H   0  0  0  0  0  0  0  0  0  0  0  0
   19.3739   19.2512   21.7977 C   0  0  0  0  0  0  0  0  0  0  0  0
   18.9511   19.8203   20.9704 H   0  0  0  0  0  0  0  0  0  0  0  0
   18.5232   18.0701   22.2335 C   0  0  0  0  0  0  0  0  0  0  0  0
   17.5254   18.4334   22.5143 H   0  0  0  0  0  0  0  0  0  0  0  0
   18.3644   17.4081   21.3715 H   0  0  0  0  0  0  0  0  0  0  0  0
   19.1047   17.2434   23.4016 C   0  0  0  0  0  0  0  0  0  0  0  0
   19.2265   17.8625   24.3001 H   0  0  0  0  0  0  0  0  0  0  0  0
   18.4350   16.4114   23.6551 H   0  0  0  0  0  0  0  0  0  0  0  0
   20.0819   16.8193   23.1358 H   0  0  0  0  0  0  0  0  0  0  0  0
  1  2  1  0  0  0  0
  1  3  2  0  0  0  0
  1  4  1  0  0  0  0
  4  5  1  0  0  0  0
  4  6  1  0  0  0  0
  4  7  1  0  0  0  0
  7  8  1  0  0  0  0
  7  9  2  0  0  0  0
  9 10  1  0  0  0  0
  9 11  1  0  0  0  0
 11 12  1  0  0  0  0
 11 13  1  0  0  0  0
 11 14  1  0  0  0  0
 14 15  1  0  0  0  0
 14 16  1  0  0  0  0
 14 17  1  0  0  0  0
M  END
> <VConfSearch Rank>
668

> <Conf_Id>
19

> <Delta U+W>
-0.496

> <U+W>
-49.923

> <U>
13.863

> <W>
-63.786

> <W(PB)>
-65.856

> <W(SA)>
2.070

> <Valence>
14.117

> <Coulomb>
-1.228

> <VdW>
0.974

> <VdW6>
-4.885

> <VdW12>
5.859

> <Bond>
0.094

> <Angle>
2.818

> <Pdih>
11.205

> <Idih>
0.000

> <Tether>
0.000

$$$$
VeraChem MOL file


 17 16  0  0  0  0  0  0  0  0999 V2000     
   19.3133   21.1627   24.0837 C   0  0  0  0  0  0  0  0  0  0  0  0
   18.1422   20.8924   24.2635 O   0  5  0  0  0  0  0  0  0  0  0  0
   20.0867   21.4306   24.9821 O   0  0  0  0  0  0  0  0  0  0  0  0
   19.8401   21.1778   22.6547 C   0  0  0  0  0  0  0  0  0  0  0  0
   20.4961   22.0495   22.5491 H   0  0  0  0  0  0  0  0  0  0  0  0
   18.9911   21.3311   21.9776 H   0  0  0  0  0  0  0  0  0  0  0  0
   20.5959   19.9112   22.3008 C   0  0  0  0  0  0  0  0  0  0  0  0
   21.5389   19.7698   22.8280 H   0  0  0  0  0  0  0  0  0  0  0  0
   20.1686   19.0032   21.4181 C   0  0  0  0  0  0  0  0  0  0  0  0
   19.2230   19.1426   20.8951 H   0  0  0  0  0  0  0  0  0  0  0  0
   20.9223   17.7394   21.0689 C   0  0  0  0  0  0  0  0  0  0  0  0
   20.9764   17.6293   19.9773 H   0  0  0  0  0  0  0  0  0  0  0  0
   21.9578   17.7967   21.4318 H   0  0  0  0  0  0  0  0  0  0  0  0
   20.2369   16.5003   21.6770 C   0  0  0  0  0  0  0  0  0  0  0  0
   19.2107   16.3962   21.3007 H   0  0  0  0  0  0  0  0  0  0  0  0
   20.7882   15.5862   21.4210 H   0  0  0  0  0  0  0  0  0  0  0  0
   20.1935   16.5770   22.7715 H   0  0  0  0  0  0  0  0  0  0  0  0
  1  2  1  0  0  0  0
  1  3  2  0  0  0  0
  1  4  1  0  0  0  0
  4  5  1  0  0  0  0
  4  6  1  0  0  0  0
  4  7  1  0  0  0  0
  7  8  1  0  0  0  0
  7  9  2  0  0  0  0
  9 10  1  0  0  0  0
  9 11  1  0  0  0  0
 11 12  1  0  0  0  0
 11 13  1  0  0  0  0
 11 14  1  0  0  0  0
 14 15  1  0  0  0  0
 14 16  1  0  0  0  0
 14 17  1  0  0  0  0
M  END
> <VConfSearch Rank>
669

> <Conf_Id>
7

> <Delta U+W>
-0.041

> <U+W>
-49.468

> <U>
14.121

> <W>
-63.589

> <W(PB)>
-65.660

> <W(SA)>
2.071

> <Valence>
15.230

> <Coulomb>
-1.333

> <VdW>
0.224

> <VdW6>
-4.212

> <VdW12>
4.436

> <Bond>
0.044

> <Angle>
2.230

> <Pdih>
12.956

> <Idih>
0.000

> <Tether>
0.000

$$$$
VeraChem MOL file


 17 16  0  0  0  0  0  0  0  0999 V2000     
   22.4740   20.6465   21.7713 C   0  0  0  0  0  0  0  0  0  0  0  0
   23.0662   20.4762   22.8188 O   0  5  0  0  0  0  0  0  0  0  0  0
   22.2697   21.7419   21.2860 O   0  0  0  0  0  0  0  0  0  0  0  0
   21.9848   19.4178   21.0106 C   0  0  0  0  0  0  0  0  0  0  0  0
   22.6897   18.6005   21.2029 H   0  0  0  0  0  0  0  0  0  0  0  0
   22.0600   19.6347   19.9387 H   0  0  0  0  0  0  0  0  0  0  0  0
   20.5711   18.9603   21.3407 C   0  0  0  0  0  0  0  0  0  0  0  0
   20.2420   18.0821   20.7866 H   0  0  0  0  0  0  0  0  0  0  0  0
   19.7448   19.5335   22.2238 C   0  0  0  0  0  0  0  0  0  0  0  0
   20.0495   20.4119   22.7916 H   0  0  0  0  0  0  0  0  0  0  0  0
   18.3452   19.0391   22.5145 C   0  0  0  0  0  0  0  0  0  0  0  0
   17.6421   19.8827   22.4917 H   0  0  0  0  0  0  0  0  0  0  0  0
   18.0167   18.3341   21.7384 H   0  0  0  0  0  0  0  0  0  0  0  0
   18.2763   18.3500   23.8913 C   0  0  0  0  0  0  0  0  0  0  0  0
   17.2584   17.9946   24.0976 H   0  0  0  0  0  0  0  0  0  0  0  0
   18.9533   17.4864   23.9292 H   0  0  0  0  0  0  0  0  0  0  0  0
   18.5635   19.0447   24.6915 H   0  0  0  0  0  0  0  0  0  0  0  0
  1  2  1  0  0  0  0
  1  3  2  0  0  0  0
  1  4  1  0  0  0  0
  4  5  1  0  0  0  0
  4  6  1  0  0  0  0
  4  7  1  0  0  0  0
  7  8  1  0  0  0  0
  7  9  2  0  0  0  0
  9 10  1  0  0  0  0
  9 11  1  0  0  0  0
 11 12  1  0  0  0  0
 11 13  1  0  0  0  0
 11 14  1  0  0  0  0
 14 15  1  0  0  0  0
 14 16  1  0  0  0  0
 14 17  1  0  0  0  0
M  END
> <VConfSearch Rank>
670

> <Conf_Id>
39

> <Delta U+W>
-0.422

> <U+W>
-49.849

> <U>
14.465

> <W>
-64.314

> <W(PB)>
-66.406

> <W(SA)>
2.093

> <Valence>
14.072

> <Coulomb>
-0.199

> <VdW>
0.592

> <VdW6>
-5.019

> <VdW12>
5.611

> <Bond>
0.085

> <Angle>
2.748

> <Pdih>
11.238

> <Idih>
0.001

> <Tether>
0.000

$$$$
VeraChem MOL file


 17 16  0  0  0  0  0  0  0  0999 V2000     
   21.3904   17.5386   19.7892 C   0  0  0  0  0  0  0  0  0  0  0  0
   21.1739   16.3432   19.8230 O   0  5  0  0  0  0  0  0  0  0  0  0
   22.4631   18.0187   19.4798 O   0  0  0  0  0  0  0  0  0  0  0  0
   20.2525   18.4847   20.1492 C   0  0  0  0  0  0  0  0  0  0  0  0
   19.3341   18.0908   19.6987 H   0  0  0  0  0  0  0  0  0  0  0  0
   20.4507   19.4547   19.6775 H   0  0  0  0  0  0  0  0  0  0  0  0
   20.0745   18.6353   21.6479 C   0  0  0  0  0  0  0  0  0  0  0  0
   19.7187   17.7451   22.1658 H   0  0  0  0  0  0  0  0  0  0  0  0
   20.3265   19.7597   22.3251 C   0  0  0  0  0  0  0  0  0  0  0  0
   20.6851   20.6486   21.8071 H   0  0  0  0  0  0  0  0  0  0  0  0
   20.1520   19.9068   23.8201 C   0  0  0  0  0  0  0  0  0  0  0  0
   20.0430   18.9212   24.2933 H   0  0  0  0  0  0  0  0  0  0  0  0
   21.0495   20.3675   24.2546 H   0  0  0  0  0  0  0  0  0  0  0  0
   18.9195   20.7707   24.1515 C   0  0  0  0  0  0  0  0  0  0  0  0
   18.0049   20.3159   23.7486 H   0  0  0  0  0  0  0  0  0  0  0  0
   18.7984   20.8744   25.2376 H   0  0  0  0  0  0  0  0  0  0  0  0
   19.0191   21.7763   23.7223 H   0  0  0  0  0  0  0  0  0  0  0  0
  1  2  1  0  0  0  0
  1  3  2  0  0  0  0
  1  4  1  0  0  0  0
  4  5  1  0  0  0  0
  4  6  1  0  0  0  0
  4  7  1  0  0  0  0
  7  8  1  0  0  0  0
  7  9  2  0  0  0  0
  9 10  1  0  0  0  0
  9 11  1  0  0  0  0
 11 12  1  0  0  0  0
 11 13  1  0  0  0  0
 11 14  1  0  0  0  0
 14 15  1  0  0  0  0
 14 16  1  0  0  0  0
 14 17  1  0  0  0  0
M  END
> <VConfSearch Rank>
671

> <Conf_Id>
38

> <Delta U+W>
0.000

> <U+W>
-49.427

> <U>
13.666

> <W>
-63.093

> <W(PB)>
-65.225

> <W(SA)>
2.132

> <Valence>
15.226

> <Coulomb>
-1.822

> <VdW>
0.261

> <VdW6>
-4.165

> <VdW12>
4.426

> <Bond>
0.044

> <Angle>
2.229

> <Pdih>
12.953

> <Idih>
0.000

> <Tether>
0.000

$$$$
VeraChem MOL file


 17 16  0  0  0  0  0  0  0  0999 V2000     
   21.7749   21.6742   20.9334 C   0  0  0  0  0  0  0  0  0  0  0  0
   21.2701   22.0442   19.8917 O   0  5  0  0  0  0  0  0  0  0  0  0
   22.9748   21.6383   21.1232 O   0  0  0  0  0  0  0  0  0  0  0  0
   20.8555   21.2365   22.0660 C   0  0  0  0  0  0  0  0  0  0  0  0
   19.8777   21.7101   21.9167 H   0  0  0  0  0  0  0  0  0  0  0  0
   21.2646   21.6339   23.0021 H   0  0  0  0  0  0  0  0  0  0  0  0
   20.7212   19.7283   22.1552 C   0  0  0  0  0  0  0  0  0  0  0  0
   21.6228   19.1983   22.4608 H   0  0  0  0  0  0  0  0  0  0  0  0
   19.5976   19.0570   21.8846 C   0  0  0  0  0  0  0  0  0  0  0  0
   18.6973   19.5873   21.5759 H   0  0  0  0  0  0  0  0  0  0  0  0
   19.4666   17.5527   21.9702 C   0  0  0  0  0  0  0  0  0  0  0  0
   18.9917   17.1694   21.0569 H   0  0  0  0  0  0  0  0  0  0  0  0
   20.4582   17.0834   22.0308 H   0  0  0  0  0  0  0  0  0  0  0  0
   18.6305   17.1385   23.1967 C   0  0  0  0  0  0  0  0  0  0  0  0
   17.6195   17.5634   23.1432 H   0  0  0  0  0  0  0  0  0  0  0  0
   18.5383   16.0461   23.2531 H   0  0  0  0  0  0  0  0  0  0  0  0
   19.1001   17.4892   24.1252 H   0  0  0  0  0  0  0  0  0  0  0  0
  1  2  1  0  0  0  0
  1  3  2  0  0  0  0
  1  4  1  0  0  0  0
  4  5  1  0  0  0  0
  4  6  1  0  0  0  0
  4  7  1  0  0  0  0
  7  8  1  0  0  0  0
  7  9  2  0  0  0  0
  9 10  1  0  0  0  0
  9 11  1  0  0  0  0
 11 12  1  0  0  0  0
 11 13  1  0  0  0  0
 11 14  1  0  0  0  0
 14 15  1  0  0  0  0
 14 16  1  0  0  0  0
 14 17  1  0  0  0  0
M  END
> <VConfSearch Rank>
672

> <Conf_Id>
35

> <Delta U+W>
-0.102

> <U+W>
-49.529

> <U>
13.666

> <W>
-63.195

> <W(PB)>
-65.299

> <W(SA)>
2.103

> <Valence>
15.226

> <Coulomb>
-1.822

> <VdW>
0.261

> <VdW6>
-4.165

> <VdW12>
4.426

> <Bond>
0.044

> <Angle>
2.229

> <Pdih>
12.953

> <Idih>
0.000

> <Tether>
0.000

$$$$
VeraChem MOL file


 17 16  0  0  0  0  0  0  0  0999 V2000     
   17.7564   20.3902   21.2257 C   0  0  0  0  0  0  0  0  0  0  0  0
   18.0273   21.1891   20.3509 O   0  5  0  0  0  0  0  0  0  0  0  0
   16.8401   19.5955   21.1498 O   0  0  0  0  0  0  0  0  0  0  0  0
   18.6069   20.3932   22.4892 C   0  0  0  0  0  0  0  0  0  0  0  0
   18.0110   19.9662   23.3047 H   0  0  0  0  0  0  0  0  0  0  0  0
   18.8099   21.4374   22.7535 H   0  0  0  0  0  0  0  0  0  0  0  0
   19.9107   19.6379   22.3130 C   0  0  0  0  0  0  0  0  0  0  0  0
   20.6167   20.1040   21.6280 H   0  0  0  0  0  0  0  0  0  0  0  0
   20.1961   18.4856   22.9324 C   0  0  0  0  0  0  0  0  0  0  0  0
   19.4625   18.0467   23.6079 H   0  0  0  0  0  0  0  0  0  0  0  0
   21.4755   17.6767   22.7999 C   0  0  0  0  0  0  0  0  0  0  0  0
   21.9247   17.5541   23.7947 H   0  0  0  0  0  0  0  0  0  0  0  0
   21.2223   16.6622   22.4634 H   0  0  0  0  0  0  0  0  0  0  0  0
   22.5293   18.2755   21.8423 C   0  0  0  0  0  0  0  0  0  0  0  0
   22.8471   19.2710   22.1790 H   0  0  0  0  0  0  0  0  0  0  0  0
   23.4197   17.6347   21.8008 H   0  0  0  0  0  0  0  0  0  0  0  0
   22.1306   18.3634   20.8231 H   0  0  0  0  0  0  0  0  0  0  0  0
  1  2  1  0  0  0  0
  1  3  2  0  0  0  0
  1  4  1  0  0  0  0
  4  5  1  0  0  0  0
  4  6  1  0  0  0  0
  4  7  1  0  0  0  0
  7  8  1  0  0  0  0
  7  9  2  0  0  0  0
  9 10  1  0  0  0  0
  9 11  1  0  0  0  0
 11 12  1  0  0  0  0
 11 13  1  0  0  0  0
 11 14  1  0  0  0  0
 14 15  1  0  0  0  0
 14 16  1  0  0  0  0
 14 17  1  0  0  0  0
M  END
> <VConfSearch Rank>
673

> <Conf_Id>
19

> <Delta U+W>
-0.496

> <U+W>
-49.923

> <U>
13.863

> <W>
-63.786

> <W(PB)>
-65.856

> <W(SA)>
2.070

> <Valence>
14.117

> <Coulomb>
-1.228

> <VdW>
0.974

> <VdW6>
-4.885

> <VdW12>
5.859

> <Bond>
0.094

> <Angle>
2.818

> <Pdih>
11.205

> <Idih>
0.000

> <Tether>
0.000

$$$$
VeraChem MOL file


 17 16  0  0  0  0  0  0  0  0999 V2000     
   20.3167   17.0622   20.0705 C   0  0  0  0  0  0  0  0  0  0  0  0
   19.1882   16.6117   20.0539 O   0  5  0  0  0  0  0  0  0  0  0  0
   20.9256   17.3863   19.0699 O   0  0  0  0  0  0  0  0  0  0  0  0
   21.0118   17.2202   21.4165 C   0  0  0  0  0  0  0  0  0  0  0  0
   22.0509   16.8924   21.2970 H   0  0  0  0  0  0  0  0  0  0  0  0
   20.5388   16.5344   22.1296 H   0  0  0  0  0  0  0  0  0  0  0  0
   20.9715   18.6480   21.9269 C   0  0  0  0  0  0  0  0  0  0  0  0
   21.5545   19.3649   21.3495 H   0  0  0  0  0  0  0  0  0  0  0  0
   20.2776   19.0433   22.9986 C   0  0  0  0  0  0  0  0  0  0  0  0
   19.6907   18.3270   23.5726 H   0  0  0  0  0  0  0  0  0  0  0  0
   20.2365   20.4681   23.5042 C   0  0  0  0  0  0  0  0  0  0  0  0
   20.4184   20.4828   24.5874 H   0  0  0  0  0  0  0  0  0  0  0  0
   21.0361   21.0633   23.0420 H   0  0  0  0  0  0  0  0  0  0  0  0
   18.8744   21.1230   23.2029 C   0  0  0  0  0  0  0  0  0  0  0  0
   18.0584   20.5698   23.6860 H   0  0  0  0  0  0  0  0  0  0  0  0
   18.8501   22.1568   23.5715 H   0  0  0  0  0  0  0  0  0  0  0  0
   18.6817   21.1418   22.1221 H   0  0  0  0  0  0  0  0  0  0  0  0
  1  2  1  0  0  0  0
  1  3  2  0  0  0  0
  1  4  1  0  0  0  0
  4  5  1  0  0  0  0
  4  6  1  0  0  0  0
  4  7  1  0  0  0  0
  7  8  1  0  0  0  0
  7  9  2  0  0  0  0
  9 10  1  0  0  0  0
  9 11  1  0  0  0  0
 11 12  1  0  0  0  0
 11 13  1  0  0  0  0
 11 14  1  0  0  0  0
 14 15  1  0  0  0  0
 14 16  1  0  0  0  0
 14 17  1  0  0  0  0
M  END
> <VConfSearch Rank>
674

> <Conf_Id>
7

> <Delta U+W>
-0.041

> <U+W>
-49.468

> <U>
14.121

> <W>
-63.589

> <W(PB)>
-65.660

> <W(SA)>
2.071

> <Valence>
15.230

> <Coulomb>
-1.333

> <VdW>
0.224

> <VdW6>
-4.212

> <VdW12>
4.436

> <Bond>
0.044

> <Angle>
2.230

> <Pdih>
12.956

> <Idih>
0.000

> <Tether>
0.000

$$$$
VeraChem MOL file


 17 16  0  0  0  0  0  0  0  0999 V2000     
   19.0746   21.8122   22.5206 C   0  0  0  0  0  0  0  0  0  0  0  0
   20.0683   22.4921   22.3554 O   0  5  0  0  0  0  0  0  0  0  0  0
   18.3467   21.9113   23.4888 O   0  0  0  0  0  0  0  0  0  0  0  0
   18.7056   20.7990   21.4413 C   0  0  0  0  0  0  0  0  0  0  0  0
   19.0319   21.2025   20.4756 H   0  0  0  0  0  0  0  0  0  0  0  0
   17.6118   20.7451   21.3913 H   0  0  0  0  0  0  0  0  0  0  0  0
   19.2773   19.4009   21.6294 C   0  0  0  0  0  0  0  0  0  0  0  0
   19.0015   18.6938   20.8481 H   0  0  0  0  0  0  0  0  0  0  0  0
   20.0595   19.0001   22.6386 C   0  0  0  0  0  0  0  0  0  0  0  0
   20.3507   19.6873   23.4321 H   0  0  0  0  0  0  0  0  0  0  0  0
   20.6014   17.5950   22.7800 C   0  0  0  0  0  0  0  0  0  0  0  0
   20.4311   17.2336   23.8032 H   0  0  0  0  0  0  0  0  0  0  0  0
   20.0676   16.9071   22.1100 H   0  0  0  0  0  0  0  0  0  0  0  0
   22.1088   17.5486   22.4630 C   0  0  0  0  0  0  0  0  0  0  0  0
   22.4969   16.5271   22.5685 H   0  0  0  0  0  0  0  0  0  0  0  0
   22.3013   17.8819   21.4347 H   0  0  0  0  0  0  0  0  0  0  0  0
   22.6724   18.1994   23.1443 H   0  0  0  0  0  0  0  0  0  0  0  0
  1  2  1  0  0  0  0
  1  3  2  0  0  0  0
  1  4  1  0  0  0  0
  4  5  1  0  0  0  0
  4  6  1  0  0  0  0
  4  7  1  0  0  0  0
  7  8  1  0  0  0  0
  7  9  2  0  0  0  0
  9 10  1  0  0  0  0
  9 11  1  0  0  0  0
 11 12  1  0  0  0  0
 11 13  1  0  0  0  0
 11 14  1  0  0  0  0
 14 15  1  0  0  0  0
 14 16  1  0  0  0  0
 14 17  1  0  0  0  0
M  END
> <VConfSearch Rank>
675

> <Conf_Id>
39

> <Delta U+W>
-0.422

> <U+W>
-49.849

> <U>
14.465

> <W>
-64.314

> <W(PB)>
-66.406

> <W(SA)>
2.093

> <Valence>
14.072

> <Coulomb>
-0.199

> <VdW>
0.592

> <VdW6>
-5.019

> <VdW12>
5.611

> <Bond>
0.085

> <Angle>
2.748

> <Pdih>
11.238

> <Idih>
0.001

> <Tether>
0.000

$$$$
VeraChem MOL file


 17 16  0  0  0  0  0  0  0  0999 V2000     
   21.2077   22.2020   21.6208 C   0  0  0  0  0  0  0  0  0  0  0  0
   22.1620   22.5419   22.2922 O   0  5  0  0  0  0  0  0  0  0  0  0
   20.2768   22.9369   21.3555 O   0  0  0  0  0  0  0  0  0  0  0  0
   21.1815   20.7789   21.0788 C   0  0  0  0  0  0  0  0  0  0  0  0
   22.1941   20.5309   20.7400 H   0  0  0  0  0  0  0  0  0  0  0  0
   20.5338   20.7605   20.1941 H   0  0  0  0  0  0  0  0  0  0  0  0
   20.7172   19.7718   22.1136 C   0  0  0  0  0  0  0  0  0  0  0  0
   21.3979   19.6171   22.9502 H   0  0  0  0  0  0  0  0  0  0  0  0
   19.5628   19.1019   22.0446 C   0  0  0  0  0  0  0  0  0  0  0  0
   18.8812   19.2592   21.2093 H   0  0  0  0  0  0  0  0  0  0  0  0
   19.0997   18.1008   23.0793 C   0  0  0  0  0  0  0  0  0  0  0  0
   19.6997   18.1894   23.9954 H   0  0  0  0  0  0  0  0  0  0  0  0
   18.0598   18.3137   23.3618 H   0  0  0  0  0  0  0  0  0  0  0  0
   19.2010   16.6604   22.5406 C   0  0  0  0  0  0  0  0  0  0  0  0
   20.2379   16.4155   22.2751 H   0  0  0  0  0  0  0  0  0  0  0  0
   18.8631   15.9386   23.2955 H   0  0  0  0  0  0  0  0  0  0  0  0
   18.5793   16.5326   21.6447 H   0  0  0  0  0  0  0  0  0  0  0  0
  1  2  1  0  0  0  0
  1  3  2  0  0  0  0
  1  4  1  0  0  0  0
  4  5  1  0  0  0  0
  4  6  1  0  0  0  0
  4  7  1  0  0  0  0
  7  8  1  0  0  0  0
  7  9  2  0  0  0  0
  9 10  1  0  0  0  0
  9 11  1  0  0  0  0
 11 12  1  0  0  0  0
 11 13  1  0  0  0  0
 11 14  1  0  0  0  0
 14 15  1  0  0  0  0
 14 16  1  0  0  0  0
 14 17  1  0  0  0  0
M  END
> <VConfSearch Rank>
676

> <Conf_Id>
38

> <Delta U+W>
0.000

> <U+W>
-49.427

> <U>
13.666

> <W>
-63.093

> <W(PB)>
-65.225

> <W(SA)>
2.132

> <Valence>
15.226

> <Coulomb>
-1.822

> <VdW>
0.261

> <VdW6>
-4.165

> <VdW12>
4.426

> <Bond>
0.044

> <Angle>
2.229

> <Pdih>
12.953

> <Idih>
0.000

> <Tether>
0.000

$$$$
VeraChem MOL file


 17 16  0  0  0  0  0  0  0  0999 V2000     
   19.4525   19.4319   25.2016 C   0  0  0  0  0  0  0  0  0  0  0  0
   20.2416   20.1908   25.7290 O   0  5  0  0  0  0  0  0  0  0  0  0
   19.0448   18.4146   25.7268 O   0  0  0  0  0  0  0  0  0  0  0  0
   18.9413   19.7752   23.8086 C   0  0  0  0  0  0  0  0  0  0  0  0
   19.0423   20.8575   23.6631 H   0  0  0  0  0  0  0  0  0  0  0  0
   17.8697   19.5465   23.7793 H   0  0  0  0  0  0  0  0  0  0  0  0
   19.6671   19.0100   22.7185 C   0  0  0  0  0  0  0  0  0  0  0  0
   19.4821   17.9364   22.7018 H   0  0  0  0  0  0  0  0  0  0  0  0
   20.4858   19.5720   21.8240 C   0  0  0  0  0  0  0  0  0  0  0  0
   20.6729   20.6452   21.8432 H   0  0  0  0  0  0  0  0  0  0  0  0
   21.2119   18.8069   20.7402 C   0  0  0  0  0  0  0  0  0  0  0  0
   22.2721   19.0939   20.7305 H   0  0  0  0  0  0  0  0  0  0  0  0
   21.1793   17.7277   20.9439 H   0  0  0  0  0  0  0  0  0  0  0  0
   20.5920   19.0837   19.3566 C   0  0  0  0  0  0  0  0  0  0  0  0
   20.6458   20.1522   19.1100 H   0  0  0  0  0  0  0  0  0  0  0  0
   21.1234   18.5264   18.5743 H   0  0  0  0  0  0  0  0  0  0  0  0
   19.5370   18.7802   19.3343 H   0  0  0  0  0  0  0  0  0  0  0  0
  1  2  1  0  0  0  0
  1  3  2  0  0  0  0
  1  4  1  0  0  0  0
  4  5  1  0  0  0  0
  4  6  1  0  0  0  0
  4  7  1  0  0  0  0
  7  8  1  0  0  0  0
  7  9  2  0  0  0  0
  9 10  1  0  0  0  0
  9 11  1  0  0  0  0
 11 12  1  0  0  0  0
 11 13  1  0  0  0  0
 11 14  1  0  0  0  0
 14 15  1  0  0  0  0
 14 16  1  0  0  0  0
 14 17  1  0  0  0  0
M  END
> <VConfSearch Rank>
677

> <Conf_Id>
35

> <Delta U+W>
-0.102

> <U+W>
-49.529

> <U>
13.666

> <W>
-63.195

> <W(PB)>
-65.299

> <W(SA)>
2.103

> <Valence>
15.226

> <Coulomb>
-1.822

> <VdW>
0.261

> <VdW6>
-4.165

> <VdW12>
4.426

> <Bond>
0.044

> <Angle>
2.229

> <Pdih>
12.953

> <Idih>
0.000

> <Tether>
0.000

$$$$
VeraChem MOL file


 17 16  0  0  0  0  0  0  0  0999 V2000     
   20.6018   16.2410   21.5756 C   0  0  0  0  0  0  0  0  0  0  0  0
   21.7834   16.0065   21.4153 O   0  5  0  0  0  0  0  0  0  0  0  0
   19.8612   15.5399   22.2367 O   0  0  0  0  0  0  0  0  0  0  0  0
   20.0171   17.4761   20.9029 C   0  0  0  0  0  0  0  0  0  0  0  0
   18.9394   17.3189   20.7747 H   0  0  0  0  0  0  0  0  0  0  0  0
   20.4520   17.5481   19.8994 H   0  0  0  0  0  0  0  0  0  0  0  0
   20.2940   18.7476   21.6827 C   0  0  0  0  0  0  0  0  0  0  0  0
   21.3409   19.0447   21.7103 H   0  0  0  0  0  0  0  0  0  0  0  0
   19.3483   19.4648   22.3023 C   0  0  0  0  0  0  0  0  0  0  0  0
   18.3113   19.1337   22.2564 H   0  0  0  0  0  0  0  0  0  0  0  0
   19.5544   20.7408   23.1010 C   0  0  0  0  0  0  0  0  0  0  0  0
   18.9370   21.5380   22.6653 H   0  0  0  0  0  0  0  0  0  0  0  0
   19.1679   20.5909   24.1182 H   0  0  0  0  0  0  0  0  0  0  0  0
   21.0179   21.2276   23.1861 C   0  0  0  0  0  0  0  0  0  0  0  0
   21.4212   21.4402   22.1873 H   0  0  0  0  0  0  0  0  0  0  0  0
   21.0829   22.1498   23.7779 H   0  0  0  0  0  0  0  0  0  0  0  0
   21.6562   20.4743   23.6663 H   0  0  0  0  0  0  0  0  0  0  0  0
  1  2  1  0  0  0  0
  1  3  2  0  0  0  0
  1  4  1  0  0  0  0
  4  5  1  0  0  0  0
  4  6  1  0  0  0  0
  4  7  1  0  0  0  0
  7  8  1  0  0  0  0
  7  9  2  0  0  0  0
  9 10  1  0  0  0  0
  9 11  1  0  0  0  0
 11 12  1  0  0  0  0
 11 13  1  0  0  0  0
 11 14  1  0  0  0  0
 14 15  1  0  0  0  0
 14 16  1  0  0  0  0
 14 17  1  0  0  0  0
M  END
> <VConfSearch Rank>
678

> <Conf_Id>
19

> <Delta U+W>
-0.496

> <U+W>
-49.923

> <U>
13.863

> <W>
-63.786

> <W(PB)>
-65.856

> <W(SA)>
2.070

> <Valence>
14.117

> <Coulomb>
-1.228

> <VdW>
0.974

> <VdW6>
-4.885

> <VdW12>
5.859

> <Bond>
0.094

> <Angle>
2.818

> <Pdih>
11.205

> <Idih>
0.000

> <Tether>
0.000

$$$$
VeraChem MOL file


 17 16  0  0  0  0  0  0  0  0999 V2000     
   20.5730   16.6259   20.6306 C   0  0  0  0  0  0  0  0  0  0  0  0
   21.0158   17.0663   19.5881 O   0  5  0  0  0  0  0  0  0  0  0  0
   21.0533   15.6755   21.2164 O   0  0  0  0  0  0  0  0  0  0  0  0
   19.3428   17.2928   21.2320 C   0  0  0  0  0  0  0  0  0  0  0  0
   18.6776   16.5014   21.5963 H   0  0  0  0  0  0  0  0  0  0  0  0
   18.8093   17.8162   20.4294 H   0  0  0  0  0  0  0  0  0  0  0  0
   19.6910   18.2421   22.3625 C   0  0  0  0  0  0  0  0  0  0  0  0
   20.0848   17.7696   23.2619 H   0  0  0  0  0  0  0  0  0  0  0  0
   19.5486   19.5695   22.2996 C   0  0  0  0  0  0  0  0  0  0  0  0
   19.1596   20.0419   21.3982 H   0  0  0  0  0  0  0  0  0  0  0  0
   19.8992   20.5146   23.4271 C   0  0  0  0  0  0  0  0  0  0  0  0
   19.0715   21.2175   23.5930 H   0  0  0  0  0  0  0  0  0  0  0  0
   20.0347   19.9598   24.3657 H   0  0  0  0  0  0  0  0  0  0  0  0
   21.1857   21.3014   23.1097 C   0  0  0  0  0  0  0  0  0  0  0  0
   21.0651   21.8970   22.1953 H   0  0  0  0  0  0  0  0  0  0  0  0
   21.4357   21.9853   23.9312 H   0  0  0  0  0  0  0  0  0  0  0  0
   22.0337   20.6192   22.9640 H   0  0  0  0  0  0  0  0  0  0  0  0
  1  2  1  0  0  0  0
  1  3  2  0  0  0  0
  1  4  1  0  0  0  0
  4  5  1  0  0  0  0
  4  6  1  0  0  0  0
  4  7  1  0  0  0  0
  7  8  1  0  0  0  0
  7  9  2  0  0  0  0
  9 10  1  0  0  0  0
  9 11  1  0  0  0  0
 11 12  1  0  0  0  0
 11 13  1  0  0  0  0
 11 14  1  0  0  0  0
 14 15  1  0  0  0  0
 14 16  1  0  0  0  0
 14 17  1  0  0  0  0
M  END
> <VConfSearch Rank>
679

> <Conf_Id>
7

> <Delta U+W>
-0.041

> <U+W>
-49.468

> <U>
14.121

> <W>
-63.589

> <W(PB)>
-65.660

> <W(SA)>
2.071

> <Valence>
15.230

> <Coulomb>
-1.333

> <VdW>
0.224

> <VdW6>
-4.212

> <VdW12>
4.436

> <Bond>
0.044

> <Angle>
2.230

> <Pdih>
12.956

> <Idih>
0.000

> <Tether>
0.000

$$$$
VeraChem MOL file


 17 16  0  0  0  0  0  0  0  0999 V2000     
   18.9034   17.0235   21.2350 C   0  0  0  0  0  0  0  0  0  0  0  0
   18.1555   16.7304   22.1469 O   0  5  0  0  0  0  0  0  0  0  0  0
   19.7025   16.2487   20.7467 O   0  0  0  0  0  0  0  0  0  0  0  0
   18.8154   18.4311   20.6531 C   0  0  0  0  0  0  0  0  0  0  0  0
   17.7750   18.7659   20.7387 H   0  0  0  0  0  0  0  0  0  0  0  0
   19.0229   18.3638   19.5788 H   0  0  0  0  0  0  0  0  0  0  0  0
   19.7372   19.4631   21.2872 C   0  0  0  0  0  0  0  0  0  0  0  0
   19.6584   20.4607   20.8570 H   0  0  0  0  0  0  0  0  0  0  0  0
   20.5950   19.2408   22.2900 C   0  0  0  0  0  0  0  0  0  0  0  0
   20.6927   18.2529   22.7386 H   0  0  0  0  0  0  0  0  0  0  0  0
   21.4922   20.3036   22.8846 C   0  0  0  0  0  0  0  0  0  0  0  0
   22.5187   19.9205   22.9630 H   0  0  0  0  0  0  0  0  0  0  0  0
   21.5338   21.1839   22.2285 H   0  0  0  0  0  0  0  0  0  0  0  0
   20.9953   20.7305   24.2796 C   0  0  0  0  0  0  0  0  0  0  0  0
   21.6507   21.5007   24.7068 H   0  0  0  0  0  0  0  0  0  0  0  0
   19.9787   21.1414   24.2223 H   0  0  0  0  0  0  0  0  0  0  0  0
   20.9801   19.8756   24.9683 H   0  0  0  0  0  0  0  0  0  0  0  0
  1  2  1  0  0  0  0
  1  3  2  0  0  0  0
  1  4  1  0  0  0  0
  4  5  1  0  0  0  0
  4  6  1  0  0  0  0
  4  7  1  0  0  0  0
  7  8  1  0  0  0  0
  7  9  2  0  0  0  0
  9 10  1  0  0  0  0
  9 11  1  0  0  0  0
 11 12  1  0  0  0  0
 11 13  1  0  0  0  0
 11 14  1  0  0  0  0
 14 15  1  0  0  0  0
 14 16  1  0  0  0  0
 14 17  1  0  0  0  0
M  END
> <VConfSearch Rank>
680

> <Conf_Id>
39

> <Delta U+W>
-0.422

> <U+W>
-49.849

> <U>
14.465

> <W>
-64.314

> <W(PB)>
-66.406

> <W(SA)>
2.093

> <Valence>
14.072

> <Coulomb>
-0.199

> <VdW>
0.592

> <VdW6>
-5.019

> <VdW12>
5.611

> <Bond>
0.085

> <Angle>
2.748

> <Pdih>
11.238

> <Idih>
0.001

> <Tether>
0.000

$$$$
VeraChem MOL file


 17 16  0  0  0  0  0  0  0  0999 V2000     
   18.7864   21.5681   23.8382 C   0  0  0  0  0  0  0  0  0  0  0  0
   18.8271   22.6907   23.3743 O   0  5  0  0  0  0  0  0  0  0  0  0
   18.9516   21.3216   25.0166 O   0  0  0  0  0  0  0  0  0  0  0  0
   18.5078   20.4093   22.8901 C   0  0  0  0  0  0  0  0  0  0  0  0
   17.7295   20.7304   22.1882 H   0  0  0  0  0  0  0  0  0  0  0  0
   18.0904   19.5805   23.4746 H   0  0  0  0  0  0  0  0  0  0  0  0
   19.7450   19.9699   22.1305 C   0  0  0  0  0  0  0  0  0  0  0  0
   20.1251   20.6886   21.4051 H   0  0  0  0  0  0  0  0  0  0  0  0
   20.3583   18.7958   22.3086 C   0  0  0  0  0  0  0  0  0  0  0  0
   19.9794   18.0788   23.0363 H   0  0  0  0  0  0  0  0  0  0  0  0
   21.5941   18.3609   21.5530 C   0  0  0  0  0  0  0  0  0  0  0  0
   22.0543   19.2183   21.0429 H   0  0  0  0  0  0  0  0  0  0  0  0
   22.3427   17.9745   22.2578 H   0  0  0  0  0  0  0  0  0  0  0  0
   21.2548   17.2726   20.5160 C   0  0  0  0  0  0  0  0  0  0  0  0
   20.5260   17.6451   19.7841 H   0  0  0  0  0  0  0  0  0  0  0  0
   22.1555   16.9606   19.9714 H   0  0  0  0  0  0  0  0  0  0  0  0
   20.8276   16.3865   21.0036 H   0  0  0  0  0  0  0  0  0  0  0  0
  1  2  1  0  0  0  0
  1  3  2  0  0  0  0
  1  4  1  0  0  0  0
  4  5  1  0  0  0  0
  4  6  1  0  0  0  0
  4  7  1  0  0  0  0
  7  8  1  0  0  0  0
  7  9  2  0  0  0  0
  9 10  1  0  0  0  0
  9 11  1  0  0  0  0
 11 12  1  0  0  0  0
 11 13  1  0  0  0  0
 11 14  1  0  0  0  0
 14 15  1  0  0  0  0
 14 16  1  0  0  0  0
 14 17  1  0  0  0  0
M  END
> <VConfSearch Rank>
681

> <Conf_Id>
38

> <Delta U+W>
0.000

> <U+W>
-49.427

> <U>
13.666

> <W>
-63.093

> <W(PB)>
-65.225

> <W(SA)>
2.132

> <Valence>
15.226

> <Coulomb>
-1.822

> <VdW>
0.261

> <VdW6>
-4.165

> <VdW12>
4.426

> <Bond>
0.044

> <Angle>
2.229

> <Pdih>
12.953

> <Idih>
0.000

> <Tether>
0.000

$$$$
VeraChem MOL file


 17 16  0  0  0  0  0  0  0  0999 V2000     
   20.1985   21.8092   20.2223 C   0  0  0  0  0  0  0  0  0  0  0  0
   19.5079   21.6091   19.2426 O   0  5  0  0  0  0  0  0  0  0  0  0
   21.2520   22.4142   20.1896 O   0  0  0  0  0  0  0  0  0  0  0  0
   19.7169   21.2785   21.5662 C   0  0  0  0  0  0  0  0  0  0  0  0
   18.6280   21.1579   21.5171 H   0  0  0  0  0  0  0  0  0  0  0  0
   19.9206   22.0459   22.3219 H   0  0  0  0  0  0  0  0  0  0  0  0
   20.3914   19.9758   21.9518 C   0  0  0  0  0  0  0  0  0  0  0  0
   21.4549   20.0514   22.1762 H   0  0  0  0  0  0  0  0  0  0  0  0
   19.7648   18.7973   22.0211 C   0  0  0  0  0  0  0  0  0  0  0  0
   18.7020   18.7219   21.7934 H   0  0  0  0  0  0  0  0  0  0  0  0
   20.4398   17.4987   22.4019 C   0  0  0  0  0  0  0  0  0  0  0  0
   20.1742   16.7165   21.6779 H   0  0  0  0  0  0  0  0  0  0  0  0
   21.5325   17.6073   22.3620 H   0  0  0  0  0  0  0  0  0  0  0  0
   20.0231   17.0520   23.8168 C   0  0  0  0  0  0  0  0  0  0  0  0
   18.9375   16.8984   23.8752 H   0  0  0  0  0  0  0  0  0  0  0  0
   20.5155   16.1088   24.0872 H   0  0  0  0  0  0  0  0  0  0  0  0
   20.3022   17.8081   24.5624 H   0  0  0  0  0  0  0  0  0  0  0  0
  1  2  1  0  0  0  0
  1  3  2  0  0  0  0
  1  4  1  0  0  0  0
  4  5  1  0  0  0  0
  4  6  1  0  0  0  0
  4  7  1  0  0  0  0
  7  8  1  0  0  0  0
  7  9  2  0  0  0  0
  9 10  1  0  0  0  0
  9 11  1  0  0  0  0
 11 12  1  0  0  0  0
 11 13  1  0  0  0  0
 11 14  1  0  0  0  0
 14 15  1  0  0  0  0
 14 16  1  0  0  0  0
 14 17  1  0  0  0  0
M  END
> <VConfSearch Rank>
682

> <Conf_Id>
35

> <Delta U+W>
-0.102

> <U+W>
-49.529

> <U>
13.666

> <W>
-63.195

> <W(PB)>
-65.299

> <W(SA)>
2.103

> <Valence>
15.226

> <Coulomb>
-1.822

> <VdW>
0.261

> <VdW6>
-4.165

> <VdW12>
4.426

> <Bond>
0.044

> <Angle>
2.229

> <Pdih>
12.953

> <Idih>
0.000

> <Tether>
0.000

$$$$
VeraChem MOL file


 17 16  0  0  0  0  0  0  0  0999 V2000     
   22.1527   21.3159   22.4619 C   0  0  0  0  0  0  0  0  0  0  0  0
   22.3134   21.8515   21.3829 O   0  5  0  0  0  0  0  0  0  0  0  0
   21.9878   21.9286   23.4984 O   0  0  0  0  0  0  0  0  0  0  0  0
   22.1685   19.7940   22.5174 C   0  0  0  0  0  0  0  0  0  0  0  0
   22.4432   19.4908   23.5349 H   0  0  0  0  0  0  0  0  0  0  0  0
   22.9659   19.4430   21.8522 H   0  0  0  0  0  0  0  0  0  0  0  0
   20.8417   19.1842   22.1062 C   0  0  0  0  0  0  0  0  0  0  0  0
   20.5869   19.3165   21.0561 H   0  0  0  0  0  0  0  0  0  0  0  0
   20.0256   18.5350   22.9459 C   0  0  0  0  0  0  0  0  0  0  0  0
   20.3122   18.4262   23.9914 H   0  0  0  0  0  0  0  0  0  0  0  0
   18.6858   17.9052   22.6040 C   0  0  0  0  0  0  0  0  0  0  0  0
   18.7164   16.8384   22.8636 H   0  0  0  0  0  0  0  0  0  0  0  0
   17.9113   18.3435   23.2480 H   0  0  0  0  0  0  0  0  0  0  0  0
   18.2541   18.0517   21.1281 C   0  0  0  0  0  0  0  0  0  0  0  0
   18.9802   17.5757   20.4561 H   0  0  0  0  0  0  0  0  0  0  0  0
   17.2798   17.5737   20.9629 H   0  0  0  0  0  0  0  0  0  0  0  0
   18.1615   19.1092   20.8479 H   0  0  0  0  0  0  0  0  0  0  0  0
  1  2  1  0  0  0  0
  1  3  2  0  0  0  0
  1  4  1  0  0  0  0
  4  5  1  0  0  0  0
  4  6  1  0  0  0  0
  4  7  1  0  0  0  0
  7  8  1  0  0  0  0
  7  9  2  0  0  0  0
  9 10  1  0  0  0  0
  9 11  1  0  0  0  0
 11 12  1  0  0  0  0
 11 13  1  0  0  0  0
 11 14  1  0  0  0  0
 14 15  1  0  0  0  0
 14 16  1  0  0  0  0
 14 17  1  0  0  0  0
M  END
> <VConfSearch Rank>
683

> <Conf_Id>
19

> <Delta U+W>
-0.496

> <U+W>
-49.923

> <U>
13.863

> <W>
-63.786

> <W(PB)>
-65.856

> <W(SA)>
2.070

> <Valence>
14.117

> <Coulomb>
-1.228

> <VdW>
0.974

> <VdW6>
-4.885

> <VdW12>
5.859

> <Bond>
0.094

> <Angle>
2.818

> <Pdih>
11.205

> <Idih>
0.000

> <Tether>
0.000

$$$$
VeraChem MOL file


 17 16  0  0  0  0  0  0  0  0999 V2000     
   20.1133   19.0485   19.2763 C   0  0  0  0  0  0  0  0  0  0  0  0
   19.1633   19.7646   19.0284 O   0  5  0  0  0  0  0  0  0  0  0  0
   21.1887   19.1414   18.7177 O   0  0  0  0  0  0  0  0  0  0  0  0
   19.9463   17.9680   20.3367 C   0  0  0  0  0  0  0  0  0  0  0  0
   20.4338   17.0584   19.9672 H   0  0  0  0  0  0  0  0  0  0  0  0
   18.8772   17.7430   20.4321 H   0  0  0  0  0  0  0  0  0  0  0  0
   20.5387   18.3700   21.6739 C   0  0  0  0  0  0  0  0  0  0  0  0
   21.6244   18.4606   21.6932 H   0  0  0  0  0  0  0  0  0  0  0  0
   19.8174   18.6131   22.7724 C   0  0  0  0  0  0  0  0  0  0  0  0
   18.7315   18.5274   22.7512 H   0  0  0  0  0  0  0  0  0  0  0  0
   20.4099   19.0168   24.1041 C   0  0  0  0  0  0  0  0  0  0  0  0
   19.9784   18.4003   24.9043 H   0  0  0  0  0  0  0  0  0  0  0  0
   21.4932   18.8336   24.1142 H   0  0  0  0  0  0  0  0  0  0  0  0
   20.1417   20.5051   24.4007 C   0  0  0  0  0  0  0  0  0  0  0  0
   19.0636   20.7095   24.4351 H   0  0  0  0  0  0  0  0  0  0  0  0
   20.5741   20.7927   25.3679 H   0  0  0  0  0  0  0  0  0  0  0  0
   20.5861   21.1431   23.6254 H   0  0  0  0  0  0  0  0  0  0  0  0
  1  2  1  0  0  0  0
  1  3  2  0  0  0  0
  1  4  1  0  0  0  0
  4  5  1  0  0  0  0
  4  6  1  0  0  0  0
  4  7  1  0  0  0  0
  7  8  1  0  0  0  0
  7  9  2  0  0  0  0
  9 10  1  0  0  0  0
  9 11  1  0  0  0  0
 11 12  1  0  0  0  0
 11 13  1  0  0  0  0
 11 14  1  0  0  0  0
 14 15  1  0  0  0  0
 14 16  1  0  0  0  0
 14 17  1  0  0  0  0
M  END
> <VConfSearch Rank>
684

> <Conf_Id>
7

> <Delta U+W>
-0.041

> <U+W>
-49.468

> <U>
14.121

> <W>
-63.589

> <W(PB)>
-65.660

> <W(SA)>
2.071

> <Valence>
15.230

> <Coulomb>
-1.333

> <VdW>
0.224

> <VdW6>
-4.212

> <VdW12>
4.436

> <Bond>
0.044

> <Angle>
2.230

> <Pdih>
12.956

> <Idih>
0.000

> <Tether>
0.000

$$$$
VeraChem MOL file


 17 16  0  0  0  0  0  0  0  0999 V2000     
   21.9468   18.5651   20.3105 C   0  0  0  0  0  0  0  0  0  0  0  0
   22.6732   17.8145   20.9317 O   0  5  0  0  0  0  0  0  0  0  0  0
   22.3504   19.5286   19.6894 O   0  0  0  0  0  0  0  0  0  0  0  0
   20.4510   18.2659   20.2859 C   0  0  0  0  0  0  0  0  0  0  0  0
   20.3246   17.1783   20.3399 H   0  0  0  0  0  0  0  0  0  0  0  0
   20.0647   18.5659   19.3048 H   0  0  0  0  0  0  0  0  0  0  0  0
   19.6300   18.9298   21.3823 C   0  0  0  0  0  0  0  0  0  0  0  0
   18.5651   18.7031   21.3462 H   0  0  0  0  0  0  0  0  0  0  0  0
   20.1033   19.7326   22.3428 C   0  0  0  0  0  0  0  0  0  0  0  0
   21.1638   19.9745   22.4020 H   0  0  0  0  0  0  0  0  0  0  0  0
   19.2423   20.3698   23.4107 C   0  0  0  0  0  0  0  0  0  0  0  0
   19.4785   21.4398   23.4874 H   0  0  0  0  0  0  0  0  0  0  0  0
   18.1795   20.3003   23.1410 H   0  0  0  0  0  0  0  0  0  0  0  0
   19.4665   19.6951   24.7781 C   0  0  0  0  0  0  0  0  0  0  0  0
   18.8404   20.1623   25.5493 H   0  0  0  0  0  0  0  0  0  0  0  0
   19.2119   18.6280   24.7325 H   0  0  0  0  0  0  0  0  0  0  0  0
   20.5152   19.7832   25.0909 H   0  0  0  0  0  0  0  0  0  0  0  0
  1  2  1  0  0  0  0
  1  3  2  0  0  0  0
  1  4  1  0  0  0  0
  4  5  1  0  0  0  0
  4  6  1  0  0  0  0
  4  7  1  0  0  0  0
  7  8  1  0  0  0  0
  7  9  2  0  0  0  0
  9 10  1  0  0  0  0
  9 11  1  0  0  0  0
 11 12  1  0  0  0  0
 11 13  1  0  0  0  0
 11 14  1  0  0  0  0
 14 15  1  0  0  0  0
 14 16  1  0  0  0  0
 14 17  1  0  0  0  0
M  END
> <VConfSearch Rank>
685

> <Conf_Id>
39

> <Delta U+W>
-0.422

> <U+W>
-49.849

> <U>
14.465

> <W>
-64.314

> <W(PB)>
-66.406

> <W(SA)>
2.093

> <Valence>
14.072

> <Coulomb>
-0.199

> <VdW>
0.592

> <VdW6>
-5.019

> <VdW12>
5.611

> <Bond>
0.085

> <Angle>
2.748

> <Pdih>
11.238

> <Idih>
0.001

> <Tether>
0.000

$$$$
VeraChem MOL file


 17 16  0  0  0  0  0  0  0  0999 V2000     
   18.6094   22.0545   21.9194 C   0  0  0  0  0  0  0  0  0  0  0  0
   18.5738   22.7211   22.9350 O   0  5  0  0  0  0  0  0  0  0  0  0
   17.6741   21.9510   21.1504 O   0  0  0  0  0  0  0  0  0  0  0  0
   19.8991   21.3137   21.5917 C   0  0  0  0  0  0  0  0  0  0  0  0
   20.7372   21.9793   21.8287 H   0  0  0  0  0  0  0  0  0  0  0  0
   19.9271   21.1354   20.5100 H   0  0  0  0  0  0  0  0  0  0  0  0
   20.0335   20.0132   22.3608 C   0  0  0  0  0  0  0  0  0  0  0  0
   20.1739   20.1211   23.4359 H   0  0  0  0  0  0  0  0  0  0  0  0
   19.9862   18.8008   21.8003 C   0  0  0  0  0  0  0  0  0  0  0  0
   19.8428   18.6936   20.7256 H   0  0  0  0  0  0  0  0  0  0  0  0
   20.1166   17.5051   22.5693 C   0  0  0  0  0  0  0  0  0  0  0  0
   19.9982   17.6840   23.6469 H   0  0  0  0  0  0  0  0  0  0  0  0
   19.3134   16.8164   22.2740 H   0  0  0  0  0  0  0  0  0  0  0  0
   21.4833   16.8419   22.3095 C   0  0  0  0  0  0  0  0  0  0  0  0
   22.3028   17.5028   22.6214 H   0  0  0  0  0  0  0  0  0  0  0  0
   21.5717   15.9019   22.8696 H   0  0  0  0  0  0  0  0  0  0  0  0
   21.6128   16.6164   21.2428 H   0  0  0  0  0  0  0  0  0  0  0  0
  1  2  1  0  0  0  0
  1  3  2  0  0  0  0
  1  4  1  0  0  0  0
  4  5  1  0  0  0  0
  4  6  1  0  0  0  0
  4  7  1  0  0  0  0
  7  8  1  0  0  0  0
  7  9  2  0  0  0  0
  9 10  1  0  0  0  0
  9 11  1  0  0  0  0
 11 12  1  0  0  0  0
 11 13  1  0  0  0  0
 11 14  1  0  0  0  0
 14 15  1  0  0  0  0
 14 16  1  0  0  0  0
 14 17  1  0  0  0  0
M  END
> <VConfSearch Rank>
686

> <Conf_Id>
38

> <Delta U+W>
0.000

> <U+W>
-49.427

> <U>
13.666

> <W>
-63.093

> <W(PB)>
-65.225

> <W(SA)>
2.132

> <Valence>
15.226

> <Coulomb>
-1.822

> <VdW>
0.261

> <VdW6>
-4.165

> <VdW12>
4.426

> <Bond>
0.044

> <Angle>
2.229

> <Pdih>
12.953

> <Idih>
0.000

> <Tether>
0.000

$$$$
VeraChem MOL file


 17 16  0  0  0  0  0  0  0  0999 V2000     
   21.9369   20.2447   24.4791 C   0  0  0  0  0  0  0  0  0  0  0  0
   21.5649   19.7253   25.5129 O   0  5  0  0  0  0  0  0  0  0  0  0
   22.3501   21.3855   24.4110 O   0  0  0  0  0  0  0  0  0  0  0  0
   21.8887   19.4210   23.1989 C   0  0  0  0  0  0  0  0  0  0  0  0
   21.9158   18.3594   23.4728 H   0  0  0  0  0  0  0  0  0  0  0  0
   22.8034   19.6293   22.6320 H   0  0  0  0  0  0  0  0  0  0  0  0
   20.6691   19.7332   22.3529 C   0  0  0  0  0  0  0  0  0  0  0  0
   20.6532   20.7282   21.9092 H   0  0  0  0  0  0  0  0  0  0  0  0
   19.6622   18.8798   22.1429 C   0  0  0  0  0  0  0  0  0  0  0  0
   19.6772   17.8861   22.5895 H   0  0  0  0  0  0  0  0  0  0  0  0
   18.4450   19.1943   21.3022 C   0  0  0  0  0  0  0  0  0  0  0  0
   17.5343   18.9176   21.8504 H   0  0  0  0  0  0  0  0  0  0  0  0
   18.3803   20.2738   21.1080 H   0  0  0  0  0  0  0  0  0  0  0  0
   18.4874   18.4366   19.9609 C   0  0  0  0  0  0  0  0  0  0  0  0
   18.5138   17.3513   20.1248 H   0  0  0  0  0  0  0  0  0  0  0  0
   17.6014   18.6682   19.3556 H   0  0  0  0  0  0  0  0  0  0  0  0
   19.3778   18.7169   19.3827 H   0  0  0  0  0  0  0  0  0  0  0  0
  1  2  1  0  0  0  0
  1  3  2  0  0  0  0
  1  4  1  0  0  0  0
  4  5  1  0  0  0  0
  4  6  1  0  0  0  0
  4  7  1  0  0  0  0
  7  8  1  0  0  0  0
  7  9  2  0  0  0  0
  9 10  1  0  0  0  0
  9 11  1  0  0  0  0
 11 12  1  0  0  0  0
 11 13  1  0  0  0  0
 11 14  1  0  0  0  0
 14 15  1  0  0  0  0
 14 16  1  0  0  0  0
 14 17  1  0  0  0  0
M  END
> <VConfSearch Rank>
687

> <Conf_Id>
35

> <Delta U+W>
-0.102

> <U+W>
-49.529

> <U>
13.666

> <W>
-63.195

> <W(PB)>
-65.299

> <W(SA)>
2.103

> <Valence>
15.226

> <Coulomb>
-1.822

> <VdW>
0.261

> <VdW6>
-4.165

> <VdW12>
4.426

> <Bond>
0.044

> <Angle>
2.229

> <Pdih>
12.953

> <Idih>
0.000

> <Tether>
0.000

$$$$
VeraChem MOL file


 17 16  0  0  0  0  0  0  0  0999 V2000     
   21.3253   17.4108   24.3576 C   0  0  0  0  0  0  0  0  0  0  0  0
   22.3524   16.8806   23.9821 O   0  5  0  0  0  0  0  0  0  0  0  0
   21.2010   17.9411   25.4440 O   0  0  0  0  0  0  0  0  0  0  0  0
   20.1269   17.4007   23.4176 C   0  0  0  0  0  0  0  0  0  0  0  0
   19.2170   17.5046   24.0209 H   0  0  0  0  0  0  0  0  0  0  0  0
   20.0841   16.4149   22.9403 H   0  0  0  0  0  0  0  0  0  0  0  0
   20.2082   18.4871   22.3618 C   0  0  0  0  0  0  0  0  0  0  0  0
   21.0030   18.3512   21.6305 H   0  0  0  0  0  0  0  0  0  0  0  0
   19.3863   19.5428   22.3113 C   0  0  0  0  0  0  0  0  0  0  0  0
   18.6050   19.6475   23.0635 H   0  0  0  0  0  0  0  0  0  0  0  0
   19.4131   20.6658   21.2882 C   0  0  0  0  0  0  0  0  0  0  0  0
   18.4349   20.7193   20.7915 H   0  0  0  0  0  0  0  0  0  0  0  0
   19.5302   21.6235   21.8133 H   0  0  0  0  0  0  0  0  0  0  0  0
   20.5166   20.5433   20.2143 C   0  0  0  0  0  0  0  0  0  0  0  0
   20.3985   19.6204   19.6315 H   0  0  0  0  0  0  0  0  0  0  0  0
   20.4703   21.3895   19.5166 H   0  0  0  0  0  0  0  0  0  0  0  0
   21.5141   20.5402   20.6731 H   0  0  0  0  0  0  0  0  0  0  0  0
  1  2  1  0  0  0  0
  1  3  2  0  0  0  0
  1  4  1  0  0  0  0
  4  5  1  0  0  0  0
  4  6  1  0  0  0  0
  4  7  1  0  0  0  0
  7  8  1  0  0  0  0
  7  9  2  0  0  0  0
  9 10  1  0  0  0  0
  9 11  1  0  0  0  0
 11 12  1  0  0  0  0
 11 13  1  0  0  0  0
 11 14  1  0  0  0  0
 14 15  1  0  0  0  0
 14 16  1  0  0  0  0
 14 17  1  0  0  0  0
M  END
> <VConfSearch Rank>
688

> <Conf_Id>
19

> <Delta U+W>
-0.496

> <U+W>
-49.923

> <U>
13.863

> <W>
-63.786

> <W(PB)>
-65.856

> <W(SA)>
2.070

> <Valence>
14.117

> <Coulomb>
-1.228

> <VdW>
0.974

> <VdW6>
-4.885

> <VdW12>
5.859

> <Bond>
0.094

> <Angle>
2.818

> <Pdih>
11.205

> <Idih>
0.000

> <Tether>
0.000

$$$$
VeraChem MOL file


 17 16  0  0  0  0  0  0  0  0999 V2000     
   19.7167   16.3403   21.2098 C   0  0  0  0  0  0  0  0  0  0  0  0
   19.7177   16.5047   20.0058 O   0  5  0  0  0  0  0  0  0  0  0  0
   20.3308   15.4520   21.7673 O   0  0  0  0  0  0  0  0  0  0  0  0
   18.8931   17.2915   22.0681 C   0  0  0  0  0  0  0  0  0  0  0  0
   18.3863   16.6957   22.8359 H   0  0  0  0  0  0  0  0  0  0  0  0
   18.1123   17.7338   21.4378 H   0  0  0  0  0  0  0  0  0  0  0  0
   19.7407   18.3678   22.7193 C   0  0  0  0  0  0  0  0  0  0  0  0
   20.4381   18.0147   23.4784 H   0  0  0  0  0  0  0  0  0  0  0  0
   19.6749   19.6661   22.4088 C   0  0  0  0  0  0  0  0  0  0  0  0
   18.9811   20.0179   21.6461 H   0  0  0  0  0  0  0  0  0  0  0  0
   20.5231   20.7373   23.0573 C   0  0  0  0  0  0  0  0  0  0  0  0
   19.8875   21.5795   23.3626 H   0  0  0  0  0  0  0  0  0  0  0  0
   20.9966   20.3521   23.9708 H   0  0  0  0  0  0  0  0  0  0  0  0
   21.6134   21.2402   22.0911 C   0  0  0  0  0  0  0  0  0  0  0  0
   21.1661   21.6670   21.1838 H   0  0  0  0  0  0  0  0  0  0  0  0
   22.2261   22.0169   22.5668 H   0  0  0  0  0  0  0  0  0  0  0  0
   22.2771   20.4185   21.7911 H   0  0  0  0  0  0  0  0  0  0  0  0
  1  2  1  0  0  0  0
  1  3  2  0  0  0  0
  1  4  1  0  0  0  0
  4  5  1  0  0  0  0
  4  6  1  0  0  0  0
  4  7  1  0  0  0  0
  7  8  1  0  0  0  0
  7  9  2  0  0  0  0
  9 10  1  0  0  0  0
  9 11  1  0  0  0  0
 11 12  1  0  0  0  0
 11 13  1  0  0  0  0
 11 14  1  0  0  0  0
 14 15  1  0  0  0  0
 14 16  1  0  0  0  0
 14 17  1  0  0  0  0
M  END
> <VConfSearch Rank>
689

> <Conf_Id>
7

> <Delta U+W>
-0.041

> <U+W>
-49.468

> <U>
14.121

> <W>
-63.589

> <W(PB)>
-65.660

> <W(SA)>
2.071

> <Valence>
15.230

> <Coulomb>
-1.333

> <VdW>
0.224

> <VdW6>
-4.212

> <VdW12>
4.436

> <Bond>
0.044

> <Angle>
2.230

> <Pdih>
12.956

> <Idih>
0.000

> <Tether>
0.000

$$$$
VeraChem MOL file


 17 16  0  0  0  0  0  0  0  0999 V2000     
   21.4038   19.9480   19.9108 C   0  0  0  0  0  0  0  0  0  0  0  0
   20.4897   20.4565   19.2921 O   0  5  0  0  0  0  0  0  0  0  0  0
   22.0818   19.0366   19.4787 O   0  0  0  0  0  0  0  0  0  0  0  0
   21.7362   20.5020   21.2929 C   0  0  0  0  0  0  0  0  0  0  0  0
   21.5046   21.5735   21.2904 H   0  0  0  0  0  0  0  0  0  0  0  0
   22.8210   20.4285   21.4321 H   0  0  0  0  0  0  0  0  0  0  0  0
   21.0254   19.8293   22.4588 C   0  0  0  0  0  0  0  0  0  0  0  0
   21.2770   20.2399   23.4358 H   0  0  0  0  0  0  0  0  0  0  0  0
   20.1530   18.8183   22.3706 C   0  0  0  0  0  0  0  0  0  0  0  0
   19.8834   18.3900   21.4059 H   0  0  0  0  0  0  0  0  0  0  0  0
   19.4738   18.1829   23.5634 C   0  0  0  0  0  0  0  0  0  0  0  0
   19.5510   17.0893   23.4946 H   0  0  0  0  0  0  0  0  0  0  0  0
   19.9774   18.4762   24.4949 H   0  0  0  0  0  0  0  0  0  0  0  0
   17.9891   18.5894   23.6366 C   0  0  0  0  0  0  0  0  0  0  0  0
   17.5010   18.1245   24.5031 H   0  0  0  0  0  0  0  0  0  0  0  0
   17.8875   19.6785   23.7319 H   0  0  0  0  0  0  0  0  0  0  0  0
   17.4518   18.2738   22.7327 H   0  0  0  0  0  0  0  0  0  0  0  0
  1  2  1  0  0  0  0
  1  3  2  0  0  0  0
  1  4  1  0  0  0  0
  4  5  1  0  0  0  0
  4  6  1  0  0  0  0
  4  7  1  0  0  0  0
  7  8  1  0  0  0  0
  7  9  2  0  0  0  0
  9 10  1  0  0  0  0
  9 11  1  0  0  0  0
 11 12  1  0  0  0  0
 11 13  1  0  0  0  0
 11 14  1  0  0  0  0
 14 15  1  0  0  0  0
 14 16  1  0  0  0  0
 14 17  1  0  0  0  0
M  END
> <VConfSearch Rank>
690

> <Conf_Id>
39

> <Delta U+W>
-0.422

> <U+W>
-49.849

> <U>
14.465

> <W>
-64.314

> <W(PB)>
-66.406

> <W(SA)>
2.093

> <Valence>
14.072

> <Coulomb>
-0.199

> <VdW>
0.592

> <VdW6>
-5.019

> <VdW12>
5.611

> <Bond>
0.085

> <Angle>
2.748

> <Pdih>
11.238

> <Idih>
0.001

> <Tether>
0.000

$$$$
VeraChem MOL file


 17 16  0  0  0  0  0  0  0  0999 V2000     
   18.1270   19.9085   19.7211 C   0  0  0  0  0  0  0  0  0  0  0  0
   18.5490   19.7146   18.5980 O   0  5  0  0  0  0  0  0  0  0  0  0
   17.4333   20.8594   20.0234 O   0  0  0  0  0  0  0  0  0  0  0  0
   18.4837   18.9008   20.8059 C   0  0  0  0  0  0  0  0  0  0  0  0
   18.4108   17.8982   20.3689 H   0  0  0  0  0  0  0  0  0  0  0  0
   17.7244   18.9628   21.5948 H   0  0  0  0  0  0  0  0  0  0  0  0
   19.8738   19.1230   21.3706 C   0  0  0  0  0  0  0  0  0  0  0  0
   20.6934   18.9206   20.6818 H   0  0  0  0  0  0  0  0  0  0  0  0
   20.1208   19.5387   22.6166 C   0  0  0  0  0  0  0  0  0  0  0  0
   19.3007   19.7438   23.3039 H   0  0  0  0  0  0  0  0  0  0  0  0
   21.5076   19.7633   23.1767 C   0  0  0  0  0  0  0  0  0  0  0  0
   22.2499   19.7878   22.3670 H   0  0  0  0  0  0  0  0  0  0  0  0
   21.5523   20.7412   23.6749 H   0  0  0  0  0  0  0  0  0  0  0  0
   21.8849   18.6572   24.1813 C   0  0  0  0  0  0  0  0  0  0  0  0
   21.8721   17.6711   23.6985 H   0  0  0  0  0  0  0  0  0  0  0  0
   22.8918   18.8259   24.5848 H   0  0  0  0  0  0  0  0  0  0  0  0
   21.1801   18.6352   25.0228 H   0  0  0  0  0  0  0  0  0  0  0  0
  1  2  1  0  0  0  0
  1  3  2  0  0  0  0
  1  4  1  0  0  0  0
  4  5  1  0  0  0  0
  4  6  1  0  0  0  0
  4  7  1  0  0  0  0
  7  8  1  0  0  0  0
  7  9  2  0  0  0  0
  9 10  1  0  0  0  0
  9 11  1  0  0  0  0
 11 12  1  0  0  0  0
 11 13  1  0  0  0  0
 11 14  1  0  0  0  0
 14 15  1  0  0  0  0
 14 16  1  0  0  0  0
 14 17  1  0  0  0  0
M  END
> <VConfSearch Rank>
691

> <Conf_Id>
38

> <Delta U+W>
0.000

> <U+W>
-49.427

> <U>
13.666

> <W>
-63.093

> <W(PB)>
-65.225

> <W(SA)>
2.132

> <Valence>
15.226

> <Coulomb>
-1.822

> <VdW>
0.261

> <VdW6>
-4.165

> <VdW12>
4.426

> <Bond>
0.044

> <Angle>
2.229

> <Pdih>
12.953

> <Idih>
0.000

> <Tether>
0.000

$$$$
VeraChem MOL file


 17 16  0  0  0  0  0  0  0  0999 V2000     
   19.7693   16.1806   21.4836 C   0  0  0  0  0  0  0  0  0  0  0  0
   20.2226   15.9487   20.3802 O   0  5  0  0  0  0  0  0  0  0  0  0
   18.7799   15.6355   21.9319 O   0  0  0  0  0  0  0  0  0  0  0  0
   20.4814   17.2060   22.3560 C   0  0  0  0  0  0  0  0  0  0  0  0
   21.5238   17.2753   22.0227 H   0  0  0  0  0  0  0  0  0  0  0  0
   20.4978   16.8195   23.3816 H   0  0  0  0  0  0  0  0  0  0  0  0
   19.8084   18.5649   22.3222 C   0  0  0  0  0  0  0  0  0  0  0  0
   18.8240   18.6081   22.7875 H   0  0  0  0  0  0  0  0  0  0  0  0
   20.3468   19.6562   21.7696 C   0  0  0  0  0  0  0  0  0  0  0  0
   21.3298   19.6116   21.3018 H   0  0  0  0  0  0  0  0  0  0  0  0
   19.6726   21.0095   21.7334 C   0  0  0  0  0  0  0  0  0  0  0  0
   19.7221   21.4212   20.7162 H   0  0  0  0  0  0  0  0  0  0  0  0
   18.6069   20.9148   21.9836 H   0  0  0  0  0  0  0  0  0  0  0  0
   20.3425   21.9886   22.7170 C   0  0  0  0  0  0  0  0  0  0  0  0
   21.4018   22.1320   22.4666 H   0  0  0  0  0  0  0  0  0  0  0  0
   19.8494   22.9689   22.6857 H   0  0  0  0  0  0  0  0  0  0  0  0
   20.2824   21.6097   23.7459 H   0  0  0  0  0  0  0  0  0  0  0  0
  1  2  1  0  0  0  0
  1  3  2  0  0  0  0
  1  4  1  0  0  0  0
  4  5  1  0  0  0  0
  4  6  1  0  0  0  0
  4  7  1  0  0  0  0
  7  8  1  0  0  0  0
  7  9  2  0  0  0  0
  9 10  1  0  0  0  0
  9 11  1  0  0  0  0
 11 12  1  0  0  0  0
 11 13  1  0  0  0  0
 11 14  1  0  0  0  0
 14 15  1  0  0  0  0
 14 16  1  0  0  0  0
 14 17  1  0  0  0  0
M  END
> <VConfSearch Rank>
692

> <Conf_Id>
35

> <Delta U+W>
-0.102

> <U+W>
-49.529

> <U>
13.666

> <W>
-63.195

> <W(PB)>
-65.299

> <W(SA)>
2.103

> <Valence>
15.226

> <Coulomb>
-1.822

> <VdW>
0.261

> <VdW6>
-4.165

> <VdW12>
4.426

> <Bond>
0.044

> <Angle>
2.229

> <Pdih>
12.953

> <Idih>
0.000

> <Tether>
0.000

$$$$
VeraChem MOL file


 17 16  0  0  0  0  0  0  0  0999 V2000     
   19.3969   21.7910   21.3217 C   0  0  0  0  0  0  0  0  0  0  0  0
   18.3489   22.0970   21.8554 O   0  5  0  0  0  0  0  0  0  0  0  0
   20.3497   22.5401   21.2329 O   0  0  0  0  0  0  0  0  0  0  0  0
   19.5174   20.3954   20.7237 C   0  0  0  0  0  0  0  0  0  0  0  0
   20.2885   20.4216   19.9444 H   0  0  0  0  0  0  0  0  0  0  0  0
   18.5685   20.1606   20.2278 H   0  0  0  0  0  0  0  0  0  0  0  0
   19.8334   19.3416   21.7683 C   0  0  0  0  0  0  0  0  0  0  0  0
   19.0331   19.1555   22.4824 H   0  0  0  0  0  0  0  0  0  0  0  0
   20.9962   18.6811   21.8353 C   0  0  0  0  0  0  0  0  0  0  0  0
   21.7758   18.8975   21.1056 H   0  0  0  0  0  0  0  0  0  0  0  0
   21.3800   17.6203   22.8530 C   0  0  0  0  0  0  0  0  0  0  0  0
   21.6477   16.6967   22.3220 H   0  0  0  0  0  0  0  0  0  0  0  0
   22.2947   17.9382   23.3714 H   0  0  0  0  0  0  0  0  0  0  0  0
   20.2930   17.3000   23.9027 C   0  0  0  0  0  0  0  0  0  0  0  0
   19.3792   16.9263   23.4223 H   0  0  0  0  0  0  0  0  0  0  0  0
   20.6460   16.5285   24.5992 H   0  0  0  0  0  0  0  0  0  0  0  0
   20.0379   18.1918   24.4902 H   0  0  0  0  0  0  0  0  0  0  0  0
  1  2  1  0  0  0  0
  1  3  2  0  0  0  0
  1  4  1  0  0  0  0
  4  5  1  0  0  0  0
  4  6  1  0  0  0  0
  4  7  1  0  0  0  0
  7  8  1  0  0  0  0
  7  9  2  0  0  0  0
  9 10  1  0  0  0  0
  9 11  1  0  0  0  0
 11 12  1  0  0  0  0
 11 13  1  0  0  0  0
 11 14  1  0  0  0  0
 14 15  1  0  0  0  0
 14 16  1  0  0  0  0
 14 17  1  0  0  0  0
M  END
> <VConfSearch Rank>
693

> <Conf_Id>
19

> <Delta U+W>
-0.496

> <U+W>
-49.923

> <U>
13.863

> <W>
-63.786

> <W(PB)>
-65.856

> <W(SA)>
2.070

> <Valence>
14.117

> <Coulomb>
-1.228

> <VdW>
0.974

> <VdW6>
-4.885

> <VdW12>
5.859

> <Bond>
0.094

> <Angle>
2.818

> <Pdih>
11.205

> <Idih>
0.000

> <Tether>
0.000

$$$$
VeraChem MOL file


 17 16  0  0  0  0  0  0  0  0999 V2000     
   19.5108   21.8215   21.4371 C   0  0  0  0  0  0  0  0  0  0  0  0
   19.5329   22.4017   22.5047 O   0  5  0  0  0  0  0  0  0  0  0  0
   20.0494   22.2424   20.4323 O   0  0  0  0  0  0  0  0  0  0  0  0
   18.7587   20.5000   21.3485 C   0  0  0  0  0  0  0  0  0  0  0  0
   18.2014   20.4948   20.4047 H   0  0  0  0  0  0  0  0  0  0  0  0
   18.0194   20.4709   22.1580 H   0  0  0  0  0  0  0  0  0  0  0  0
   19.6838   19.2997   21.4138 C   0  0  0  0  0  0  0  0  0  0  0  0
   20.3461   19.1759   20.5575 H   0  0  0  0  0  0  0  0  0  0  0  0
   19.7224   18.4355   22.4326 C   0  0  0  0  0  0  0  0  0  0  0  0
   19.0635   18.5627   23.2910 H   0  0  0  0  0  0  0  0  0  0  0  0
   20.6477   17.2409   22.4970 C   0  0  0  0  0  0  0  0  0  0  0  0
   20.0781   16.3454   22.7803 H   0  0  0  0  0  0  0  0  0  0  0  0
   21.0832   17.0383   21.5089 H   0  0  0  0  0  0  0  0  0  0  0  0
   21.7806   17.4729   23.5156 C   0  0  0  0  0  0  0  0  0  0  0  0
   21.3745   17.6399   24.5219 H   0  0  0  0  0  0  0  0  0  0  0  0
   22.4492   16.6032   23.5580 H   0  0  0  0  0  0  0  0  0  0  0  0
   22.3798   18.3504   23.2389 H   0  0  0  0  0  0  0  0  0  0  0  0
  1  2  1  0  0  0  0
  1  3  2  0  0  0  0
  1  4  1  0  0  0  0
  4  5  1  0  0  0  0
  4  6  1  0  0  0  0
  4  7  1  0  0  0  0
  7  8  1  0  0  0  0
  7  9  2  0  0  0  0
  9 10  1  0  0  0  0
  9 11  1  0  0  0  0
 11 12  1  0  0  0  0
 11 13  1  0  0  0  0
 11 14  1  0  0  0  0
 14 15  1  0  0  0  0
 14 16  1  0  0  0  0
 14 17  1  0  0  0  0
M  END
> <VConfSearch Rank>
694

> <Conf_Id>
7

> <Delta U+W>
-0.041

> <U+W>
-49.468

> <U>
14.121

> <W>
-63.589

> <W(PB)>
-65.660

> <W(SA)>
2.071

> <Valence>
15.230

> <Coulomb>
-1.333

> <VdW>
0.224

> <VdW6>
-4.212

> <VdW12>
4.436

> <Bond>
0.044

> <Angle>
2.230

> <Pdih>
12.956

> <Idih>
0.000

> <Tether>
0.000

$$$$
VeraChem MOL file


 17 16  0  0  0  0  0  0  0  0999 V2000     
   18.8008   17.7470   20.3867 C   0  0  0  0  0  0  0  0  0  0  0  0
   18.7894   16.6631   20.9362 O   0  5  0  0  0  0  0  0  0  0  0  0
   19.2305   17.9259   19.2640 O   0  0  0  0  0  0  0  0  0  0  0  0
   18.2192   18.9422   21.1355 C   0  0  0  0  0  0  0  0  0  0  0  0
   17.4080   18.5758   21.7753 H   0  0  0  0  0  0  0  0  0  0  0  0
   17.7471   19.6026   20.3987 H   0  0  0  0  0  0  0  0  0  0  0  0
   19.2098   19.7382   21.9733 C   0  0  0  0  0  0  0  0  0  0  0  0
   18.7739   20.5867   22.4991 H   0  0  0  0  0  0  0  0  0  0  0  0
   20.5162   19.4788   22.1041 C   0  0  0  0  0  0  0  0  0  0  0  0
   20.9770   18.6361   21.5901 H   0  0  0  0  0  0  0  0  0  0  0  0
   21.4601   20.3041   22.9503 C   0  0  0  0  0  0  0  0  0  0  0  0
   22.3642   20.5406   22.3732 H   0  0  0  0  0  0  0  0  0  0  0  0
   20.9976   21.2639   23.2188 H   0  0  0  0  0  0  0  0  0  0  0  0
   21.8537   19.5506   24.2358 C   0  0  0  0  0  0  0  0  0  0  0  0
   22.5396   20.1533   24.8451 H   0  0  0  0  0  0  0  0  0  0  0  0
   20.9668   19.3254   24.8426 H   0  0  0  0  0  0  0  0  0  0  0  0
   22.3536   18.6028   23.9964 H   0  0  0  0  0  0  0  0  0  0  0  0
  1  2  1  0  0  0  0
  1  3  2  0  0  0  0
  1  4  1  0  0  0  0
  4  5  1  0  0  0  0
  4  6  1  0  0  0  0
  4  7  1  0  0  0  0
  7  8  1  0  0  0  0
  7  9  2  0  0  0  0
  9 10  1  0  0  0  0
  9 11  1  0  0  0  0
 11 12  1  0  0  0  0
 11 13  1  0  0  0  0
 11 14  1  0  0  0  0
 14 15  1  0  0  0  0
 14 16  1  0  0  0  0
 14 17  1  0  0  0  0
M  END
> <VConfSearch Rank>
695

> <Conf_Id>
39

> <Delta U+W>
-0.422

> <U+W>
-49.849

> <U>
14.465

> <W>
-64.314

> <W(PB)>
-66.406

> <W(SA)>
2.093

> <Valence>
14.072

> <Coulomb>
-0.199

> <VdW>
0.592

> <VdW6>
-5.019

> <VdW12>
5.611

> <Bond>
0.085

> <Angle>
2.748

> <Pdih>
11.238

> <Idih>
0.001

> <Tether>
0.000

$$$$
VeraChem MOL file


 17 16  0  0  0  0  0  0  0  0999 V2000     
   22.0424   21.6904   22.7680 C   0  0  0  0  0  0  0  0  0  0  0  0
   21.6462   22.8000   22.4701 O   0  5  0  0  0  0  0  0  0  0  0  0
   23.1939   21.3280   22.6282 O   0  0  0  0  0  0  0  0  0  0  0  0
   21.0408   20.7035   23.3533 C   0  0  0  0  0  0  0  0  0  0  0  0
   20.3996   21.2522   24.0528 H   0  0  0  0  0  0  0  0  0  0  0  0
   21.5940   19.9607   23.9404 H   0  0  0  0  0  0  0  0  0  0  0  0
   20.1948   20.0336   22.2873 C   0  0  0  0  0  0  0  0  0  0  0  0
   19.4963   20.6890   21.7680 H   0  0  0  0  0  0  0  0  0  0  0  0
   20.2703   18.7366   21.9738 C   0  0  0  0  0  0  0  0  0  0  0  0
   20.9711   18.0824   22.4915 H   0  0  0  0  0  0  0  0  0  0  0  0
   19.4286   18.0710   20.9080 C   0  0  0  0  0  0  0  0  0  0  0  0
   18.9491   18.8260   20.2698 H   0  0  0  0  0  0  0  0  0  0  0  0
   20.0702   17.4661   20.2530 H   0  0  0  0  0  0  0  0  0  0  0  0
   18.3456   17.1734   21.5378 C   0  0  0  0  0  0  0  0  0  0  0  0
   17.6752   17.7620   22.1779 H   0  0  0  0  0  0  0  0  0  0  0  0
   17.7386   16.6928   20.7596 H   0  0  0  0  0  0  0  0  0  0  0  0
   18.7993   16.3844   22.1518 H   0  0  0  0  0  0  0  0  0  0  0  0
  1  2  1  0  0  0  0
  1  3  2  0  0  0  0
  1  4  1  0  0  0  0
  4  5  1  0  0  0  0
  4  6  1  0  0  0  0
  4  7  1  0  0  0  0
  7  8  1  0  0  0  0
  7  9  2  0  0  0  0
  9 10  1  0  0  0  0
  9 11  1  0  0  0  0
 11 12  1  0  0  0  0
 11 13  1  0  0  0  0
 11 14  1  0  0  0  0
 14 15  1  0  0  0  0
 14 16  1  0  0  0  0
 14 17  1  0  0  0  0
M  END
> <VConfSearch Rank>
696

> <Conf_Id>
38

> <Delta U+W>
0.000

> <U+W>
-49.427

> <U>
13.666

> <W>
-63.093

> <W(PB)>
-65.225

> <W(SA)>
2.132

> <Valence>
15.226

> <Coulomb>
-1.822

> <VdW>
0.261

> <VdW6>
-4.165

> <VdW12>
4.426

> <Bond>
0.044

> <Angle>
2.229

> <Pdih>
12.953

> <Idih>
0.000

> <Tether>
0.000

$$$$
VeraChem MOL file


 17 16  0  0  0  0  0  0  0  0999 V2000     
   19.6837   20.0262   25.1513 C   0  0  0  0  0  0  0  0  0  0  0  0
   19.1260   19.1080   25.7193 O   0  5  0  0  0  0  0  0  0  0  0  0
   19.4685   21.1972   25.3952 O   0  0  0  0  0  0  0  0  0  0  0  0
   20.7127   19.6937   24.0788 C   0  0  0  0  0  0  0  0  0  0  0  0
   21.0934   18.6831   24.2701 H   0  0  0  0  0  0  0  0  0  0  0  0
   21.5569   20.3824   24.1995 H   0  0  0  0  0  0  0  0  0  0  0  0
   20.1464   19.8048   22.6761 C   0  0  0  0  0  0  0  0  0  0  0  0
   19.8944   20.8150   22.3549 H   0  0  0  0  0  0  0  0  0  0  0  0
   19.9514   18.7643   21.8602 C   0  0  0  0  0  0  0  0  0  0  0  0
   20.2006   17.7540   22.1831 H   0  0  0  0  0  0  0  0  0  0  0  0
   19.3829   18.8765   20.4632 C   0  0  0  0  0  0  0  0  0  0  0  0
   18.5839   18.1351   20.3275 H   0  0  0  0  0  0  0  0  0  0  0  0
   18.9254   19.8641   20.3126 H   0  0  0  0  0  0  0  0  0  0  0  0
   20.4766   18.6536   19.4006 C   0  0  0  0  0  0  0  0  0  0  0  0
   20.9256   17.6570   19.5037 H   0  0  0  0  0  0  0  0  0  0  0  0
   20.0580   18.7356   18.3891 H   0  0  0  0  0  0  0  0  0  0  0  0
   21.2751   19.4006   19.5004 H   0  0  0  0  0  0  0  0  0  0  0  0
  1  2  1  0  0  0  0
  1  3  2  0  0  0  0
  1  4  1  0  0  0  0
  4  5  1  0  0  0  0
  4  6  1  0  0  0  0
  4  7  1  0  0  0  0
  7  8  1  0  0  0  0
  7  9  2  0  0  0  0
  9 10  1  0  0  0  0
  9 11  1  0  0  0  0
 11 12  1  0  0  0  0
 11 13  1  0  0  0  0
 11 14  1  0  0  0  0
 14 15  1  0  0  0  0
 14 16  1  0  0  0  0
 14 17  1  0  0  0  0
M  END
> <VConfSearch Rank>
697

> <Conf_Id>
35

> <Delta U+W>
-0.102

> <U+W>
-49.529

> <U>
13.666

> <W>
-63.195

> <W(PB)>
-65.299

> <W(SA)>
2.103

> <Valence>
15.226

> <Coulomb>
-1.822

> <VdW>
0.261

> <VdW6>
-4.165

> <VdW12>
4.426

> <Bond>
0.044

> <Angle>
2.229

> <Pdih>
12.953

> <Idih>
0.000

> <Tether>
0.000

$$$$
VeraChem MOL file


 17 16  0  0  0  0  0  0  0  0999 V2000     
   19.2945   18.5240   19.4623 C   0  0  0  0  0  0  0  0  0  0  0  0
   20.2480   18.4286   18.7148 O   0  5  0  0  0  0  0  0  0  0  0  0
   18.3617   17.7450   19.4644 O   0  0  0  0  0  0  0  0  0  0  0  0
   19.2644   19.6893   20.4426 C   0  0  0  0  0  0  0  0  0  0  0  0
   18.2193   19.8843   20.7114 H   0  0  0  0  0  0  0  0  0  0  0  0
   19.6313   20.5784   19.9169 H   0  0  0  0  0  0  0  0  0  0  0  0
   20.1061   19.4306   21.6779 C   0  0  0  0  0  0  0  0  0  0  0  0
   21.1784   19.3853   21.4956 H   0  0  0  0  0  0  0  0  0  0  0  0
   19.5991   19.2617   22.9055 C   0  0  0  0  0  0  0  0  0  0  0  0
   18.5200   19.3094   23.0485 H   0  0  0  0  0  0  0  0  0  0  0  0
   20.3802   18.9965   24.1815 C   0  0  0  0  0  0  0  0  0  0  0  0
   20.1446   19.7808   24.9135 H   0  0  0  0  0  0  0  0  0  0  0  0
   20.0240   18.0587   24.6289 H   0  0  0  0  0  0  0  0  0  0  0  0
   21.9126   18.9182   24.0036 C   0  0  0  0  0  0  0  0  0  0  0  0
   22.3120   19.8611   23.6077 H   0  0  0  0  0  0  0  0  0  0  0  0
   22.4024   18.7239   24.9666 H   0  0  0  0  0  0  0  0  0  0  0  0
   22.1884   18.1074   23.3166 H   0  0  0  0  0  0  0  0  0  0  0  0
  1  2  1  0  0  0  0
  1  3  2  0  0  0  0
  1  4  1  0  0  0  0
  4  5  1  0  0  0  0
  4  6  1  0  0  0  0
  4  7  1  0  0  0  0
  7  8  1  0  0  0  0
  7  9  2  0  0  0  0
  9 10  1  0  0  0  0
  9 11  1  0  0  0  0
 11 12  1  0  0  0  0
 11 13  1  0  0  0  0
 11 14  1  0  0  0  0
 14 15  1  0  0  0  0
 14 16  1  0  0  0  0
 14 17  1  0  0  0  0
M  END
> <VConfSearch Rank>
698

> <Conf_Id>
19

> <Delta U+W>
-0.496

> <U+W>
-49.923

> <U>
13.863

> <W>
-63.786

> <W(PB)>
-65.856

> <W(SA)>
2.070

> <Valence>
14.117

> <Coulomb>
-1.228

> <VdW>
0.974

> <VdW6>
-4.885

> <VdW12>
5.859

> <Bond>
0.094

> <Angle>
2.818

> <Pdih>
11.205

> <Idih>
0.000

> <Tether>
0.000

$$$$
VeraChem MOL file


 17 16  0  0  0  0  0  0  0  0999 V2000     
   17.7155   17.4358   22.1639 C   0  0  0  0  0  0  0  0  0  0  0  0
   17.6878   16.9787   23.2896 O   0  5  0  0  0  0  0  0  0  0  0  0
   16.7488   17.9250   21.6133 O   0  0  0  0  0  0  0  0  0  0  0  0
   19.0294   17.3842   21.3954 C   0  0  0  0  0  0  0  0  0  0  0  0
   18.8021   17.0938   20.3631 H   0  0  0  0  0  0  0  0  0  0  0  0
   19.6470   16.5860   21.8247 H   0  0  0  0  0  0  0  0  0  0  0  0
   19.7654   18.7103   21.4134 C   0  0  0  0  0  0  0  0  0  0  0  0
   19.2806   19.5187   20.8668 H   0  0  0  0  0  0  0  0  0  0  0  0
   20.9230   18.9184   22.0480 C   0  0  0  0  0  0  0  0  0  0  0  0
   21.4048   18.1111   22.5987 H   0  0  0  0  0  0  0  0  0  0  0  0
   21.6538   20.2424   22.0672 C   0  0  0  0  0  0  0  0  0  0  0  0
   22.7136   20.0848   21.8251 H   0  0  0  0  0  0  0  0  0  0  0  0
   21.2510   20.9150   21.2974 H   0  0  0  0  0  0  0  0  0  0  0  0
   21.5370   20.9190   23.4469 C   0  0  0  0  0  0  0  0  0  0  0  0
   21.9680   20.2842   24.2322 H   0  0  0  0  0  0  0  0  0  0  0  0
   22.0685   21.8794   23.4551 H   0  0  0  0  0  0  0  0  0  0  0  0
   20.4855   21.1091   23.6999 H   0  0  0  0  0  0  0  0  0  0  0  0
  1  2  1  0  0  0  0
  1  3  2  0  0  0  0
  1  4  1  0  0  0  0
  4  5  1  0  0  0  0
  4  6  1  0  0  0  0
  4  7  1  0  0  0  0
  7  8  1  0  0  0  0
  7  9  2  0  0  0  0
  9 10  1  0  0  0  0
  9 11  1  0  0  0  0
 11 12  1  0  0  0  0
 11 13  1  0  0  0  0
 11 14  1  0  0  0  0
 14 15  1  0  0  0  0
 14 16  1  0  0  0  0
 14 17  1  0  0  0  0
M  END
> <VConfSearch Rank>
699

> <Conf_Id>
7

> <Delta U+W>
-0.041

> <U+W>
-49.468

> <U>
14.121

> <W>
-63.589

> <W(PB)>
-65.660

> <W(SA)>
2.071

> <Valence>
15.230

> <Coulomb>
-1.333

> <VdW>
0.224

> <VdW6>
-4.212

> <VdW12>
4.436

> <Bond>
0.044

> <Angle>
2.230

> <Pdih>
12.956

> <Idih>
0.000

> <Tether>
0.000

$$$$
VeraChem MOL file


 17 16  0  0  0  0  0  0  0  0999 V2000     
   20.5451   16.8735   23.5693 C   0  0  0  0  0  0  0  0  0  0  0  0
   21.6447   17.0608   24.0518 O   0  5  0  0  0  0  0  0  0  0  0  0
   20.2733   15.9183   22.8688 O   0  0  0  0  0  0  0  0  0  0  0  0
   19.4391   17.8766   23.8824 C   0  0  0  0  0  0  0  0  0  0  0  0
   19.6195   18.2731   24.8883 H   0  0  0  0  0  0  0  0  0  0  0  0
   18.4930   17.3258   23.9407 H   0  0  0  0  0  0  0  0  0  0  0  0
   19.2988   19.0287   22.8976 C   0  0  0  0  0  0  0  0  0  0  0  0
   18.5036   19.7327   23.1397 H   0  0  0  0  0  0  0  0  0  0  0  0
   20.0502   19.2284   21.8083 C   0  0  0  0  0  0  0  0  0  0  0  0
   20.8523   18.5403   21.5440 H   0  0  0  0  0  0  0  0  0  0  0  0
   19.8683   20.3918   20.8589 C   0  0  0  0  0  0  0  0  0  0  0  0
   19.8540   20.0261   19.8232 H   0  0  0  0  0  0  0  0  0  0  0  0
   18.9012   20.8833   21.0328 H   0  0  0  0  0  0  0  0  0  0  0  0
   21.0014   21.4233   21.0237 C   0  0  0  0  0  0  0  0  0  0  0  0
   20.8651   22.2644   20.3316 H   0  0  0  0  0  0  0  0  0  0  0  0
   21.0191   21.8227   22.0463 H   0  0  0  0  0  0  0  0  0  0  0  0
   21.9788   20.9674   20.8179 H   0  0  0  0  0  0  0  0  0  0  0  0
  1  2  1  0  0  0  0
  1  3  2  0  0  0  0
  1  4  1  0  0  0  0
  4  5  1  0  0  0  0
  4  6  1  0  0  0  0
  4  7  1  0  0  0  0
  7  8  1  0  0  0  0
  7  9  2  0  0  0  0
  9 10  1  0  0  0  0
  9 11  1  0  0  0  0
 11 12  1  0  0  0  0
 11 13  1  0  0  0  0
 11 14  1  0  0  0  0
 14 15  1  0  0  0  0
 14 16  1  0  0  0  0
 14 17  1  0  0  0  0
M  END
> <VConfSearch Rank>
700

> <Conf_Id>
39

> <Delta U+W>
-0.422

> <U+W>
-49.849

> <U>
14.465

> <W>
-64.314

> <W(PB)>
-66.406

> <W(SA)>
2.093

> <Valence>
14.072

> <Coulomb>
-0.199

> <VdW>
0.592

> <VdW6>
-5.019

> <VdW12>
5.611

> <Bond>
0.085

> <Angle>
2.748

> <Pdih>
11.238

> <Idih>
0.001

> <Tether>
0.000

$$$$
VeraChem MOL file


 17 16  0  0  0  0  0  0  0  0999 V2000     
   19.0364   21.6779   20.3488 C   0  0  0  0  0  0  0  0  0  0  0  0
   19.0670   22.7799   20.8603 O   0  5  0  0  0  0  0  0  0  0  0  0
   18.1200   21.2848   19.6542 O   0  0  0  0  0  0  0  0  0  0  0  0
   20.2140   20.7423   20.5882 C   0  0  0  0  0  0  0  0  0  0  0  0
   21.1324   21.3379   20.5295 H   0  0  0  0  0  0  0  0  0  0  0  0
   20.2488   20.0173   19.7662 H   0  0  0  0  0  0  0  0  0  0  0  0
   20.1341   20.0395   21.9300 C   0  0  0  0  0  0  0  0  0  0  0  0
   20.2557   20.6837   22.8004 H   0  0  0  0  0  0  0  0  0  0  0  0
   19.9281   18.7275   22.0796 C   0  0  0  0  0  0  0  0  0  0  0  0
   19.8036   18.0844   21.2090 H   0  0  0  0  0  0  0  0  0  0  0  0
   19.8449   18.0290   23.4185 C   0  0  0  0  0  0  0  0  0  0  0  0
   19.7209   18.7621   24.2274 H   0  0  0  0  0  0  0  0  0  0  0  0
   18.9595   17.3794   23.4433 H   0  0  0  0  0  0  0  0  0  0  0  0
   21.1079   17.1864   23.6830 C   0  0  0  0  0  0  0  0  0  0  0  0
   22.0049   17.8196   23.6884 H   0  0  0  0  0  0  0  0  0  0  0  0
   21.0414   16.6816   24.6556 H   0  0  0  0  0  0  0  0  0  0  0  0
   21.2358   16.4186   22.9087 H   0  0  0  0  0  0  0  0  0  0  0  0
  1  2  1  0  0  0  0
  1  3  2  0  0  0  0
  1  4  1  0  0  0  0
  4  5  1  0  0  0  0
  4  6  1  0  0  0  0
  4  7  1  0  0  0  0
  7  8  1  0  0  0  0
  7  9  2  0  0  0  0
  9 10  1  0  0  0  0
  9 11  1  0  0  0  0
 11 12  1  0  0  0  0
 11 13  1  0  0  0  0
 11 14  1  0  0  0  0
 14 15  1  0  0  0  0
 14 16  1  0  0  0  0
 14 17  1  0  0  0  0
M  END
> <VConfSearch Rank>
701

> <Conf_Id>
38

> <Delta U+W>
0.000

> <U+W>
-49.427

> <U>
13.666

> <W>
-63.093

> <W(PB)>
-65.225

> <W(SA)>
2.132

> <Valence>
15.226

> <Coulomb>
-1.822

> <VdW>
0.261

> <VdW6>
-4.165

> <VdW12>
4.426

> <Bond>
0.044

> <Angle>
2.229

> <Pdih>
12.953

> <Idih>
0.000

> <Tether>
0.000

$$$$
VeraChem MOL file


 17 16  0  0  0  0  0  0  0  0999 V2000     
   19.9015   22.1146   23.4753 C   0  0  0  0  0  0  0  0  0  0  0  0
   20.9914   22.4114   23.9237 O   0  5  0  0  0  0  0  0  0  0  0  0
   18.8522   22.3852   24.0255 O   0  0  0  0  0  0  0  0  0  0  0  0
   19.8451   21.3677   22.1492 C   0  0  0  0  0  0  0  0  0  0  0  0
   20.7714   21.5740   21.5996 H   0  0  0  0  0  0  0  0  0  0  0  0
   19.0225   21.7908   21.5612 H   0  0  0  0  0  0  0  0  0  0  0  0
   19.6416   19.8757   22.3311 C   0  0  0  0  0  0  0  0  0  0  0  0
   18.6690   19.5837   22.7261 H   0  0  0  0  0  0  0  0  0  0  0  0
   20.5630   18.9513   22.0431 C   0  0  0  0  0  0  0  0  0  0  0  0
   21.5365   19.2442   21.6512 H   0  0  0  0  0  0  0  0  0  0  0  0
   20.3598   17.4642   22.2289 C   0  0  0  0  0  0  0  0  0  0  0  0
   21.2217   17.0355   22.7579 H   0  0  0  0  0  0  0  0  0  0  0  0
   19.4778   17.2721   22.8554 H   0  0  0  0  0  0  0  0  0  0  0  0
   20.1854   16.7553   20.8717 C   0  0  0  0  0  0  0  0  0  0  0  0
   21.0706   16.8989   20.2381 H   0  0  0  0  0  0  0  0  0  0  0  0
   20.0391   15.6765   21.0128 H   0  0  0  0  0  0  0  0  0  0  0  0
   19.3128   17.1501   20.3348 H   0  0  0  0  0  0  0  0  0  0  0  0
  1  2  1  0  0  0  0
  1  3  2  0  0  0  0
  1  4  1  0  0  0  0
  4  5  1  0  0  0  0
  4  6  1  0  0  0  0
  4  7  1  0  0  0  0
  7  8  1  0  0  0  0
  7  9  2  0  0  0  0
  9 10  1  0  0  0  0
  9 11  1  0  0  0  0
 11 12  1  0  0  0  0
 11 13  1  0  0  0  0
 11 14  1  0  0  0  0
 14 15  1  0  0  0  0
 14 16  1  0  0  0  0
 14 17  1  0  0  0  0
M  END
> <VConfSearch Rank>
702

> <Conf_Id>
35

> <Delta U+W>
-0.102

> <U+W>
-49.529

> <U>
13.666

> <W>
-63.195

> <W(PB)>
-65.299

> <W(SA)>
2.103

> <Valence>
15.226

> <Coulomb>
-1.822

> <VdW>
0.261

> <VdW6>
-4.165

> <VdW12>
4.426

> <Bond>
0.044

> <Angle>
2.229

> <Pdih>
12.953

> <Idih>
0.000

> <Tether>
0.000

$$$$
VeraChem MOL file


 17 16  0  0  0  0  0  0  0  0999 V2000     
   21.9659   16.7818   22.7495 C   0  0  0  0  0  0  0  0  0  0  0  0
   21.8162   16.4139   23.8980 O   0  5  0  0  0  0  0  0  0  0  0  0
   22.0054   16.0235   21.8007 O   0  0  0  0  0  0  0  0  0  0  0  0
   22.1217   18.2742   22.4881 C   0  0  0  0  0  0  0  0  0  0  0  0
   22.6582   18.4021   21.5402 H   0  0  0  0  0  0  0  0  0  0  0  0
   22.7615   18.6871   23.2765 H   0  0  0  0  0  0  0  0  0  0  0  0
   20.7906   19.0013   22.4638 C   0  0  0  0  0  0  0  0  0  0  0  0
   20.2799   19.0462   23.4242 H   0  0  0  0  0  0  0  0  0  0  0  0
   20.2584   19.5490   21.3640 C   0  0  0  0  0  0  0  0  0  0  0  0
   20.7969   19.4803   20.4194 H   0  0  0  0  0  0  0  0  0  0  0  0
   18.9331   20.2858   21.2674 C   0  0  0  0  0  0  0  0  0  0  0  0
   19.1144   21.2966   20.8777 H   0  0  0  0  0  0  0  0  0  0  0  0
   18.3031   19.7890   20.5171 H   0  0  0  0  0  0  0  0  0  0  0  0
   18.1474   20.3912   22.5931 C   0  0  0  0  0  0  0  0  0  0  0  0
   18.7270   20.9319   23.3527 H   0  0  0  0  0  0  0  0  0  0  0  0
   17.2054   20.9337   22.4401 H   0  0  0  0  0  0  0  0  0  0  0  0
   17.9019   19.3956   22.9857 H   0  0  0  0  0  0  0  0  0  0  0  0
  1  2  1  0  0  0  0
  1  3  2  0  0  0  0
  1  4  1  0  0  0  0
  4  5  1  0  0  0  0
  4  6  1  0  0  0  0
  4  7  1  0  0  0  0
  7  8  1  0  0  0  0
  7  9  2  0  0  0  0
  9 10  1  0  0  0  0
  9 11  1  0  0  0  0
 11 12  1  0  0  0  0
 11 13  1  0  0  0  0
 11 14  1  0  0  0  0
 14 15  1  0  0  0  0
 14 16  1  0  0  0  0
 14 17  1  0  0  0  0
M  END
> <VConfSearch Rank>
703

> <Conf_Id>
19

> <Delta U+W>
-0.496

> <U+W>
-49.923

> <U>
13.863

> <W>
-63.786

> <W(PB)>
-65.856

> <W(SA)>
2.070

> <Valence>
14.117

> <Coulomb>
-1.228

> <VdW>
0.974

> <VdW6>
-4.885

> <VdW12>
5.859

> <Bond>
0.094

> <Angle>
2.818

> <Pdih>
11.205

> <Idih>
0.000

> <Tether>
0.000

$$$$
VeraChem MOL file


 17 16  0  0  0  0  0  0  0  0999 V2000     
   22.9077   19.3134   21.2140 C   0  0  0  0  0  0  0  0  0  0  0  0
   23.5517   18.7803   22.0959 O   0  5  0  0  0  0  0  0  0  0  0  0
   23.0768   19.0924   20.0309 O   0  0  0  0  0  0  0  0  0  0  0  0
   21.8370   20.3218   21.6099 C   0  0  0  0  0  0  0  0  0  0  0  0
   21.9001   21.1671   20.9149 H   0  0  0  0  0  0  0  0  0  0  0  0
   22.0807   20.7074   22.6072 H   0  0  0  0  0  0  0  0  0  0  0  0
   20.4415   19.7281   21.5827 C   0  0  0  0  0  0  0  0  0  0  0  0
   20.0680   19.4633   20.5939 H   0  0  0  0  0  0  0  0  0  0  0  0
   19.6923   19.5201   22.6697 C   0  0  0  0  0  0  0  0  0  0  0  0
   20.0683   19.7803   23.6586 H   0  0  0  0  0  0  0  0  0  0  0  0
   18.3021   18.9252   22.6406 C   0  0  0  0  0  0  0  0  0  0  0  0
   17.6230   19.5395   23.2473 H   0  0  0  0  0  0  0  0  0  0  0  0
   17.9029   18.9308   21.6170 H   0  0  0  0  0  0  0  0  0  0  0  0
   18.3069   17.4809   23.1780 C   0  0  0  0  0  0  0  0  0  0  0  0
   18.6655   17.4501   24.2152 H   0  0  0  0  0  0  0  0  0  0  0  0
   17.2958   17.0539   23.1542 H   0  0  0  0  0  0  0  0  0  0  0  0
   18.9613   16.8414   22.5709 H   0  0  0  0  0  0  0  0  0  0  0  0
  1  2  1  0  0  0  0
  1  3  2  0  0  0  0
  1  4  1  0  0  0  0
  4  5  1  0  0  0  0
  4  6  1  0  0  0  0
  4  7  1  0  0  0  0
  7  8  1  0  0  0  0
  7  9  2  0  0  0  0
  9 10  1  0  0  0  0
  9 11  1  0  0  0  0
 11 12  1  0  0  0  0
 11 13  1  0  0  0  0
 11 14  1  0  0  0  0
 14 15  1  0  0  0  0
 14 16  1  0  0  0  0
 14 17  1  0  0  0  0
M  END
> <VConfSearch Rank>
704

> <Conf_Id>
7

> <Delta U+W>
-0.041

> <U+W>
-49.468

> <U>
14.121

> <W>
-63.589

> <W(PB)>
-65.660

> <W(SA)>
2.071

> <Valence>
15.230

> <Coulomb>
-1.333

> <VdW>
0.224

> <VdW6>
-4.212

> <VdW12>
4.436

> <Bond>
0.044

> <Angle>
2.230

> <Pdih>
12.956

> <Idih>
0.000

> <Tether>
0.000

$$$$
VeraChem MOL file


 17 16  0  0  0  0  0  0  0  0999 V2000     
   18.3480   17.8630   23.8360 C   0  0  0  0  0  0  0  0  0  0  0  0
   18.5942   16.7224   23.4964 O   0  5  0  0  0  0  0  0  0  0  0  0
   17.2327   18.3453   23.8098 O   0  0  0  0  0  0  0  0  0  0  0  0
   19.4958   18.7272   24.3492 C   0  0  0  0  0  0  0  0  0  0  0  0
   20.2146   18.0685   24.8503 H   0  0  0  0  0  0  0  0  0  0  0  0
   19.0970   19.3867   25.1287 H   0  0  0  0  0  0  0  0  0  0  0  0
   20.2142   19.5585   23.2958 C   0  0  0  0  0  0  0  0  0  0  0  0
   21.0297   20.1678   23.6834 H   0  0  0  0  0  0  0  0  0  0  0  0
   19.9284   19.5897   21.9887 C   0  0  0  0  0  0  0  0  0  0  0  0
   19.1187   18.9895   21.5752 H   0  0  0  0  0  0  0  0  0  0  0  0
   20.6741   20.4366   20.9815 C   0  0  0  0  0  0  0  0  0  0  0  0
   19.9572   20.9811   20.3522 H   0  0  0  0  0  0  0  0  0  0  0  0
   21.2843   21.1944   21.4919 H   0  0  0  0  0  0  0  0  0  0  0  0
   21.5820   19.5664   20.0906 C   0  0  0  0  0  0  0  0  0  0  0  0
   22.1195   20.1858   19.3609 H   0  0  0  0  0  0  0  0  0  0  0  0
   22.3250   19.0311   20.6965 H   0  0  0  0  0  0  0  0  0  0  0  0
   20.9921   18.8233   19.5381 H   0  0  0  0  0  0  0  0  0  0  0  0
  1  2  1  0  0  0  0
  1  3  2  0  0  0  0
  1  4  1  0  0  0  0
  4  5  1  0  0  0  0
  4  6  1  0  0  0  0
  4  7  1  0  0  0  0
  7  8  1  0  0  0  0
  7  9  2  0  0  0  0
  9 10  1  0  0  0  0
  9 11  1  0  0  0  0
 11 12  1  0  0  0  0
 11 13  1  0  0  0  0
 11 14  1  0  0  0  0
 14 15  1  0  0  0  0
 14 16  1  0  0  0  0
 14 17  1  0  0  0  0
M  END
> <VConfSearch Rank>
705

> <Conf_Id>
39

> <Delta U+W>
-0.422

> <U+W>
-49.849

> <U>
14.465

> <W>
-64.314

> <W(PB)>
-66.406

> <W(SA)>
2.093

> <Valence>
14.072

> <Coulomb>
-0.199

> <VdW>
0.592

> <VdW6>
-5.019

> <VdW12>
5.611

> <Bond>
0.085

> <Angle>
2.748

> <Pdih>
11.238

> <Idih>
0.001

> <Tether>
0.000

$$$$
VeraChem MOL file


 17 16  0  0  0  0  0  0  0  0999 V2000     
   20.9280   21.7783   20.3523 C   0  0  0  0  0  0  0  0  0  0  0  0
   20.6752   21.7160   19.1652 O   0  5  0  0  0  0  0  0  0  0  0  0
   21.9528   22.2567   20.7969 O   0  0  0  0  0  0  0  0  0  0  0  0
   19.9007   21.2313   21.3347 C   0  0  0  0  0  0  0  0  0  0  0  0
   18.9069   21.5272   20.9795 H   0  0  0  0  0  0  0  0  0  0  0  0
   20.0553   21.7236   22.3024 H   0  0  0  0  0  0  0  0  0  0  0  0
   19.9761   19.7228   21.4741 C   0  0  0  0  0  0  0  0  0  0  0  0
   19.6767   19.1586   20.5913 H   0  0  0  0  0  0  0  0  0  0  0  0
   20.3776   19.0898   22.5806 C   0  0  0  0  0  0  0  0  0  0  0  0
   20.6798   19.6546   23.4620 H   0  0  0  0  0  0  0  0  0  0  0  0
   20.4558   17.5856   22.7165 C   0  0  0  0  0  0  0  0  0  0  0  0
   20.3888   17.1065   21.7300 H   0  0  0  0  0  0  0  0  0  0  0  0
   21.4290   17.3016   23.1393 H   0  0  0  0  0  0  0  0  0  0  0  0
   19.3274   17.0518   23.6204 C   0  0  0  0  0  0  0  0  0  0  0  0
   18.3428   17.3018   23.2037 H   0  0  0  0  0  0  0  0  0  0  0  0
   19.3897   15.9599   23.7157 H   0  0  0  0  0  0  0  0  0  0  0  0
   19.3932   17.4859   24.6267 H   0  0  0  0  0  0  0  0  0  0  0  0
  1  2  1  0  0  0  0
  1  3  2  0  0  0  0
  1  4  1  0  0  0  0
  4  5  1  0  0  0  0
  4  6  1  0  0  0  0
  4  7  1  0  0  0  0
  7  8  1  0  0  0  0
  7  9  2  0  0  0  0
  9 10  1  0  0  0  0
  9 11  1  0  0  0  0
 11 12  1  0  0  0  0
 11 13  1  0  0  0  0
 11 14  1  0  0  0  0
 14 15  1  0  0  0  0
 14 16  1  0  0  0  0
 14 17  1  0  0  0  0
M  END
> <VConfSearch Rank>
706

> <Conf_Id>
38

> <Delta U+W>
0.000

> <U+W>
-49.427

> <U>
13.666

> <W>
-63.093

> <W(PB)>
-65.225

> <W(SA)>
2.132

> <Valence>
15.226

> <Coulomb>
-1.822

> <VdW>
0.261

> <VdW6>
-4.165

> <VdW12>
4.426

> <Bond>
0.044

> <Angle>
2.229

> <Pdih>
12.953

> <Idih>
0.000

> <Tether>
0.000

$$$$
VeraChem MOL file


 17 16  0  0  0  0  0  0  0  0999 V2000     
   19.4818   19.1819   18.9995 C   0  0  0  0  0  0  0  0  0  0  0  0
   19.0693   18.0774   18.7052 O   0  5  0  0  0  0  0  0  0  0  0  0
   20.2148   19.8377   18.2857 O   0  0  0  0  0  0  0  0  0  0  0  0
   19.0538   19.7810   20.3327 C   0  0  0  0  0  0  0  0  0  0  0  0
   18.1142   19.3046   20.6371 H   0  0  0  0  0  0  0  0  0  0  0  0
   18.8364   20.8428   20.1684 H   0  0  0  0  0  0  0  0  0  0  0  0
   20.1143   19.6267   21.4061 C   0  0  0  0  0  0  0  0  0  0  0  0
   21.0230   20.2070   21.2489 H   0  0  0  0  0  0  0  0  0  0  0  0
   19.9858   18.8441   22.4819 C   0  0  0  0  0  0  0  0  0  0  0  0
   19.0782   18.2617   22.6368 H   0  0  0  0  0  0  0  0  0  0  0  0
   21.0460   18.6884   23.5492 C   0  0  0  0  0  0  0  0  0  0  0  0
   21.2081   17.6222   23.7579 H   0  0  0  0  0  0  0  0  0  0  0  0
   22.0065   19.0906   23.1986 H   0  0  0  0  0  0  0  0  0  0  0  0
   20.6347   19.4093   24.8477 C   0  0  0  0  0  0  0  0  0  0  0  0
   19.6953   19.0002   25.2422 H   0  0  0  0  0  0  0  0  0  0  0  0
   21.4075   19.2922   25.6186 H   0  0  0  0  0  0  0  0  0  0  0  0
   20.4918   20.4832   24.6690 H   0  0  0  0  0  0  0  0  0  0  0  0
  1  2  1  0  0  0  0
  1  3  2  0  0  0  0
  1  4  1  0  0  0  0
  4  5  1  0  0  0  0
  4  6  1  0  0  0  0
  4  7  1  0  0  0  0
  7  8  1  0  0  0  0
  7  9  2  0  0  0  0
  9 10  1  0  0  0  0
  9 11  1  0  0  0  0
 11 12  1  0  0  0  0
 11 13  1  0  0  0  0
 11 14  1  0  0  0  0
 14 15  1  0  0  0  0
 14 16  1  0  0  0  0
 14 17  1  0  0  0  0
M  END
> <VConfSearch Rank>
707

> <Conf_Id>
35

> <Delta U+W>
-0.102

> <U+W>
-49.529

> <U>
13.666

> <W>
-63.195

> <W(PB)>
-65.299

> <W(SA)>
2.103

> <Valence>
15.226

> <Coulomb>
-1.822

> <VdW>
0.261

> <VdW6>
-4.165

> <VdW12>
4.426

> <Bond>
0.044

> <Angle>
2.229

> <Pdih>
12.953

> <Idih>
0.000

> <Tether>
0.000

$$$$
VeraChem MOL file


 17 16  0  0  0  0  0  0  0  0999 V2000     
   20.3103   21.9181   21.3367 C   0  0  0  0  0  0  0  0  0  0  0  0
   21.4599   22.3122   21.3284 O   0  5  0  0  0  0  0  0  0  0  0  0
   19.5207   22.1302   20.4376 O   0  0  0  0  0  0  0  0  0  0  0  0
   19.8324   21.1235   22.5450 C   0  0  0  0  0  0  0  0  0  0  0  0
   18.7419   21.2201   22.6095 H   0  0  0  0  0  0  0  0  0  0  0  0
   20.2494   21.5953   23.4422 H   0  0  0  0  0  0  0  0  0  0  0  0
   20.2480   19.6658   22.4824 C   0  0  0  0  0  0  0  0  0  0  0  0
   21.3190   19.4944   22.5751 H   0  0  0  0  0  0  0  0  0  0  0  0
   19.3901   18.6506   22.3212 C   0  0  0  0  0  0  0  0  0  0  0  0
   18.3252   18.8614   22.2275 H   0  0  0  0  0  0  0  0  0  0  0  0
   19.7362   17.1730   22.2463 C   0  0  0  0  0  0  0  0  0  0  0  0
   19.1888   16.6381   23.0341 H   0  0  0  0  0  0  0  0  0  0  0  0
   19.3601   16.7666   21.2977 H   0  0  0  0  0  0  0  0  0  0  0  0
   21.2413   16.8488   22.3704 C   0  0  0  0  0  0  0  0  0  0  0  0
   21.6406   17.1936   23.3333 H   0  0  0  0  0  0  0  0  0  0  0  0
   21.4083   15.7657   22.3059 H   0  0  0  0  0  0  0  0  0  0  0  0
   21.8147   17.3259   21.5648 H   0  0  0  0  0  0  0  0  0  0  0  0
  1  2  1  0  0  0  0
  1  3  2  0  0  0  0
  1  4  1  0  0  0  0
  4  5  1  0  0  0  0
  4  6  1  0  0  0  0
  4  7  1  0  0  0  0
  7  8  1  0  0  0  0
  7  9  2  0  0  0  0
  9 10  1  0  0  0  0
  9 11  1  0  0  0  0
 11 12  1  0  0  0  0
 11 13  1  0  0  0  0
 11 14  1  0  0  0  0
 14 15  1  0  0  0  0
 14 16  1  0  0  0  0
 14 17  1  0  0  0  0
M  END
> <VConfSearch Rank>
708

> <Conf_Id>
19

> <Delta U+W>
-0.496

> <U+W>
-49.923

> <U>
13.863

> <W>
-63.786

> <W(PB)>
-65.856

> <W(SA)>
2.070

> <Valence>
14.117

> <Coulomb>
-1.228

> <VdW>
0.974

> <VdW6>
-4.885

> <VdW12>
5.859

> <Bond>
0.094

> <Angle>
2.818

> <Pdih>
11.205

> <Idih>
0.000

> <Tether>
0.000

$$$$
VeraChem MOL file


 17 16  0  0  0  0  0  0  0  0999 V2000     
   20.5155   21.9635   21.9162 C   0  0  0  0  0  0  0  0  0  0  0  0
   20.5240   22.1009   20.7088 O   0  5  0  0  0  0  0  0  0  0  0  0
   19.8715   22.6683   22.6682 O   0  0  0  0  0  0  0  0  0  0  0  0
   21.3659   20.8552   22.5232 C   0  0  0  0  0  0  0  0  0  0  0  0
   21.8508   21.2584   23.4197 H   0  0  0  0  0  0  0  0  0  0  0  0
   22.1626   20.6054   21.8122 H   0  0  0  0  0  0  0  0  0  0  0  0
   20.5506   19.6268   22.8798 C   0  0  0  0  0  0  0  0  0  0  0  0
   19.8397   19.7609   23.6946 H   0  0  0  0  0  0  0  0  0  0  0  0
   20.6587   18.4476   22.2601 C   0  0  0  0  0  0  0  0  0  0  0  0
   21.3661   18.3155   21.4421 H   0  0  0  0  0  0  0  0  0  0  0  0
   19.8427   17.2247   22.6154 C   0  0  0  0  0  0  0  0  0  0  0  0
   20.5037   16.3527   22.7111 H   0  0  0  0  0  0  0  0  0  0  0  0
   19.3540   17.3587   23.5902 H   0  0  0  0  0  0  0  0  0  0  0  0
   18.7724   16.9430   21.5430 C   0  0  0  0  0  0  0  0  0  0  0  0
   19.2362   16.7665   20.5636 H   0  0  0  0  0  0  0  0  0  0  0  0
   18.1830   16.0550   21.8059 H   0  0  0  0  0  0  0  0  0  0  0  0
   18.0840   17.7930   21.4469 H   0  0  0  0  0  0  0  0  0  0  0  0
  1  2  1  0  0  0  0
  1  3  2  0  0  0  0
  1  4  1  0  0  0  0
  4  5  1  0  0  0  0
  4  6  1  0  0  0  0
  4  7  1  0  0  0  0
  7  8  1  0  0  0  0
  7  9  2  0  0  0  0
  9 10  1  0  0  0  0
  9 11  1  0  0  0  0
 11 12  1  0  0  0  0
 11 13  1  0  0  0  0
 11 14  1  0  0  0  0
 14 15  1  0  0  0  0
 14 16  1  0  0  0  0
 14 17  1  0  0  0  0
M  END
> <VConfSearch Rank>
709

> <Conf_Id>
7

> <Delta U+W>
-0.041

> <U+W>
-49.468

> <U>
14.121

> <W>
-63.589

> <W(PB)>
-65.660

> <W(SA)>
2.071

> <Valence>
15.230

> <Coulomb>
-1.333

> <VdW>
0.224

> <VdW6>
-4.212

> <VdW12>
4.436

> <Bond>
0.044

> <Angle>
2.230

> <Pdih>
12.956

> <Idih>
0.000

> <Tether>
0.000

$$$$
VeraChem MOL file


 17 16  0  0  0  0  0  0  0  0999 V2000     
   21.3353   21.2960   20.8239 C   0  0  0  0  0  0  0  0  0  0  0  0
   22.5094   21.0507   21.0201 O   0  5  0  0  0  0  0  0  0  0  0  0
   20.8301   22.3793   21.0435 O   0  0  0  0  0  0  0  0  0  0  0  0
   20.4544   20.1932   20.2448 C   0  0  0  0  0  0  0  0  0  0  0  0
   21.0791   19.5712   19.5931 H   0  0  0  0  0  0  0  0  0  0  0  0
   19.7125   20.6651   19.5902 H   0  0  0  0  0  0  0  0  0  0  0  0
   19.7476   19.3127   21.2657 C   0  0  0  0  0  0  0  0  0  0  0  0
   19.1241   18.5324   20.8311 H   0  0  0  0  0  0  0  0  0  0  0  0
   19.8365   19.4242   22.5963 C   0  0  0  0  0  0  0  0  0  0  0  0
   20.4535   20.1951   23.0565 H   0  0  0  0  0  0  0  0  0  0  0  0
   19.1104   18.5221   23.5694 C   0  0  0  0  0  0  0  0  0  0  0  0
   18.6118   19.1299   24.3366 H   0  0  0  0  0  0  0  0  0  0  0  0
   18.3221   17.9556   23.0548 H   0  0  0  0  0  0  0  0  0  0  0  0
   20.0855   17.5393   24.2463 C   0  0  0  0  0  0  0  0  0  0  0  0
   19.5536   16.8882   24.9522 H   0  0  0  0  0  0  0  0  0  0  0  0
   20.5778   16.9023   23.4996 H   0  0  0  0  0  0  0  0  0  0  0  0
   20.8638   18.0796   24.8011 H   0  0  0  0  0  0  0  0  0  0  0  0
  1  2  1  0  0  0  0
  1  3  2  0  0  0  0
  1  4  1  0  0  0  0
  4  5  1  0  0  0  0
  4  6  1  0  0  0  0
  4  7  1  0  0  0  0
  7  8  1  0  0  0  0
  7  9  2  0  0  0  0
  9 10  1  0  0  0  0
  9 11  1  0  0  0  0
 11 12  1  0  0  0  0
 11 13  1  0  0  0  0
 11 14  1  0  0  0  0
 14 15  1  0  0  0  0
 14 16  1  0  0  0  0
 14 17  1  0  0  0  0
M  END
> <VConfSearch Rank>
710

> <Conf_Id>
39

> <Delta U+W>
-0.422

> <U+W>
-49.849

> <U>
14.465

> <W>
-64.314

> <W(PB)>
-66.406

> <W(SA)>
2.093

> <Valence>
14.072

> <Coulomb>
-0.199

> <VdW>
0.592

> <VdW6>
-5.019

> <VdW12>
5.611

> <Bond>
0.085

> <Angle>
2.748

> <Pdih>
11.238

> <Idih>
0.001

> <Tether>
0.000

$$$$
VeraChem MOL file


 17 16  0  0  0  0  0  0  0  0999 V2000     
   17.8284   17.4038   23.2538 C   0  0  0  0  0  0  0  0  0  0  0  0
   18.0709   16.8301   24.2973 O   0  5  0  0  0  0  0  0  0  0  0  0
   17.2313   16.8908   22.3280 O   0  0  0  0  0  0  0  0  0  0  0  0
   18.2945   18.8458   23.1022 C   0  0  0  0  0  0  0  0  0  0  0  0
   18.1120   19.3586   24.0537 H   0  0  0  0  0  0  0  0  0  0  0  0
   17.6635   19.3330   22.3491 H   0  0  0  0  0  0  0  0  0  0  0  0
   19.7614   18.9460   22.7296 C   0  0  0  0  0  0  0  0  0  0  0  0
   20.4604   18.6272   23.5023 H   0  0  0  0  0  0  0  0  0  0  0  0
   20.2082   19.3854   21.5491 C   0  0  0  0  0  0  0  0  0  0  0  0
   19.5087   19.7012   20.7758 H   0  0  0  0  0  0  0  0  0  0  0  0
   21.6712   19.4811   21.1780 C   0  0  0  0  0  0  0  0  0  0  0  0
   22.2864   18.9145   21.8905 H   0  0  0  0  0  0  0  0  0  0  0  0
   21.8337   19.0273   20.1909 H   0  0  0  0  0  0  0  0  0  0  0  0
   22.1414   20.9485   21.1525 C   0  0  0  0  0  0  0  0  0  0  0  0
   22.0123   21.4164   22.1373 H   0  0  0  0  0  0  0  0  0  0  0  0
   23.2034   21.0116   20.8819 H   0  0  0  0  0  0  0  0  0  0  0  0
   21.5680   21.5309   20.4193 H   0  0  0  0  0  0  0  0  0  0  0  0
  1  2  1  0  0  0  0
  1  3  2  0  0  0  0
  1  4  1  0  0  0  0
  4  5  1  0  0  0  0
  4  6  1  0  0  0  0
  4  7  1  0  0  0  0
  7  8  1  0  0  0  0
  7  9  2  0  0  0  0
  9 10  1  0  0  0  0
  9 11  1  0  0  0  0
 11 12  1  0  0  0  0
 11 13  1  0  0  0  0
 11 14  1  0  0  0  0
 14 15  1  0  0  0  0
 14 16  1  0  0  0  0
 14 17  1  0  0  0  0
M  END
> <VConfSearch Rank>
711

> <Conf_Id>
38

> <Delta U+W>
0.000

> <U+W>
-49.427

> <U>
13.666

> <W>
-63.093

> <W(PB)>
-65.225

> <W(SA)>
2.132

> <Valence>
15.226

> <Coulomb>
-1.822

> <VdW>
0.261

> <VdW6>
-4.165

> <VdW12>
4.426

> <Bond>
0.044

> <Angle>
2.229

> <Pdih>
12.953

> <Idih>
0.000

> <Tether>
0.000

$$$$
VeraChem MOL file


 17 16  0  0  0  0  0  0  0  0999 V2000     
   22.6059   20.9569   21.2032 C   0  0  0  0  0  0  0  0  0  0  0  0
   22.5365   21.1673   20.0083 O   0  5  0  0  0  0  0  0  0  0  0  0
   23.6479   20.7307   21.7863 O   0  0  0  0  0  0  0  0  0  0  0  0
   21.3188   20.9831   22.0170 C   0  0  0  0  0  0  0  0  0  0  0  0
   20.5837   21.5919   21.4770 H   0  0  0  0  0  0  0  0  0  0  0  0
   21.5300   21.4981   22.9613 H   0  0  0  0  0  0  0  0  0  0  0  0
   20.7769   19.5932   22.2917 C   0  0  0  0  0  0  0  0  0  0  0  0
   21.3821   18.9818   22.9603 H   0  0  0  0  0  0  0  0  0  0  0  0
   19.6445   19.1119   21.7700 C   0  0  0  0  0  0  0  0  0  0  0  0
   19.0414   19.7227   21.0989 H   0  0  0  0  0  0  0  0  0  0  0  0
   19.1077   17.7244   22.0418 C   0  0  0  0  0  0  0  0  0  0  0  0
   18.8329   17.2410   21.0945 H   0  0  0  0  0  0  0  0  0  0  0  0
   19.8821   17.0963   22.5033 H   0  0  0  0  0  0  0  0  0  0  0  0
   17.8764   17.7783   22.9671 C   0  0  0  0  0  0  0  0  0  0  0  0
   17.0705   18.3695   22.5126 H   0  0  0  0  0  0  0  0  0  0  0  0
   17.4910   16.7687   23.1602 H   0  0  0  0  0  0  0  0  0  0  0  0
   18.1334   18.2352   23.9319 H   0  0  0  0  0  0  0  0  0  0  0  0
  1  2  1  0  0  0  0
  1  3  2  0  0  0  0
  1  4  1  0  0  0  0
  4  5  1  0  0  0  0
  4  6  1  0  0  0  0
  4  7  1  0  0  0  0
  7  8  1  0  0  0  0
  7  9  2  0  0  0  0
  9 10  1  0  0  0  0
  9 11  1  0  0  0  0
 11 12  1  0  0  0  0
 11 13  1  0  0  0  0
 11 14  1  0  0  0  0
 14 15  1  0  0  0  0
 14 16  1  0  0  0  0
 14 17  1  0  0  0  0
M  END
> <VConfSearch Rank>
712

> <Conf_Id>
35

> <Delta U+W>
-0.102

> <U+W>
-49.529

> <U>
13.666

> <W>
-63.195

> <W(PB)>
-65.299

> <W(SA)>
2.103

> <Valence>
15.226

> <Coulomb>
-1.822

> <VdW>
0.261

> <VdW6>
-4.165

> <VdW12>
4.426

> <Bond>
0.044

> <Angle>
2.229

> <Pdih>
12.953

> <Idih>
0.000

> <Tether>
0.000

$$$$
VeraChem MOL file


 17 16  0  0  0  0  0  0  0  0999 V2000     
   19.1286   16.6802   20.9156 C   0  0  0  0  0  0  0  0  0  0  0  0
   19.6312   16.5329   19.8190 O   0  5  0  0  0  0  0  0  0  0  0  0
   18.9866   15.7773   21.7165 O   0  0  0  0  0  0  0  0  0  0  0  0
   18.6424   18.0710   21.3016 C   0  0  0  0  0  0  0  0  0  0  0  0
   17.8675   17.9624   22.0700 H   0  0  0  0  0  0  0  0  0  0  0  0
   18.1613   18.5136   20.4217 H   0  0  0  0  0  0  0  0  0  0  0  0
   19.7679   18.9661   21.7848 C   0  0  0  0  0  0  0  0  0  0  0  0
   20.4901   19.2417   21.0183 H   0  0  0  0  0  0  0  0  0  0  0  0
   19.8926   19.3939   23.0474 C   0  0  0  0  0  0  0  0  0  0  0  0
   19.1523   19.0936   23.7883 H   0  0  0  0  0  0  0  0  0  0  0  0
   20.9923   20.2855   23.5991 C   0  0  0  0  0  0  0  0  0  0  0  0
   20.5366   21.1815   24.0419 H   0  0  0  0  0  0  0  0  0  0  0  0
   21.4890   19.7660   24.4297 H   0  0  0  0  0  0  0  0  0  0  0  0
   22.0580   20.7199   22.5688 C   0  0  0  0  0  0  0  0  0  0  0  0
   21.6034   21.2910   21.7487 H   0  0  0  0  0  0  0  0  0  0  0  0
   22.8146   21.3581   23.0435 H   0  0  0  0  0  0  0  0  0  0  0  0
   22.5725   19.8484   22.1431 H   0  0  0  0  0  0  0  0  0  0  0  0
  1  2  1  0  0  0  0
  1  3  2  0  0  0  0
  1  4  1  0  0  0  0
  4  5  1  0  0  0  0
  4  6  1  0  0  0  0
  4  7  1  0  0  0  0
  7  8  1  0  0  0  0
  7  9  2  0  0  0  0
  9 10  1  0  0  0  0
  9 11  1  0  0  0  0
 11 12  1  0  0  0  0
 11 13  1  0  0  0  0
 11 14  1  0  0  0  0
 14 15  1  0  0  0  0
 14 16  1  0  0  0  0
 14 17  1  0  0  0  0
M  END
> <VConfSearch Rank>
713

> <Conf_Id>
19

> <Delta U+W>
-0.496

> <U+W>
-49.923

> <U>
13.863

> <W>
-63.786

> <W(PB)>
-65.856

> <W(SA)>
2.070

> <Valence>
14.117

> <Coulomb>
-1.228

> <VdW>
0.974

> <VdW6>
-4.885

> <VdW12>
5.859

> <Bond>
0.094

> <Angle>
2.818

> <Pdih>
11.205

> <Idih>
0.000

> <Tether>
0.000

$$$$
VeraChem MOL file


 17 16  0  0  0  0  0  0  0  0999 V2000     
   20.3538   21.4131   23.9626 C   0  0  0  0  0  0  0  0  0  0  0  0
   19.7102   21.0661   24.9332 O   0  5  0  0  0  0  0  0  0  0  0  0
   21.4437   21.9458   24.0344 O   0  0  0  0  0  0  0  0  0  0  0  0
   19.7592   21.1784   22.5801 C   0  0  0  0  0  0  0  0  0  0  0  0
   19.9553   22.0715   21.9755 H   0  0  0  0  0  0  0  0  0  0  0  0
   18.6708   21.0941   22.6843 H   0  0  0  0  0  0  0  0  0  0  0  0
   20.3369   19.9518   21.9000 C   0  0  0  0  0  0  0  0  0  0  0  0
   21.3880   20.0256   21.6225 H   0  0  0  0  0  0  0  0  0  0  0  0
   19.6446   18.8369   21.6472 C   0  0  0  0  0  0  0  0  0  0  0  0
   18.5949   18.7618   21.9295 H   0  0  0  0  0  0  0  0  0  0  0  0
   20.2233   17.6139   20.9716 C   0  0  0  0  0  0  0  0  0  0  0  0
   19.5510   17.2799   20.1697 H   0  0  0  0  0  0  0  0  0  0  0  0
   21.1845   17.8554   20.4972 H   0  0  0  0  0  0  0  0  0  0  0  0
   20.4271   16.4680   21.9818 C   0  0  0  0  0  0  0  0  0  0  0  0
   19.4740   16.1791   22.4439 H   0  0  0  0  0  0  0  0  0  0  0  0
   20.8476   15.5833   21.4864 H   0  0  0  0  0  0  0  0  0  0  0  0
   21.1164   16.7712   22.7810 H   0  0  0  0  0  0  0  0  0  0  0  0
  1  2  1  0  0  0  0
  1  3  2  0  0  0  0
  1  4  1  0  0  0  0
  4  5  1  0  0  0  0
  4  6  1  0  0  0  0
  4  7  1  0  0  0  0
  7  8  1  0  0  0  0
  7  9  2  0  0  0  0
  9 10  1  0  0  0  0
  9 11  1  0  0  0  0
 11 12  1  0  0  0  0
 11 13  1  0  0  0  0
 11 14  1  0  0  0  0
 14 15  1  0  0  0  0
 14 16  1  0  0  0  0
 14 17  1  0  0  0  0
M  END
> <VConfSearch Rank>
714

> <Conf_Id>
7

> <Delta U+W>
-0.041

> <U+W>
-49.468

> <U>
14.121

> <W>
-63.589

> <W(PB)>
-65.660

> <W(SA)>
2.071

> <Valence>
15.230

> <Coulomb>
-1.333

> <VdW>
0.224

> <VdW6>
-4.212

> <VdW12>
4.436

> <Bond>
0.044

> <Angle>
2.230

> <Pdih>
12.956

> <Idih>
0.000

> <Tether>
0.000

$$$$
VeraChem MOL file


 17 16  0  0  0  0  0  0  0  0999 V2000     
   21.1194   19.2635   19.6879 C   0  0  0  0  0  0  0  0  0  0  0  0
   22.0183   20.0759   19.7833 O   0  5  0  0  0  0  0  0  0  0  0  0
   20.2352   19.3352   18.8572 O   0  0  0  0  0  0  0  0  0  0  0  0
   21.1162   18.0749   20.6443 C   0  0  0  0  0  0  0  0  0  0  0  0
   22.1586   17.8274   20.8767 H   0  0  0  0  0  0  0  0  0  0  0  0
   20.7145   17.2100   20.1036 H   0  0  0  0  0  0  0  0  0  0  0  0
   20.3387   18.2742   21.9376 C   0  0  0  0  0  0  0  0  0  0  0  0
   20.3492   17.4137   22.6055 H   0  0  0  0  0  0  0  0  0  0  0  0
   19.6766   19.3810   22.2948 C   0  0  0  0  0  0  0  0  0  0  0  0
   19.6510   20.2556   21.6459 H   0  0  0  0  0  0  0  0  0  0  0  0
   18.9164   19.5276   23.5943 C   0  0  0  0  0  0  0  0  0  0  0  0
   17.9172   19.9378   23.3946 H   0  0  0  0  0  0  0  0  0  0  0  0
   18.7658   18.5464   24.0652 H   0  0  0  0  0  0  0  0  0  0  0  0
   19.6656   20.4531   24.5725 C   0  0  0  0  0  0  0  0  0  0  0  0
   19.1089   20.5570   25.5129 H   0  0  0  0  0  0  0  0  0  0  0  0
   20.6593   20.0495   24.8073 H   0  0  0  0  0  0  0  0  0  0  0  0
   19.7965   21.4544   24.1416 H   0  0  0  0  0  0  0  0  0  0  0  0
  1  2  1  0  0  0  0
  1  3  2  0  0  0  0
  1  4  1  0  0  0  0
  4  5  1  0  0  0  0
  4  6  1  0  0  0  0
  4  7  1  0  0  0  0
  7  8  1  0  0  0  0
  7  9  2  0  0  0  0
  9 10  1  0  0  0  0
  9 11  1  0  0  0  0
 11 12  1  0  0  0  0
 11 13  1  0  0  0  0
 11 14  1  0  0  0  0
 14 15  1  0  0  0  0
 14 16  1  0  0  0  0
 14 17  1  0  0  0  0
M  END
> <VConfSearch Rank>
715

> <Conf_Id>
39

> <Delta U+W>
-0.422

> <U+W>
-49.849

> <U>
14.465

> <W>
-64.314

> <W(PB)>
-66.406

> <W(SA)>
2.093

> <Valence>
14.072

> <Coulomb>
-0.199

> <VdW>
0.592

> <VdW6>
-5.019

> <VdW12>
5.611

> <Bond>
0.085

> <Angle>
2.748

> <Pdih>
11.238

> <Idih>
0.001

> <Tether>
0.000

$$$$
VeraChem MOL file


 17 16  0  0  0  0  0  0  0  0999 V2000     
   19.8974   21.5700   19.9377 C   0  0  0  0  0  0  0  0  0  0  0  0
   20.5701   22.5634   20.1317 O   0  5  0  0  0  0  0  0  0  0  0  0
   18.7639   21.6008   19.5007 O   0  0  0  0  0  0  0  0  0  0  0  0
   20.5125   20.2133   20.2549 C   0  0  0  0  0  0  0  0  0  0  0  0
   21.5556   20.2315   19.9186 H   0  0  0  0  0  0  0  0  0  0  0  0
   19.9956   19.4538   19.6561 H   0  0  0  0  0  0  0  0  0  0  0  0
   20.4476   19.8774   21.7327 C   0  0  0  0  0  0  0  0  0  0  0  0
   21.0707   20.4959   22.3780 H   0  0  0  0  0  0  0  0  0  0  0  0
   19.6922   18.9032   22.2490 C   0  0  0  0  0  0  0  0  0  0  0  0
   19.0671   18.2871   21.6035 H   0  0  0  0  0  0  0  0  0  0  0  0
   19.6258   18.5722   23.7232 C   0  0  0  0  0  0  0  0  0  0  0  0
   20.0677   19.3824   24.3194 H   0  0  0  0  0  0  0  0  0  0  0  0
   18.5767   18.4861   24.0370 H   0  0  0  0  0  0  0  0  0  0  0  0
   20.3631   17.2538   24.0286 C   0  0  0  0  0  0  0  0  0  0  0  0
   21.4219   17.3248   23.7465 H   0  0  0  0  0  0  0  0  0  0  0  0
   20.3110   17.0185   25.0995 H   0  0  0  0  0  0  0  0  0  0  0  0
   19.9168   16.4179   23.4741 H   0  0  0  0  0  0  0  0  0  0  0  0
  1  2  1  0  0  0  0
  1  3  2  0  0  0  0
  1  4  1  0  0  0  0
  4  5  1  0  0  0  0
  4  6  1  0  0  0  0
  4  7  1  0  0  0  0
  7  8  1  0  0  0  0
  7  9  2  0  0  0  0
  9 10  1  0  0  0  0
  9 11  1  0  0  0  0
 11 12  1  0  0  0  0
 11 13  1  0  0  0  0
 11 14  1  0  0  0  0
 14 15  1  0  0  0  0
 14 16  1  0  0  0  0
 14 17  1  0  0  0  0
M  END
> <VConfSearch Rank>
716

> <Conf_Id>
38

> <Delta U+W>
0.000

> <U+W>
-49.427

> <U>
13.666

> <W>
-63.093

> <W(PB)>
-65.225

> <W(SA)>
2.132

> <Valence>
15.226

> <Coulomb>
-1.822

> <VdW>
0.261

> <VdW6>
-4.165

> <VdW12>
4.426

> <Bond>
0.044

> <Angle>
2.229

> <Pdih>
12.953

> <Idih>
0.000

> <Tether>
0.000

$$$$
VeraChem MOL file


 17 16  0  0  0  0  0  0  0  0999 V2000     
   21.0278   16.4626   23.2281 C   0  0  0  0  0  0  0  0  0  0  0  0
   21.1475   15.6839   22.3028 O   0  5  0  0  0  0  0  0  0  0  0  0
   20.6042   16.1461   24.3223 O   0  0  0  0  0  0  0  0  0  0  0  0
   21.4353   17.9136   23.0081 C   0  0  0  0  0  0  0  0  0  0  0  0
   22.1574   17.9459   22.1834 H   0  0  0  0  0  0  0  0  0  0  0  0
   21.9608   18.2539   23.9079 H   0  0  0  0  0  0  0  0  0  0  0  0
   20.2477   18.8142   22.7266 C   0  0  0  0  0  0  0  0  0  0  0  0
   19.5656   18.9598   23.5637 H   0  0  0  0  0  0  0  0  0  0  0  0
   20.0150   19.4045   21.5503 C   0  0  0  0  0  0  0  0  0  0  0  0
   20.6957   19.2559   20.7127 H   0  0  0  0  0  0  0  0  0  0  0  0
   18.8281   20.2990   21.2702 C   0  0  0  0  0  0  0  0  0  0  0  0
   18.3484   19.9949   20.3300 H   0  0  0  0  0  0  0  0  0  0  0  0
   18.0712   20.1918   22.0594 H   0  0  0  0  0  0  0  0  0  0  0  0
   19.2582   21.7757   21.1733 C   0  0  0  0  0  0  0  0  0  0  0  0
   19.9876   21.9191   20.3653 H   0  0  0  0  0  0  0  0  0  0  0  0
   18.3930   22.4198   20.9692 H   0  0  0  0  0  0  0  0  0  0  0  0
   19.7181   22.1103   22.1125 H   0  0  0  0  0  0  0  0  0  0  0  0
  1  2  1  0  0  0  0
  1  3  2  0  0  0  0
  1  4  1  0  0  0  0
  4  5  1  0  0  0  0
  4  6  1  0  0  0  0
  4  7  1  0  0  0  0
  7  8  1  0  0  0  0
  7  9  2  0  0  0  0
  9 10  1  0  0  0  0
  9 11  1  0  0  0  0
 11 12  1  0  0  0  0
 11 13  1  0  0  0  0
 11 14  1  0  0  0  0
 14 15  1  0  0  0  0
 14 16  1  0  0  0  0
 14 17  1  0  0  0  0
M  END
> <VConfSearch Rank>
717

> <Conf_Id>
35

> <Delta U+W>
-0.102

> <U+W>
-49.529

> <U>
13.666

> <W>
-63.195

> <W(PB)>
-65.299

> <W(SA)>
2.103

> <Valence>
15.226

> <Coulomb>
-1.822

> <VdW>
0.261

> <VdW6>
-4.165

> <VdW12>
4.426

> <Bond>
0.044

> <Angle>
2.229

> <Pdih>
12.953

> <Idih>
0.000

> <Tether>
0.000

$$$$
VeraChem MOL file


 17 16  0  0  0  0  0  0  0  0999 V2000     
   20.0968   19.0265   19.2564 C   0  0  0  0  0  0  0  0  0  0  0  0
   19.0036   19.4015   18.8804 O   0  5  0  0  0  0  0  0  0  0  0  0
   21.1419   19.3964   18.7588 O   0  0  0  0  0  0  0  0  0  0  0  0
   20.1575   18.0315   20.4079 C   0  0  0  0  0  0  0  0  0  0  0  0
   21.1061   17.4856   20.3397 H   0  0  0  0  0  0  0  0  0  0  0  0
   19.3552   17.2994   20.2604 H   0  0  0  0  0  0  0  0  0  0  0  0
   20.0093   18.7004   21.7615 C   0  0  0  0  0  0  0  0  0  0  0  0
   19.0259   19.1264   21.9524 H   0  0  0  0  0  0  0  0  0  0  0  0
   20.9926   18.7811   22.6666 C   0  0  0  0  0  0  0  0  0  0  0  0
   21.9654   18.3467   22.4382 H   0  0  0  0  0  0  0  0  0  0  0  0
   20.9151   19.4370   24.0349 C   0  0  0  0  0  0  0  0  0  0  0  0
   21.1706   18.6935   24.8020 H   0  0  0  0  0  0  0  0  0  0  0  0
   21.6917   20.2108   24.1037 H   0  0  0  0  0  0  0  0  0  0  0  0
   19.5471   20.0660   24.3799 C   0  0  0  0  0  0  0  0  0  0  0  0
   18.7524   19.3085   24.3741 H   0  0  0  0  0  0  0  0  0  0  0  0
   19.5727   20.5184   25.3798 H   0  0  0  0  0  0  0  0  0  0  0  0
   19.2831   20.8533   23.6615 H   0  0  0  0  0  0  0  0  0  0  0  0
  1  2  1  0  0  0  0
  1  3  2  0  0  0  0
  1  4  1  0  0  0  0
  4  5  1  0  0  0  0
  4  6  1  0  0  0  0
  4  7  1  0  0  0  0
  7  8  1  0  0  0  0
  7  9  2  0  0  0  0
  9 10  1  0  0  0  0
  9 11  1  0  0  0  0
 11 12  1  0  0  0  0
 11 13  1  0  0  0  0
 11 14  1  0  0  0  0
 14 15  1  0  0  0  0
 14 16  1  0  0  0  0
 14 17  1  0  0  0  0
M  END
> <VConfSearch Rank>
718

> <Conf_Id>
19

> <Delta U+W>
-0.496

> <U+W>
-49.923

> <U>
13.863

> <W>
-63.786

> <W(PB)>
-65.856

> <W(SA)>
2.070

> <Valence>
14.117

> <Coulomb>
-1.228

> <VdW>
0.974

> <VdW6>
-4.885

> <VdW12>
5.859

> <Bond>
0.094

> <Angle>
2.818

> <Pdih>
11.205

> <Idih>
0.000

> <Tether>
0.000

$$$$
VeraChem MOL file


 17 16  0  0  0  0  0  0  0  0999 V2000     
   20.2412   20.7903   24.5855 C   0  0  0  0  0  0  0  0  0  0  0  0
   20.7905   20.0785   25.4031 O   0  5  0  0  0  0  0  0  0  0  0  0
   20.5393   21.9536   24.3992 O   0  0  0  0  0  0  0  0  0  0  0  0
   19.1102   20.1973   23.7554 C   0  0  0  0  0  0  0  0  0  0  0  0
   18.3129   20.9468   23.6924 H   0  0  0  0  0  0  0  0  0  0  0  0
   18.7002   19.3374   24.2986 H   0  0  0  0  0  0  0  0  0  0  0  0
   19.5598   19.7968   22.3632 C   0  0  0  0  0  0  0  0  0  0  0  0
   19.8363   20.6226   21.7083 H   0  0  0  0  0  0  0  0  0  0  0  0
   19.6341   18.5340   21.9320 C   0  0  0  0  0  0  0  0  0  0  0  0
   19.3625   17.7084   22.5890 H   0  0  0  0  0  0  0  0  0  0  0  0
   20.0855   18.1367   20.5443 C   0  0  0  0  0  0  0  0  0  0  0  0
   19.3749   17.4177   20.1147 H   0  0  0  0  0  0  0  0  0  0  0  0
   20.0925   19.0100   19.8776 H   0  0  0  0  0  0  0  0  0  0  0  0
   21.4931   17.5102   20.5785 C   0  0  0  0  0  0  0  0  0  0  0  0
   21.5064   16.6108   21.2081 H   0  0  0  0  0  0  0  0  0  0  0  0
   21.8159   17.2241   19.5690 H   0  0  0  0  0  0  0  0  0  0  0  0
   22.2263   18.2209   20.9822 H   0  0  0  0  0  0  0  0  0  0  0  0
  1  2  1  0  0  0  0
  1  3  2  0  0  0  0
  1  4  1  0  0  0  0
  4  5  1  0  0  0  0
  4  6  1  0  0  0  0
  4  7  1  0  0  0  0
  7  8  1  0  0  0  0
  7  9  2  0  0  0  0
  9 10  1  0  0  0  0
  9 11  1  0  0  0  0
 11 12  1  0  0  0  0
 11 13  1  0  0  0  0
 11 14  1  0  0  0  0
 14 15  1  0  0  0  0
 14 16  1  0  0  0  0
 14 17  1  0  0  0  0
M  END
> <VConfSearch Rank>
719

> <Conf_Id>
7

> <Delta U+W>
-0.041

> <U+W>
-49.468

> <U>
14.121

> <W>
-63.589

> <W(PB)>
-65.660

> <W(SA)>
2.071

> <Valence>
15.230

> <Coulomb>
-1.333

> <VdW>
0.224

> <VdW6>
-4.212

> <VdW12>
4.436

> <Bond>
0.044

> <Angle>
2.230

> <Pdih>
12.956

> <Idih>
0.000

> <Tether>
0.000

$$$$
VeraChem MOL file


 17 16  0  0  0  0  0  0  0  0999 V2000     
   22.7449   19.9288   21.6681 C   0  0  0  0  0  0  0  0  0  0  0  0
   22.9123   19.2971   20.6434 O   0  5  0  0  0  0  0  0  0  0  0  0
   23.4729   19.8408   22.6373 O   0  0  0  0  0  0  0  0  0  0  0  0
   21.5745   20.9053   21.7311 C   0  0  0  0  0  0  0  0  0  0  0  0
   21.4107   21.2997   20.7214 H   0  0  0  0  0  0  0  0  0  0  0  0
   21.8838   21.7611   22.3424 H   0  0  0  0  0  0  0  0  0  0  0  0
   20.2715   20.3352   22.2735 C   0  0  0  0  0  0  0  0  0  0  0  0
   19.4494   21.0488   22.3100 H   0  0  0  0  0  0  0  0  0  0  0  0
   20.0749   19.0776   22.6868 C   0  0  0  0  0  0  0  0  0  0  0  0
   20.8798   18.3440   22.6599 H   0  0  0  0  0  0  0  0  0  0  0  0
   18.7572   18.5605   23.2200 C   0  0  0  0  0  0  0  0  0  0  0  0
   18.9264   18.0112   24.1561 H   0  0  0  0  0  0  0  0  0  0  0  0
   18.0852   19.3954   23.4616 H   0  0  0  0  0  0  0  0  0  0  0  0
   18.0716   17.6336   22.1973 C   0  0  0  0  0  0  0  0  0  0  0  0
   17.1169   17.2603   22.5900 H   0  0  0  0  0  0  0  0  0  0  0  0
   17.8689   18.1692   21.2605 H   0  0  0  0  0  0  0  0  0  0  0  0
   18.7066   16.7684   21.9658 H   0  0  0  0  0  0  0  0  0  0  0  0
  1  2  1  0  0  0  0
  1  3  2  0  0  0  0
  1  4  1  0  0  0  0
  4  5  1  0  0  0  0
  4  6  1  0  0  0  0
  4  7  1  0  0  0  0
  7  8  1  0  0  0  0
  7  9  2  0  0  0  0
  9 10  1  0  0  0  0
  9 11  1  0  0  0  0
 11 12  1  0  0  0  0
 11 13  1  0  0  0  0
 11 14  1  0  0  0  0
 14 15  1  0  0  0  0
 14 16  1  0  0  0  0
 14 17  1  0  0  0  0
M  END
> <VConfSearch Rank>
720

> <Conf_Id>
39

> <Delta U+W>
-0.422

> <U+W>
-49.849

> <U>
14.465

> <W>
-64.314

> <W(PB)>
-66.406

> <W(SA)>
2.093

> <Valence>
14.072

> <Coulomb>
-0.199

> <VdW>
0.592

> <VdW6>
-5.019

> <VdW12>
5.611

> <Bond>
0.085

> <Angle>
2.748

> <Pdih>
11.238

> <Idih>
0.001

> <Tether>
0.000

$$$$
VeraChem MOL file


 17 16  0  0  0  0  0  0  0  0999 V2000     
   20.6430   17.9315   19.2892 C   0  0  0  0  0  0  0  0  0  0  0  0
   20.2908   18.5621   18.3118 O   0  5  0  0  0  0  0  0  0  0  0  0
   20.5179   16.7272   19.3928 O   0  0  0  0  0  0  0  0  0  0  0  0
   21.2804   18.6933   20.4437 C   0  0  0  0  0  0  0  0  0  0  0  0
   21.9535   19.4460   20.0173 H   0  0  0  0  0  0  0  0  0  0  0  0
   21.9024   17.9935   21.0147 H   0  0  0  0  0  0  0  0  0  0  0  0
   20.2523   19.3606   21.3373 C   0  0  0  0  0  0  0  0  0  0  0  0
   19.7029   20.1831   20.8804 H   0  0  0  0  0  0  0  0  0  0  0  0
   20.0043   18.9961   22.5990 C   0  0  0  0  0  0  0  0  0  0  0  0
   20.5519   18.1716   23.0543 H   0  0  0  0  0  0  0  0  0  0  0  0
   18.9761   19.6602   23.4874 C   0  0  0  0  0  0  0  0  0  0  0  0
   18.3022   20.2904   22.8907 H   0  0  0  0  0  0  0  0  0  0  0  0
   18.3503   18.8949   23.9663 H   0  0  0  0  0  0  0  0  0  0  0  0
   19.6538   20.5215   24.5709 C   0  0  0  0  0  0  0  0  0  0  0  0
   20.2656   21.3111   24.1150 H   0  0  0  0  0  0  0  0  0  0  0  0
   18.9028   21.0002   25.2126 H   0  0  0  0  0  0  0  0  0  0  0  0
   20.3053   19.9087   25.2076 H   0  0  0  0  0  0  0  0  0  0  0  0
  1  2  1  0  0  0  0
  1  3  2  0  0  0  0
  1  4  1  0  0  0  0
  4  5  1  0  0  0  0
  4  6  1  0  0  0  0
  4  7  1  0  0  0  0
  7  8  1  0  0  0  0
  7  9  2  0  0  0  0
  9 10  1  0  0  0  0
  9 11  1  0  0  0  0
 11 12  1  0  0  0  0
 11 13  1  0  0  0  0
 11 14  1  0  0  0  0
 14 15  1  0  0  0  0
 14 16  1  0  0  0  0
 14 17  1  0  0  0  0
M  END
> <VConfSearch Rank>
721

> <Conf_Id>
38

> <Delta U+W>
0.000

> <U+W>
-49.427

> <U>
13.666

> <W>
-63.093

> <W(PB)>
-65.225

> <W(SA)>
2.132

> <Valence>
15.226

> <Coulomb>
-1.822

> <VdW>
0.261

> <VdW6>
-4.165

> <VdW12>
4.426

> <Bond>
0.044

> <Angle>
2.229

> <Pdih>
12.953

> <Idih>
0.000

> <Tether>
0.000

$$$$
VeraChem MOL file


 17 16  0  0  0  0  0  0  0  0999 V2000     
   17.0357   20.0774   21.8668 C   0  0  0  0  0  0  0  0  0  0  0  0
   16.4384   19.2050   21.2676 O   0  5  0  0  0  0  0  0  0  0  0  0
   16.7968   21.2625   21.7424 O   0  0  0  0  0  0  0  0  0  0  0  0
   18.1404   19.6650   22.8308 C   0  0  0  0  0  0  0  0  0  0  0  0
   17.9519   18.6320   23.1470 H   0  0  0  0  0  0  0  0  0  0  0  0
   18.0571   20.2941   23.7246 H   0  0  0  0  0  0  0  0  0  0  0  0
   19.5232   19.8039   22.2232 C   0  0  0  0  0  0  0  0  0  0  0  0
   19.8460   20.8266   22.0306 H   0  0  0  0  0  0  0  0  0  0  0  0
   20.3205   18.7729   21.9270 C   0  0  0  0  0  0  0  0  0  0  0  0
   19.9958   17.7504   22.1170 H   0  0  0  0  0  0  0  0  0  0  0  0
   21.6975   18.9131   21.3176 C   0  0  0  0  0  0  0  0  0  0  0  0
   21.7969   18.2282   20.4647 H   0  0  0  0  0  0  0  0  0  0  0  0
   21.8424   19.9290   20.9247 H   0  0  0  0  0  0  0  0  0  0  0  0
   22.7958   18.6057   22.3540 C   0  0  0  0  0  0  0  0  0  0  0  0
   22.6981   17.5811   22.7361 H   0  0  0  0  0  0  0  0  0  0  0  0
   23.7927   18.7084   21.9058 H   0  0  0  0  0  0  0  0  0  0  0  0
   22.7324   19.2959   23.2056 H   0  0  0  0  0  0  0  0  0  0  0  0
  1  2  1  0  0  0  0
  1  3  2  0  0  0  0
  1  4  1  0  0  0  0
  4  5  1  0  0  0  0
  4  6  1  0  0  0  0
  4  7  1  0  0  0  0
  7  8  1  0  0  0  0
  7  9  2  0  0  0  0
  9 10  1  0  0  0  0
  9 11  1  0  0  0  0
 11 12  1  0  0  0  0
 11 13  1  0  0  0  0
 11 14  1  0  0  0  0
 14 15  1  0  0  0  0
 14 16  1  0  0  0  0
 14 17  1  0  0  0  0
M  END
> <VConfSearch Rank>
722

> <Conf_Id>
35

> <Delta U+W>
-0.102

> <U+W>
-49.529

> <U>
13.666

> <W>
-63.195

> <W(PB)>
-65.299

> <W(SA)>
2.103

> <Valence>
15.226

> <Coulomb>
-1.822

> <VdW>
0.261

> <VdW6>
-4.165

> <VdW12>
4.426

> <Bond>
0.044

> <Angle>
2.229

> <Pdih>
12.953

> <Idih>
0.000

> <Tether>
0.000

$$$$
VeraChem MOL file


 17 16  0  0  0  0  0  0  0  0999 V2000     
   17.8729   18.7417   20.4551 C   0  0  0  0  0  0  0  0  0  0  0  0
   17.0319   18.0746   21.0247 O   0  5  0  0  0  0  0  0  0  0  0  0
   17.6203   19.7582   19.8387 O   0  0  0  0  0  0  0  0  0  0  0  0
   19.3205   18.2713   20.5098 C   0  0  0  0  0  0  0  0  0  0  0  0
   19.8495   18.6882   19.6444 H   0  0  0  0  0  0  0  0  0  0  0  0
   19.3230   17.1815   20.3923 H   0  0  0  0  0  0  0  0  0  0  0  0
   20.0074   18.6566   21.8064 C   0  0  0  0  0  0  0  0  0  0  0  0
   19.6267   18.1484   22.6906 H   0  0  0  0  0  0  0  0  0  0  0  0
   21.0007   19.5506   21.8886 C   0  0  0  0  0  0  0  0  0  0  0  0
   21.3525   20.0425   20.9823 H   0  0  0  0  0  0  0  0  0  0  0  0
   21.7286   19.9852   23.1495 C   0  0  0  0  0  0  0  0  0  0  0  0
   22.8030   19.7935   23.0252 H   0  0  0  0  0  0  0  0  0  0  0  0
   21.6338   21.0740   23.2584 H   0  0  0  0  0  0  0  0  0  0  0  0
   21.2435   19.3060   24.4493 C   0  0  0  0  0  0  0  0  0  0  0  0
   21.3743   18.2172   24.3975 H   0  0  0  0  0  0  0  0  0  0  0  0
   21.8155   19.6725   25.3116 H   0  0  0  0  0  0  0  0  0  0  0  0
   20.1827   19.5210   24.6338 H   0  0  0  0  0  0  0  0  0  0  0  0
  1  2  1  0  0  0  0
  1  3  2  0  0  0  0
  1  4  1  0  0  0  0
  4  5  1  0  0  0  0
  4  6  1  0  0  0  0
  4  7  1  0  0  0  0
  7  8  1  0  0  0  0
  7  9  2  0  0  0  0
  9 10  1  0  0  0  0
  9 11  1  0  0  0  0
 11 12  1  0  0  0  0
 11 13  1  0  0  0  0
 11 14  1  0  0  0  0
 14 15  1  0  0  0  0
 14 16  1  0  0  0  0
 14 17  1  0  0  0  0
M  END
> <VConfSearch Rank>
723

> <Conf_Id>
19

> <Delta U+W>
-0.496

> <U+W>
-49.923

> <U>
13.863

> <W>
-63.786

> <W(PB)>
-65.856

> <W(SA)>
2.070

> <Valence>
14.117

> <Coulomb>
-1.228

> <VdW>
0.974

> <VdW6>
-4.885

> <VdW12>
5.859

> <Bond>
0.094

> <Angle>
2.818

> <Pdih>
11.205

> <Idih>
0.000

> <Tether>
0.000

$$$$
VeraChem MOL file


 17 16  0  0  0  0  0  0  0  0999 V2000     
   20.8529   16.8472   24.0064 C   0  0  0  0  0  0  0  0  0  0  0  0
   21.7518   17.3246   24.6704 O   0  5  0  0  0  0  0  0  0  0  0  0
   19.9244   16.2235   24.4817 O   0  0  0  0  0  0  0  0  0  0  0  0
   20.8957   17.0302   22.4949 C   0  0  0  0  0  0  0  0  0  0  0  0
   20.6027   16.0796   22.0344 H   0  0  0  0  0  0  0  0  0  0  0  0
   21.9349   17.2219   22.2017 H   0  0  0  0  0  0  0  0  0  0  0  0
   19.9822   18.1433   22.0184 C   0  0  0  0  0  0  0  0  0  0  0  0
   18.9159   17.9523   22.1362 H   0  0  0  0  0  0  0  0  0  0  0  0
   20.4118   19.2948   21.4933 C   0  0  0  0  0  0  0  0  0  0  0  0
   21.4782   19.4874   21.3805 H   0  0  0  0  0  0  0  0  0  0  0  0
   19.4992   20.4047   21.0215 C   0  0  0  0  0  0  0  0  0  0  0  0
   19.8063   20.7373   20.0207 H   0  0  0  0  0  0  0  0  0  0  0  0
   18.4667   20.0405   20.9298 H   0  0  0  0  0  0  0  0  0  0  0  0
   19.5337   21.6002   21.9934 C   0  0  0  0  0  0  0  0  0  0  0  0
   20.5491   22.0097   22.0746 H   0  0  0  0  0  0  0  0  0  0  0  0
   18.8695   22.4024   21.6465 H   0  0  0  0  0  0  0  0  0  0  0  0
   19.2064   21.2964   22.9965 H   0  0  0  0  0  0  0  0  0  0  0  0
  1  2  1  0  0  0  0
  1  3  2  0  0  0  0
  1  4  1  0  0  0  0
  4  5  1  0  0  0  0
  4  6  1  0  0  0  0
  4  7  1  0  0  0  0
  7  8  1  0  0  0  0
  7  9  2  0  0  0  0
  9 10  1  0  0  0  0
  9 11  1  0  0  0  0
 11 12  1  0  0  0  0
 11 13  1  0  0  0  0
 11 14  1  0  0  0  0
 14 15  1  0  0  0  0
 14 16  1  0  0  0  0
 14 17  1  0  0  0  0
M  END
> <VConfSearch Rank>
724

> <Conf_Id>
7

> <Delta U+W>
-0.041

> <U+W>
-49.468

> <U>
14.121

> <W>
-63.589

> <W(PB)>
-65.660

> <W(SA)>
2.071

> <Valence>
15.230

> <Coulomb>
-1.333

> <VdW>
0.224

> <VdW6>
-4.212

> <VdW12>
4.436

> <Bond>
0.044

> <Angle>
2.230

> <Pdih>
12.956

> <Idih>
0.000

> <Tether>
0.000

$$$$
VeraChem MOL file


 17 16  0  0  0  0  0  0  0  0999 V2000     
   22.1890   20.3581   20.7799 C   0  0  0  0  0  0  0  0  0  0  0  0
   21.5897   20.7214   19.7870 O   0  5  0  0  0  0  0  0  0  0  0  0
   23.1633   19.6323   20.7480 O   0  0  0  0  0  0  0  0  0  0  0  0
   21.7093   20.8625   22.1375 C   0  0  0  0  0  0  0  0  0  0  0  0
   21.2889   21.8647   21.9945 H   0  0  0  0  0  0  0  0  0  0  0  0
   22.5899   20.9935   22.7772 H   0  0  0  0  0  0  0  0  0  0  0  0
   20.6918   19.9786   22.8448 C   0  0  0  0  0  0  0  0  0  0  0  0
   20.3630   20.3570   23.8119 H   0  0  0  0  0  0  0  0  0  0  0  0
   20.1952   18.8252   22.3821 C   0  0  0  0  0  0  0  0  0  0  0  0
   20.5064   18.4251   21.4178 H   0  0  0  0  0  0  0  0  0  0  0  0
   19.1843   17.9820   23.1271 C   0  0  0  0  0  0  0  0  0  0  0  0
   19.5104   16.9332   23.1346 H   0  0  0  0  0  0  0  0  0  0  0  0
   19.1176   18.2987   24.1770 H   0  0  0  0  0  0  0  0  0  0  0  0
   17.7917   18.0822   22.4748 C   0  0  0  0  0  0  0  0  0  0  0  0
   17.0626   17.4675   23.0185 H   0  0  0  0  0  0  0  0  0  0  0  0
   17.4331   19.1200   22.4790 H   0  0  0  0  0  0  0  0  0  0  0  0
   17.8212   17.7351   21.4336 H   0  0  0  0  0  0  0  0  0  0  0  0
  1  2  1  0  0  0  0
  1  3  2  0  0  0  0
  1  4  1  0  0  0  0
  4  5  1  0  0  0  0
  4  6  1  0  0  0  0
  4  7  1  0  0  0  0
  7  8  1  0  0  0  0
  7  9  2  0  0  0  0
  9 10  1  0  0  0  0
  9 11  1  0  0  0  0
 11 12  1  0  0  0  0
 11 13  1  0  0  0  0
 11 14  1  0  0  0  0
 14 15  1  0  0  0  0
 14 16  1  0  0  0  0
 14 17  1  0  0  0  0
M  END
> <VConfSearch Rank>
725

> <Conf_Id>
39

> <Delta U+W>
-0.422

> <U+W>
-49.849

> <U>
14.465

> <W>
-64.314

> <W(PB)>
-66.406

> <W(SA)>
2.093

> <Valence>
14.072

> <Coulomb>
-0.199

> <VdW>
0.592

> <VdW6>
-5.019

> <VdW12>
5.611

> <Bond>
0.085

> <Angle>
2.748

> <Pdih>
11.238

> <Idih>
0.001

> <Tether>
0.000

$$$$
VeraChem MOL file


 17 16  0  0  0  0  0  0  0  0999 V2000     
   22.4525   20.0998   20.1450 C   0  0  0  0  0  0  0  0  0  0  0  0
   23.5177   19.5368   20.3045 O   0  5  0  0  0  0  0  0  0  0  0  0
   22.3501   21.2811   19.8786 O   0  0  0  0  0  0  0  0  0  0  0  0
   21.1781   19.2770   20.2814 C   0  0  0  0  0  0  0  0  0  0  0  0
   21.3522   18.3076   19.8003 H   0  0  0  0  0  0  0  0  0  0  0  0
   20.3839   19.7782   19.7149 H   0  0  0  0  0  0  0  0  0  0  0  0
   20.7694   19.0747   21.7280 C   0  0  0  0  0  0  0  0  0  0  0  0
   21.4361   18.4445   22.3158 H   0  0  0  0  0  0  0  0  0  0  0  0
   19.6797   19.6138   22.2831 C   0  0  0  0  0  0  0  0  0  0  0  0
   19.0150   20.2463   21.6955 H   0  0  0  0  0  0  0  0  0  0  0  0
   19.2758   19.4140   23.7268 C   0  0  0  0  0  0  0  0  0  0  0  0
   20.1102   18.9932   24.3047 H   0  0  0  0  0  0  0  0  0  0  0  0
   19.0348   20.3842   24.1819 H   0  0  0  0  0  0  0  0  0  0  0  0
   18.0563   18.4781   23.8363 C   0  0  0  0  0  0  0  0  0  0  0  0
   18.2823   17.4918   23.4100 H   0  0  0  0  0  0  0  0  0  0  0  0
   17.7675   18.3374   24.8860 H   0  0  0  0  0  0  0  0  0  0  0  0
   17.1940   18.8936   23.2985 H   0  0  0  0  0  0  0  0  0  0  0  0
  1  2  1  0  0  0  0
  1  3  2  0  0  0  0
  1  4  1  0  0  0  0
  4  5  1  0  0  0  0
  4  6  1  0  0  0  0
  4  7  1  0  0  0  0
  7  8  1  0  0  0  0
  7  9  2  0  0  0  0
  9 10  1  0  0  0  0
  9 11  1  0  0  0  0
 11 12  1  0  0  0  0
 11 13  1  0  0  0  0
 11 14  1  0  0  0  0
 14 15  1  0  0  0  0
 14 16  1  0  0  0  0
 14 17  1  0  0  0  0
M  END
> <VConfSearch Rank>
726

> <Conf_Id>
38

> <Delta U+W>
0.000

> <U+W>
-49.427

> <U>
13.666

> <W>
-63.093

> <W(PB)>
-65.225

> <W(SA)>
2.132

> <Valence>
15.226

> <Coulomb>
-1.822

> <VdW>
0.261

> <VdW6>
-4.165

> <VdW12>
4.426

> <Bond>
0.044

> <Angle>
2.229

> <Pdih>
12.953

> <Idih>
0.000

> <Tether>
0.000

$$$$
VeraChem MOL file


 17 16  0  0  0  0  0  0  0  0999 V2000     
   17.0017   18.8410   22.6720 C   0  0  0  0  0  0  0  0  0  0  0  0
   16.6938   17.7068   22.3629 O   0  5  0  0  0  0  0  0  0  0  0  0
   16.2800   19.8036   22.5004 O   0  0  0  0  0  0  0  0  0  0  0  0
   18.3633   19.0700   23.3147 C   0  0  0  0  0  0  0  0  0  0  0  0
   18.6875   18.1295   23.7762 H   0  0  0  0  0  0  0  0  0  0  0  0
   18.2332   19.7966   24.1251 H   0  0  0  0  0  0  0  0  0  0  0  0
   19.3958   19.5738   22.3243 C   0  0  0  0  0  0  0  0  0  0  0  0
   19.2224   20.5796   21.9429 H   0  0  0  0  0  0  0  0  0  0  0  0
   20.4553   18.8671   21.9190 C   0  0  0  0  0  0  0  0  0  0  0  0
   20.6263   17.8602   22.2983 H   0  0  0  0  0  0  0  0  0  0  0  0
   21.4816   19.3696   20.9283 C   0  0  0  0  0  0  0  0  0  0  0  0
   21.6577   18.6066   20.1579 H   0  0  0  0  0  0  0  0  0  0  0  0
   21.1087   20.2626   20.4081 H   0  0  0  0  0  0  0  0  0  0  0  0
   22.8111   19.7066   21.6310 C   0  0  0  0  0  0  0  0  0  0  0  0
   23.2269   18.8205   22.1283 H   0  0  0  0  0  0  0  0  0  0  0  0
   23.5520   20.0699   20.9071 H   0  0  0  0  0  0  0  0  0  0  0  0
   22.6644   20.4871   22.3892 H   0  0  0  0  0  0  0  0  0  0  0  0
  1  2  1  0  0  0  0
  1  3  2  0  0  0  0
  1  4  1  0  0  0  0
  4  5  1  0  0  0  0
  4  6  1  0  0  0  0
  4  7  1  0  0  0  0
  7  8  1  0  0  0  0
  7  9  2  0  0  0  0
  9 10  1  0  0  0  0
  9 11  1  0  0  0  0
 11 12  1  0  0  0  0
 11 13  1  0  0  0  0
 11 14  1  0  0  0  0
 14 15  1  0  0  0  0
 14 16  1  0  0  0  0
 14 17  1  0  0  0  0
M  END
> <VConfSearch Rank>
727

> <Conf_Id>
35

> <Delta U+W>
-0.102

> <U+W>
-49.529

> <U>
13.666

> <W>
-63.195

> <W(PB)>
-65.299

> <W(SA)>
2.103

> <Valence>
15.226

> <Coulomb>
-1.822

> <VdW>
0.261

> <VdW6>
-4.165

> <VdW12>
4.426

> <Bond>
0.044

> <Angle>
2.229

> <Pdih>
12.953

> <Idih>
0.000

> <Tether>
0.000

$$$$
VeraChem MOL file


 17 16  0  0  0  0  0  0  0  0999 V2000     
   22.3687   21.1228   22.1293 C   0  0  0  0  0  0  0  0  0  0  0  0
   21.9602   22.1746   22.5806 O   0  5  0  0  0  0  0  0  0  0  0  0
   23.4446   20.6389   22.4211 O   0  0  0  0  0  0  0  0  0  0  0  0
   21.4867   20.3766   21.1368 C   0  0  0  0  0  0  0  0  0  0  0  0
   22.1289   19.7330   20.5237 H   0  0  0  0  0  0  0  0  0  0  0  0
   21.0394   21.1172   20.4638 H   0  0  0  0  0  0  0  0  0  0  0  0
   20.3986   19.5697   21.8196 C   0  0  0  0  0  0  0  0  0  0  0  0
   19.6347   20.1657   22.3160 H   0  0  0  0  0  0  0  0  0  0  0  0
   20.3575   18.2315   21.8326 C   0  0  0  0  0  0  0  0  0  0  0  0
   21.1423   17.6684   21.3285 H   0  0  0  0  0  0  0  0  0  0  0  0
   19.3036   17.3622   22.4975 C   0  0  0  0  0  0  0  0  0  0  0  0
   18.8521   16.7069   21.7404 H   0  0  0  0  0  0  0  0  0  0  0  0
   19.7958   16.6903   23.2136 H   0  0  0  0  0  0  0  0  0  0  0  0
   18.1828   18.1375   23.2247 C   0  0  0  0  0  0  0  0  0  0  0  0
   17.6319   18.7812   22.5263 H   0  0  0  0  0  0  0  0  0  0  0  0
   17.4649   17.4416   23.6777 H   0  0  0  0  0  0  0  0  0  0  0  0
   18.5941   18.7651   24.0262 H   0  0  0  0  0  0  0  0  0  0  0  0
  1  2  1  0  0  0  0
  1  3  2  0  0  0  0
  1  4  1  0  0  0  0
  4  5  1  0  0  0  0
  4  6  1  0  0  0  0
  4  7  1  0  0  0  0
  7  8  1  0  0  0  0
  7  9  2  0  0  0  0
  9 10  1  0  0  0  0
  9 11  1  0  0  0  0
 11 12  1  0  0  0  0
 11 13  1  0  0  0  0
 11 14  1  0  0  0  0
 14 15  1  0  0  0  0
 14 16  1  0  0  0  0
 14 17  1  0  0  0  0
M  END
> <VConfSearch Rank>
728

> <Conf_Id>
19

> <Delta U+W>
-0.496

> <U+W>
-49.923

> <U>
13.863

> <W>
-63.786

> <W(PB)>
-65.856

> <W(SA)>
2.070

> <Valence>
14.117

> <Coulomb>
-1.228

> <VdW>
0.974

> <VdW6>
-4.885

> <VdW12>
5.859

> <Bond>
0.094

> <Angle>
2.818

> <Pdih>
11.205

> <Idih>
0.000

> <Tether>
0.000

$$$$
VeraChem MOL file


 17 16  0  0  0  0  0  0  0  0999 V2000     
   22.5529   17.9508   23.4935 C   0  0  0  0  0  0  0  0  0  0  0  0
   22.1220   16.9396   24.0117 O   0  5  0  0  0  0  0  0  0  0  0  0
   23.5809   17.9887   22.8463 O   0  0  0  0  0  0  0  0  0  0  0  0
   21.7693   19.2446   23.6725 C   0  0  0  0  0  0  0  0  0  0  0  0
   22.4896   20.0480   23.8653 H   0  0  0  0  0  0  0  0  0  0  0  0
   21.1481   19.1480   24.5710 H   0  0  0  0  0  0  0  0  0  0  0  0
   20.9230   19.5835   22.4602 C   0  0  0  0  0  0  0  0  0  0  0  0
   21.4813   19.8460   21.5620 H   0  0  0  0  0  0  0  0  0  0  0  0
   19.5867   19.5663   22.4484 C   0  0  0  0  0  0  0  0  0  0  0  0
   19.0291   19.2988   23.3453 H   0  0  0  0  0  0  0  0  0  0  0  0
   18.7447   19.9018   21.2376 C   0  0  0  0  0  0  0  0  0  0  0  0
   17.9545   20.6105   21.5201 H   0  0  0  0  0  0  0  0  0  0  0  0
   19.3549   20.3988   20.4709 H   0  0  0  0  0  0  0  0  0  0  0  0
   18.1071   18.6332   20.6383 C   0  0  0  0  0  0  0  0  0  0  0  0
   17.4595   18.1361   21.3725 H   0  0  0  0  0  0  0  0  0  0  0  0
   17.4977   18.8824   19.7599 H   0  0  0  0  0  0  0  0  0  0  0  0
   18.8802   17.9191   20.3255 H   0  0  0  0  0  0  0  0  0  0  0  0
  1  2  1  0  0  0  0
  1  3  2  0  0  0  0
  1  4  1  0  0  0  0
  4  5  1  0  0  0  0
  4  6  1  0  0  0  0
  4  7  1  0  0  0  0
  7  8  1  0  0  0  0
  7  9  2  0  0  0  0
  9 10  1  0  0  0  0
  9 11  1  0  0  0  0
 11 12  1  0  0  0  0
 11 13  1  0  0  0  0
 11 14  1  0  0  0  0
 14 15  1  0  0  0  0
 14 16  1  0  0  0  0
 14 17  1  0  0  0  0
M  END
> <VConfSearch Rank>
729

> <Conf_Id>
7

> <Delta U+W>
-0.041

> <U+W>
-49.468

> <U>
14.121

> <W>
-63.589

> <W(PB)>
-65.660

> <W(SA)>
2.071

> <Valence>
15.230

> <Coulomb>
-1.333

> <VdW>
0.224

> <VdW6>
-4.212

> <VdW12>
4.436

> <Bond>
0.044

> <Angle>
2.230

> <Pdih>
12.956

> <Idih>
0.000

> <Tether>
0.000

$$$$
VeraChem MOL file


 17 16  0  0  0  0  0  0  0  0999 V2000     
   20.5833   16.6319   21.5978 C   0  0  0  0  0  0  0  0  0  0  0  0
   21.7632   16.5250   21.8688 O   0  5  0  0  0  0  0  0  0  0  0  0
   20.1152   16.3466   20.5131 O   0  0  0  0  0  0  0  0  0  0  0  0
   19.6344   17.1242   22.6862 C   0  0  0  0  0  0  0  0  0  0  0  0
   20.0241   16.7821   23.6521 H   0  0  0  0  0  0  0  0  0  0  0  0
   18.6740   16.6132   22.5506 H   0  0  0  0  0  0  0  0  0  0  0  0
   19.4098   18.6290   22.7308 C   0  0  0  0  0  0  0  0  0  0  0  0
   18.7293   18.9588   23.5148 H   0  0  0  0  0  0  0  0  0  0  0  0
   19.9656   19.5318   21.9142 C   0  0  0  0  0  0  0  0  0  0  0  0
   20.6502   19.2288   21.1228 H   0  0  0  0  0  0  0  0  0  0  0  0
   19.7075   21.0198   22.0001 C   0  0  0  0  0  0  0  0  0  0  0  0
   19.4778   21.4142   21.0010 H   0  0  0  0  0  0  0  0  0  0  0  0
   18.8294   21.2227   22.6285 H   0  0  0  0  0  0  0  0  0  0  0  0
   20.9294   21.7612   22.5765 C   0  0  0  0  0  0  0  0  0  0  0  0
   20.7370   22.8404   22.6353 H   0  0  0  0  0  0  0  0  0  0  0  0
   21.1627   21.4010   23.5871 H   0  0  0  0  0  0  0  0  0  0  0  0
   21.8146   21.6066   21.9457 H   0  0  0  0  0  0  0  0  0  0  0  0
  1  2  1  0  0  0  0
  1  3  2  0  0  0  0
  1  4  1  0  0  0  0
  4  5  1  0  0  0  0
  4  6  1  0  0  0  0
  4  7  1  0  0  0  0
  7  8  1  0  0  0  0
  7  9  2  0  0  0  0
  9 10  1  0  0  0  0
  9 11  1  0  0  0  0
 11 12  1  0  0  0  0
 11 13  1  0  0  0  0
 11 14  1  0  0  0  0
 14 15  1  0  0  0  0
 14 16  1  0  0  0  0
 14 17  1  0  0  0  0
M  END
> <VConfSearch Rank>
730

> <Conf_Id>
39

> <Delta U+W>
-0.422

> <U+W>
-49.849

> <U>
14.465

> <W>
-64.314

> <W(PB)>
-66.406

> <W(SA)>
2.093

> <Valence>
14.072

> <Coulomb>
-0.199

> <VdW>
0.592

> <VdW6>
-5.019

> <VdW12>
5.611

> <Bond>
0.085

> <Angle>
2.748

> <Pdih>
11.238

> <Idih>
0.001

> <Tether>
0.000

$$$$
VeraChem MOL file


 17 16  0  0  0  0  0  0  0  0999 V2000     
   23.1436   19.4997   21.2347 C   0  0  0  0  0  0  0  0  0  0  0  0
   23.7030   20.5495   21.4836 O   0  5  0  0  0  0  0  0  0  0  0  0
   23.3085   18.8785   20.2033 O   0  0  0  0  0  0  0  0  0  0  0  0
   22.1884   18.9308   22.2756 C   0  0  0  0  0  0  0  0  0  0  0  0
   22.6418   19.0786   23.2625 H   0  0  0  0  0  0  0  0  0  0  0  0
   22.1124   17.8485   22.1163 H   0  0  0  0  0  0  0  0  0  0  0  0
   20.8206   19.5848   22.2277 C   0  0  0  0  0  0  0  0  0  0  0  0
   20.7940   20.6302   22.5335 H   0  0  0  0  0  0  0  0  0  0  0  0
   19.7031   18.9613   21.8422 C   0  0  0  0  0  0  0  0  0  0  0  0
   19.7309   17.9167   21.5337 H   0  0  0  0  0  0  0  0  0  0  0  0
   18.3407   19.6160   21.7915 C   0  0  0  0  0  0  0  0  0  0  0  0
   18.4363   20.7083   21.8629 H   0  0  0  0  0  0  0  0  0  0  0  0
   17.8632   19.4039   20.8253 H   0  0  0  0  0  0  0  0  0  0  0  0
   17.4389   19.1073   22.9329 C   0  0  0  0  0  0  0  0  0  0  0  0
   17.8843   19.3315   23.9112 H   0  0  0  0  0  0  0  0  0  0  0  0
   16.4516   19.5854   22.8905 H   0  0  0  0  0  0  0  0  0  0  0  0
   17.2946   18.0211   22.8637 H   0  0  0  0  0  0  0  0  0  0  0  0
  1  2  1  0  0  0  0
  1  3  2  0  0  0  0
  1  4  1  0  0  0  0
  4  5  1  0  0  0  0
  4  6  1  0  0  0  0
  4  7  1  0  0  0  0
  7  8  1  0  0  0  0
  7  9  2  0  0  0  0
  9 10  1  0  0  0  0
  9 11  1  0  0  0  0
 11 12  1  0  0  0  0
 11 13  1  0  0  0  0
 11 14  1  0  0  0  0
 14 15  1  0  0  0  0
 14 16  1  0  0  0  0
 14 17  1  0  0  0  0
M  END
> <VConfSearch Rank>
731

> <Conf_Id>
38

> <Delta U+W>
0.000

> <U+W>
-49.427

> <U>
13.666

> <W>
-63.093

> <W(PB)>
-65.225

> <W(SA)>
2.132

> <Valence>
15.226

> <Coulomb>
-1.822

> <VdW>
0.261

> <VdW6>
-4.165

> <VdW12>
4.426

> <Bond>
0.044

> <Angle>
2.229

> <Pdih>
12.953

> <Idih>
0.000

> <Tether>
0.000

$$$$
VeraChem MOL file


 17 16  0  0  0  0  0  0  0  0999 V2000     
   21.8386   21.3788   23.6825 C   0  0  0  0  0  0  0  0  0  0  0  0
   21.4266   22.4965   23.4420 O   0  5  0  0  0  0  0  0  0  0  0  0
   23.0161   21.1118   23.8204 O   0  0  0  0  0  0  0  0  0  0  0  0
   20.8252   20.2507   23.8247 C   0  0  0  0  0  0  0  0  0  0  0  0
   19.8582   20.6905   24.0970 H   0  0  0  0  0  0  0  0  0  0  0  0
   21.1397   19.6220   24.6657 H   0  0  0  0  0  0  0  0  0  0  0  0
   20.7066   19.4143   22.5649 C   0  0  0  0  0  0  0  0  0  0  0  0
   21.5842   18.8172   22.3187 H   0  0  0  0  0  0  0  0  0  0  0  0
   19.6234   19.3841   21.7826 C   0  0  0  0  0  0  0  0  0  0  0  0
   18.7474   19.9838   22.0276 H   0  0  0  0  0  0  0  0  0  0  0  0
   19.5084   18.5525   20.5246 C   0  0  0  0  0  0  0  0  0  0  0  0
   19.1261   19.1736   19.7033 H   0  0  0  0  0  0  0  0  0  0  0  0
   20.4973   18.1900   20.2117 H   0  0  0  0  0  0  0  0  0  0  0  0
   18.5689   17.3500   20.7397 C   0  0  0  0  0  0  0  0  0  0  0  0
   17.5607   17.6851   21.0166 H   0  0  0  0  0  0  0  0  0  0  0  0
   18.4889   16.7507   19.8233 H   0  0  0  0  0  0  0  0  0  0  0  0
   18.9451   16.6996   21.5403 H   0  0  0  0  0  0  0  0  0  0  0  0
  1  2  1  0  0  0  0
  1  3  2  0  0  0  0
  1  4  1  0  0  0  0
  4  5  1  0  0  0  0
  4  6  1  0  0  0  0
  4  7  1  0  0  0  0
  7  8  1  0  0  0  0
  7  9  2  0  0  0  0
  9 10  1  0  0  0  0
  9 11  1  0  0  0  0
 11 12  1  0  0  0  0
 11 13  1  0  0  0  0
 11 14  1  0  0  0  0
 14 15  1  0  0  0  0
 14 16  1  0  0  0  0
 14 17  1  0  0  0  0
M  END
> <VConfSearch Rank>
732

> <Conf_Id>
35

> <Delta U+W>
-0.102

> <U+W>
-49.529

> <U>
13.666

> <W>
-63.195

> <W(PB)>
-65.299

> <W(SA)>
2.103

> <Valence>
15.226

> <Coulomb>
-1.822

> <VdW>
0.261

> <VdW6>
-4.165

> <VdW12>
4.426

> <Bond>
0.044

> <Angle>
2.229

> <Pdih>
12.953

> <Idih>
0.000

> <Tether>
0.000

$$$$
VeraChem MOL file


 17 16  0  0  0  0  0  0  0  0999 V2000     
   22.7509   17.6893   21.6311 C   0  0  0  0  0  0  0  0  0  0  0  0
   23.5059   18.4245   21.0259 O   0  5  0  0  0  0  0  0  0  0  0  0
   23.0949   16.9975   22.5692 O   0  0  0  0  0  0  0  0  0  0  0  0
   21.2969   17.6258   21.1820 C   0  0  0  0  0  0  0  0  0  0  0  0
   20.8807   16.6633   21.5026 H   0  0  0  0  0  0  0  0  0  0  0  0
   21.2847   17.6310   20.0859 H   0  0  0  0  0  0  0  0  0  0  0  0
   20.4730   18.7818   21.7171 C   0  0  0  0  0  0  0  0  0  0  0  0
   20.7379   19.7557   21.3091 H   0  0  0  0  0  0  0  0  0  0  0  0
   19.4963   18.6467   22.6229 C   0  0  0  0  0  0  0  0  0  0  0  0
   19.2624   17.6562   23.0120 H   0  0  0  0  0  0  0  0  0  0  0  0
   18.6369   19.7572   23.2034 C   0  0  0  0  0  0  0  0  0  0  0  0
   17.5803   19.5298   23.0078 H   0  0  0  0  0  0  0  0  0  0  0  0
   18.7418   19.7543   24.2968 H   0  0  0  0  0  0  0  0  0  0  0  0
   18.9537   21.1724   22.6717 C   0  0  0  0  0  0  0  0  0  0  0  0
   18.8065   21.2273   21.5851 H   0  0  0  0  0  0  0  0  0  0  0  0
   18.2938   21.9154   23.1381 H   0  0  0  0  0  0  0  0  0  0  0  0
   19.9904   21.4550   22.8974 H   0  0  0  0  0  0  0  0  0  0  0  0
  1  2  1  0  0  0  0
  1  3  2  0  0  0  0
  1  4  1  0  0  0  0
  4  5  1  0  0  0  0
  4  6  1  0  0  0  0
  4  7  1  0  0  0  0
  7  8  1  0  0  0  0
  7  9  2  0  0  0  0
  9 10  1  0  0  0  0
  9 11  1  0  0  0  0
 11 12  1  0  0  0  0
 11 13  1  0  0  0  0
 11 14  1  0  0  0  0
 14 15  1  0  0  0  0
 14 16  1  0  0  0  0
 14 17  1  0  0  0  0
M  END
> <VConfSearch Rank>
733

> <Conf_Id>
19

> <Delta U+W>
-0.496

> <U+W>
-49.923

> <U>
13.863

> <W>
-63.786

> <W(PB)>
-65.856

> <W(SA)>
2.070

> <Valence>
14.117

> <Coulomb>
-1.228

> <VdW>
0.974

> <VdW6>
-4.885

> <VdW12>
5.859

> <Bond>
0.094

> <Angle>
2.818

> <Pdih>
11.205

> <Idih>
0.000

> <Tether>
0.000

$$$$
VeraChem MOL file


 17 16  0  0  0  0  0  0  0  0999 V2000     
   21.5829   20.0464   19.8402 C   0  0  0  0  0  0  0  0  0  0  0  0
   22.7017   20.2403   20.2731 O   0  5  0  0  0  0  0  0  0  0  0  0
   21.3576   19.4687   18.7950 O   0  0  0  0  0  0  0  0  0  0  0  0
   20.3974   20.5640   20.6443 C   0  0  0  0  0  0  0  0  0  0  0  0
   19.6802   21.0005   19.9396 H   0  0  0  0  0  0  0  0  0  0  0  0
   20.7495   21.3780   21.2894 H   0  0  0  0  0  0  0  0  0  0  0  0
   19.7287   19.4741   21.4602 C   0  0  0  0  0  0  0  0  0  0  0  0
   19.2181   18.7060   20.8802 H   0  0  0  0  0  0  0  0  0  0  0  0
   19.7467   19.4172   22.7954 C   0  0  0  0  0  0  0  0  0  0  0  0
   20.2619   20.1827   23.3747 H   0  0  0  0  0  0  0  0  0  0  0  0
   19.0818   18.3279   23.6070 C   0  0  0  0  0  0  0  0  0  0  0  0
   18.4865   18.7771   24.4134 H   0  0  0  0  0  0  0  0  0  0  0  0
   18.3838   17.7543   22.9816 H   0  0  0  0  0  0  0  0  0  0  0  0
   20.1280   17.3717   24.2119 C   0  0  0  0  0  0  0  0  0  0  0  0
   20.8169   17.9128   24.8738 H   0  0  0  0  0  0  0  0  0  0  0  0
   19.6401   16.5831   24.7994 H   0  0  0  0  0  0  0  0  0  0  0  0
   20.7199   16.8913   23.4216 H   0  0  0  0  0  0  0  0  0  0  0  0
  1  2  1  0  0  0  0
  1  3  2  0  0  0  0
  1  4  1  0  0  0  0
  4  5  1  0  0  0  0
  4  6  1  0  0  0  0
  4  7  1  0  0  0  0
  7  8  1  0  0  0  0
  7  9  2  0  0  0  0
  9 10  1  0  0  0  0
  9 11  1  0  0  0  0
 11 12  1  0  0  0  0
 11 13  1  0  0  0  0
 11 14  1  0  0  0  0
 14 15  1  0  0  0  0
 14 16  1  0  0  0  0
 14 17  1  0  0  0  0
M  END
> <VConfSearch Rank>
734

> <Conf_Id>
7

> <Delta U+W>
-0.041

> <U+W>
-49.468

> <U>
14.121

> <W>
-63.589

> <W(PB)>
-65.660

> <W(SA)>
2.071

> <Valence>
15.230

> <Coulomb>
-1.333

> <VdW>
0.224

> <VdW6>
-4.212

> <VdW12>
4.436

> <Bond>
0.044

> <Angle>
2.230

> <Pdih>
12.956

> <Idih>
0.000

> <Tether>
0.000

$$$$
VeraChem MOL file


 17 16  0  0  0  0  0  0  0  0999 V2000     
   21.7071   17.5663   20.7739 C   0  0  0  0  0  0  0  0  0  0  0  0
   22.6950   17.4911   21.4776 O   0  5  0  0  0  0  0  0  0  0  0  0
   21.7410   17.8817   19.6006 O   0  0  0  0  0  0  0  0  0  0  0  0
   20.3547   17.2190   21.3887 C   0  0  0  0  0  0  0  0  0  0  0  0
   20.5198   16.4496   22.1519 H   0  0  0  0  0  0  0  0  0  0  0  0
   19.7439   16.7459   20.6110 H   0  0  0  0  0  0  0  0  0  0  0  0
   19.5907   18.3861   21.9979 C   0  0  0  0  0  0  0  0  0  0  0  0
   18.6283   18.1163   22.4310 H   0  0  0  0  0  0  0  0  0  0  0  0
   20.0008   19.6594   22.0384 C   0  0  0  0  0  0  0  0  0  0  0  0
   20.9592   19.9557   21.6136 H   0  0  0  0  0  0  0  0  0  0  0  0
   19.2007   20.7847   22.6560 C   0  0  0  0  0  0  0  0  0  0  0  0
   19.1668   21.6378   21.9649 H   0  0  0  0  0  0  0  0  0  0  0  0
   18.1606   20.4720   22.8218 H   0  0  0  0  0  0  0  0  0  0  0  0
   19.8180   21.2327   23.9951 C   0  0  0  0  0  0  0  0  0  0  0  0
   19.2344   22.0502   24.4380 H   0  0  0  0  0  0  0  0  0  0  0  0
   19.8390   20.4014   24.7121 H   0  0  0  0  0  0  0  0  0  0  0  0
   20.8474   21.5871   23.8526 H   0  0  0  0  0  0  0  0  0  0  0  0
  1  2  1  0  0  0  0
  1  3  2  0  0  0  0
  1  4  1  0  0  0  0
  4  5  1  0  0  0  0
  4  6  1  0  0  0  0
  4  7  1  0  0  0  0
  7  8  1  0  0  0  0
  7  9  2  0  0  0  0
  9 10  1  0  0  0  0
  9 11  1  0  0  0  0
 11 12  1  0  0  0  0
 11 13  1  0  0  0  0
 11 14  1  0  0  0  0
 14 15  1  0  0  0  0
 14 16  1  0  0  0  0
 14 17  1  0  0  0  0
M  END
> <VConfSearch Rank>
735

> <Conf_Id>
39

> <Delta U+W>
-0.422

> <U+W>
-49.849

> <U>
14.465

> <W>
-64.314

> <W(PB)>
-66.406

> <W(SA)>
2.093

> <Valence>
14.072

> <Coulomb>
-0.199

> <VdW>
0.592

> <VdW6>
-5.019

> <VdW12>
5.611

> <Bond>
0.085

> <Angle>
2.748

> <Pdih>
11.238

> <Idih>
0.001

> <Tether>
0.000

$$$$
VeraChem MOL file


 17 16  0  0  0  0  0  0  0  0999 V2000     
   18.5935   17.6995   24.3949 C   0  0  0  0  0  0  0  0  0  0  0  0
   19.0933   16.6524   24.7563 O   0  5  0  0  0  0  0  0  0  0  0  0
   17.3964   17.8628   24.2641 O   0  0  0  0  0  0  0  0  0  0  0  0
   19.5192   18.8712   24.0953 C   0  0  0  0  0  0  0  0  0  0  0  0
   20.3017   18.8846   24.8628 H   0  0  0  0  0  0  0  0  0  0  0  0
   18.9452   19.7990   24.2061 H   0  0  0  0  0  0  0  0  0  0  0  0
   20.1440   18.7800   22.7161 C   0  0  0  0  0  0  0  0  0  0  0  0
   20.8575   17.9676   22.5816 H   0  0  0  0  0  0  0  0  0  0  0  0
   19.8659   19.6134   21.7089 C   0  0  0  0  0  0  0  0  0  0  0  0
   19.1501   20.4237   21.8432 H   0  0  0  0  0  0  0  0  0  0  0  0
   20.4871   19.5186   20.3333 C   0  0  0  0  0  0  0  0  0  0  0  0
   20.9842   18.5475   20.2020 H   0  0  0  0  0  0  0  0  0  0  0  0
   19.7020   19.5768   19.5672 H   0  0  0  0  0  0  0  0  0  0  0  0
   21.5095   20.6495   20.1081 C   0  0  0  0  0  0  0  0  0  0  0  0
   22.3192   20.5961   20.8478 H   0  0  0  0  0  0  0  0  0  0  0  0
   21.9563   20.5758   19.1081 H   0  0  0  0  0  0  0  0  0  0  0  0
   21.0307   21.6336   20.1956 H   0  0  0  0  0  0  0  0  0  0  0  0
  1  2  1  0  0  0  0
  1  3  2  0  0  0  0
  1  4  1  0  0  0  0
  4  5  1  0  0  0  0
  4  6  1  0  0  0  0
  4  7  1  0  0  0  0
  7  8  1  0  0  0  0
  7  9  2  0  0  0  0
  9 10  1  0  0  0  0
  9 11  1  0  0  0  0
 11 12  1  0  0  0  0
 11 13  1  0  0  0  0
 11 14  1  0  0  0  0
 14 15  1  0  0  0  0
 14 16  1  0  0  0  0
 14 17  1  0  0  0  0
M  END
> <VConfSearch Rank>
736

> <Conf_Id>
38

> <Delta U+W>
0.000

> <U+W>
-49.427

> <U>
13.666

> <W>
-63.093

> <W(PB)>
-65.225

> <W(SA)>
2.132

> <Valence>
15.226

> <Coulomb>
-1.822

> <VdW>
0.261

> <VdW6>
-4.165

> <VdW12>
4.426

> <Bond>
0.044

> <Angle>
2.229

> <Pdih>
12.953

> <Idih>
0.000

> <Tether>
0.000

$$$$
VeraChem MOL file


 17 16  0  0  0  0  0  0  0  0999 V2000     
   18.1063   16.8803   22.7357 C   0  0  0  0  0  0  0  0  0  0  0  0
   17.0283   17.1123   22.2249 O   0  5  0  0  0  0  0  0  0  0  0  0
   18.2354   16.3392   23.8162 O   0  0  0  0  0  0  0  0  0  0  0  0
   19.3654   17.2840   21.9799 C   0  0  0  0  0  0  0  0  0  0  0  0
   19.1199   17.3469   20.9130 H   0  0  0  0  0  0  0  0  0  0  0  0
   20.0976   16.4762   22.0933 H   0  0  0  0  0  0  0  0  0  0  0  0
   19.9499   18.5908   22.4812 C   0  0  0  0  0  0  0  0  0  0  0  0
   20.3653   18.5587   23.4879 H   0  0  0  0  0  0  0  0  0  0  0  0
   19.9720   19.7243   21.7733 C   0  0  0  0  0  0  0  0  0  0  0  0
   19.5536   19.7565   20.7678 H   0  0  0  0  0  0  0  0  0  0  0  0
   20.5517   21.0275   22.2763 C   0  0  0  0  0  0  0  0  0  0  0  0
   19.8398   21.8441   22.0953 H   0  0  0  0  0  0  0  0  0  0  0  0
   20.7114   20.9833   23.3624 H   0  0  0  0  0  0  0  0  0  0  0  0
   21.8875   21.3460   21.5768 C   0  0  0  0  0  0  0  0  0  0  0  0
   21.7500   21.4339   20.4911 H   0  0  0  0  0  0  0  0  0  0  0  0
   22.3029   22.2929   21.9453 H   0  0  0  0  0  0  0  0  0  0  0  0
   22.6247   20.5543   21.7652 H   0  0  0  0  0  0  0  0  0  0  0  0
  1  2  1  0  0  0  0
  1  3  2  0  0  0  0
  1  4  1  0  0  0  0
  4  5  1  0  0  0  0
  4  6  1  0  0  0  0
  4  7  1  0  0  0  0
  7  8  1  0  0  0  0
  7  9  2  0  0  0  0
  9 10  1  0  0  0  0
  9 11  1  0  0  0  0
 11 12  1  0  0  0  0
 11 13  1  0  0  0  0
 11 14  1  0  0  0  0
 14 15  1  0  0  0  0
 14 16  1  0  0  0  0
 14 17  1  0  0  0  0
M  END
> <VConfSearch Rank>
737

> <Conf_Id>
35

> <Delta U+W>
-0.102

> <U+W>
-49.529

> <U>
13.666

> <W>
-63.195

> <W(PB)>
-65.299

> <W(SA)>
2.103

> <Valence>
15.226

> <Coulomb>
-1.822

> <VdW>
0.261

> <VdW6>
-4.165

> <VdW12>
4.426

> <Bond>
0.044

> <Angle>
2.229

> <Pdih>
12.953

> <Idih>
0.000

> <Tether>
0.000

$$$$
VeraChem MOL file


 17 16  0  0  0  0  0  0  0  0999 V2000     
   20.7141   17.7885   19.6059 C   0  0  0  0  0  0  0  0  0  0  0  0
   20.9239   18.6282   18.7528 O   0  5  0  0  0  0  0  0  0  0  0  0
   21.3822   16.7818   19.7366 O   0  0  0  0  0  0  0  0  0  0  0  0
   19.5439   18.0070   20.5559 C   0  0  0  0  0  0  0  0  0  0  0  0
   19.2291   17.0303   20.9426 H   0  0  0  0  0  0  0  0  0  0  0  0
   18.7070   18.4046   19.9703 H   0  0  0  0  0  0  0  0  0  0  0  0
   19.8850   18.9575   21.6880 C   0  0  0  0  0  0  0  0  0  0  0  0
   20.0533   19.9882   21.3807 H   0  0  0  0  0  0  0  0  0  0  0  0
   19.9839   18.5866   22.9707 C   0  0  0  0  0  0  0  0  0  0  0  0
   19.8128   17.5448   23.2399 H   0  0  0  0  0  0  0  0  0  0  0  0
   20.3242   19.4815   24.1506 C   0  0  0  0  0  0  0  0  0  0  0  0
   19.5115   19.4249   24.8873 H   0  0  0  0  0  0  0  0  0  0  0  0
   21.2113   19.0796   24.6584 H   0  0  0  0  0  0  0  0  0  0  0  0
   20.5774   20.9629   23.7937 C   0  0  0  0  0  0  0  0  0  0  0  0
   19.6896   21.4143   23.3317 H   0  0  0  0  0  0  0  0  0  0  0  0
   20.8171   21.5406   24.6958 H   0  0  0  0  0  0  0  0  0  0  0  0
   21.4206   21.0617   23.0974 H   0  0  0  0  0  0  0  0  0  0  0  0
  1  2  1  0  0  0  0
  1  3  2  0  0  0  0
  1  4  1  0  0  0  0
  4  5  1  0  0  0  0
  4  6  1  0  0  0  0
  4  7  1  0  0  0  0
  7  8  1  0  0  0  0
  7  9  2  0  0  0  0
  9 10  1  0  0  0  0
  9 11  1  0  0  0  0
 11 12  1  0  0  0  0
 11 13  1  0  0  0  0
 11 14  1  0  0  0  0
 14 15  1  0  0  0  0
 14 16  1  0  0  0  0
 14 17  1  0  0  0  0
M  END
> <VConfSearch Rank>
738

> <Conf_Id>
19

> <Delta U+W>
-0.496

> <U+W>
-49.923

> <U>
13.863

> <W>
-63.786

> <W(PB)>
-65.856

> <W(SA)>
2.070

> <Valence>
14.117

> <Coulomb>
-1.228

> <VdW>
0.974

> <VdW6>
-4.885

> <VdW12>
5.859

> <Bond>
0.094

> <Angle>
2.818

> <Pdih>
11.205

> <Idih>
0.000

> <Tether>
0.000

$$$$
VeraChem MOL file


 17 16  0  0  0  0  0  0  0  0999 V2000     
   22.7348   19.0326   20.8056 C   0  0  0  0  0  0  0  0  0  0  0  0
   22.6226   18.0622   20.0828 O   0  5  0  0  0  0  0  0  0  0  0  0
   23.1588   20.1069   20.4273 O   0  0  0  0  0  0  0  0  0  0  0  0
   22.3328   18.8943   22.2682 C   0  0  0  0  0  0  0  0  0  0  0  0
   23.0873   19.4109   22.8728 H   0  0  0  0  0  0  0  0  0  0  0  0
   22.3779   17.8322   22.5375 H   0  0  0  0  0  0  0  0  0  0  0  0
   20.9574   19.4687   22.5493 C   0  0  0  0  0  0  0  0  0  0  0  0
   20.8768   20.5510   22.4526 H   0  0  0  0  0  0  0  0  0  0  0  0
   19.8918   18.7358   22.8864 C   0  0  0  0  0  0  0  0  0  0  0  0
   19.9718   17.6530   22.9780 H   0  0  0  0  0  0  0  0  0  0  0  0
   18.5205   19.3102   23.1635 C   0  0  0  0  0  0  0  0  0  0  0  0
   18.1266   18.8944   24.1008 H   0  0  0  0  0  0  0  0  0  0  0  0
   18.5804   20.3985   23.3018 H   0  0  0  0  0  0  0  0  0  0  0  0
   17.5458   18.9955   22.0121 C   0  0  0  0  0  0  0  0  0  0  0  0
   17.4366   17.9115   21.8766 H   0  0  0  0  0  0  0  0  0  0  0  0
   16.5525   19.4150   22.2181 H   0  0  0  0  0  0  0  0  0  0  0  0
   17.9073   19.4233   21.0676 H   0  0  0  0  0  0  0  0  0  0  0  0
  1  2  1  0  0  0  0
  1  3  2  0  0  0  0
  1  4  1  0  0  0  0
  4  5  1  0  0  0  0
  4  6  1  0  0  0  0
  4  7  1  0  0  0  0
  7  8  1  0  0  0  0
  7  9  2  0  0  0  0
  9 10  1  0  0  0  0
  9 11  1  0  0  0  0
 11 12  1  0  0  0  0
 11 13  1  0  0  0  0
 11 14  1  0  0  0  0
 14 15  1  0  0  0  0
 14 16  1  0  0  0  0
 14 17  1  0  0  0  0
M  END
> <VConfSearch Rank>
739

> <Conf_Id>
7

> <Delta U+W>
-0.041

> <U+W>
-49.468

> <U>
14.121

> <W>
-63.589

> <W(PB)>
-65.660

> <W(SA)>
2.071

> <Valence>
15.230

> <Coulomb>
-1.333

> <VdW>
0.224

> <VdW6>
-4.212

> <VdW12>
4.436

> <Bond>
0.044

> <Angle>
2.230

> <Pdih>
12.956

> <Idih>
0.000

> <Tether>
0.000

$$$$
VeraChem MOL file


 17 16  0  0  0  0  0  0  0  0999 V2000     
   19.9318   21.8891   23.1277 C   0  0  0  0  0  0  0  0  0  0  0  0
   19.7803   22.4689   22.0704 O   0  5  0  0  0  0  0  0  0  0  0  0
   20.7978   22.1740   23.9314 O   0  0  0  0  0  0  0  0  0  0  0  0
   18.9656   20.7614   23.4774 C   0  0  0  0  0  0  0  0  0  0  0  0
   17.9934   21.0008   23.0310 H   0  0  0  0  0  0  0  0  0  0  0  0
   18.8109   20.7763   24.5626 H   0  0  0  0  0  0  0  0  0  0  0  0
   19.3972   19.3679   23.0427 C   0  0  0  0  0  0  0  0  0  0  0  0
   18.6935   18.5781   23.3022 H   0  0  0  0  0  0  0  0  0  0  0  0
   20.5262   19.0610   22.3930 C   0  0  0  0  0  0  0  0  0  0  0  0
   21.2462   19.8319   22.1208 H   0  0  0  0  0  0  0  0  0  0  0  0
   20.9096   17.6561   21.9840 C   0  0  0  0  0  0  0  0  0  0  0  0
   21.9489   17.4555   22.2774 H   0  0  0  0  0  0  0  0  0  0  0  0
   20.2863   16.9187   22.5083 H   0  0  0  0  0  0  0  0  0  0  0  0
   20.7587   17.4617   20.4627 C   0  0  0  0  0  0  0  0  0  0  0  0
   21.0395   16.4412   20.1715 H   0  0  0  0  0  0  0  0  0  0  0  0
   19.7203   17.6322   20.1491 H   0  0  0  0  0  0  0  0  0  0  0  0
   21.4011   18.1621   19.9129 H   0  0  0  0  0  0  0  0  0  0  0  0
  1  2  1  0  0  0  0
  1  3  2  0  0  0  0
  1  4  1  0  0  0  0
  4  5  1  0  0  0  0
  4  6  1  0  0  0  0
  4  7  1  0  0  0  0
  7  8  1  0  0  0  0
  7  9  2  0  0  0  0
  9 10  1  0  0  0  0
  9 11  1  0  0  0  0
 11 12  1  0  0  0  0
 11 13  1  0  0  0  0
 11 14  1  0  0  0  0
 14 15  1  0  0  0  0
 14 16  1  0  0  0  0
 14 17  1  0  0  0  0
M  END
> <VConfSearch Rank>
740

> <Conf_Id>
39

> <Delta U+W>
-0.422

> <U+W>
-49.849

> <U>
14.465

> <W>
-64.314

> <W(PB)>
-66.406

> <W(SA)>
2.093

> <Valence>
14.072

> <Coulomb>
-0.199

> <VdW>
0.592

> <VdW6>
-5.019

> <VdW12>
5.611

> <Bond>
0.085

> <Angle>
2.748

> <Pdih>
11.238

> <Idih>
0.001

> <Tether>
0.000

$$$$
VeraChem MOL file


 17 16  0  0  0  0  0  0  0  0999 V2000     
   18.9294   21.4204   24.1095 C   0  0  0  0  0  0  0  0  0  0  0  0
   19.2982   22.5680   23.9547 O   0  5  0  0  0  0  0  0  0  0  0  0
   18.7765   20.9049   25.1993 O   0  0  0  0  0  0  0  0  0  0  0  0
   18.6382   20.5863   22.8689 C   0  0  0  0  0  0  0  0  0  0  0  0
   18.1160   21.2274   22.1492 H   0  0  0  0  0  0  0  0  0  0  0  0
   17.9429   19.7859   23.1490 H   0  0  0  0  0  0  0  0  0  0  0  0
   19.8973   20.0182   22.2423 C   0  0  0  0  0  0  0  0  0  0  0  0
   20.5659   20.7525   21.7940 H   0  0  0  0  0  0  0  0  0  0  0  0
   20.2050   18.7177   22.2215 C   0  0  0  0  0  0  0  0  0  0  0  0
   19.5375   17.9842   22.6726 H   0  0  0  0  0  0  0  0  0  0  0  0
   21.4628   18.1534   21.5996 C   0  0  0  0  0  0  0  0  0  0  0  0
   22.1884   18.9552   21.4048 H   0  0  0  0  0  0  0  0  0  0  0  0
   21.9429   17.4573   22.3007 H   0  0  0  0  0  0  0  0  0  0  0  0
   21.1478   17.4194   20.2817 C   0  0  0  0  0  0  0  0  0  0  0  0
   20.6898   18.1029   19.5546 H   0  0  0  0  0  0  0  0  0  0  0  0
   22.0642   17.0116   19.8355 H   0  0  0  0  0  0  0  0  0  0  0  0
   20.4529   16.5869   20.4534 H   0  0  0  0  0  0  0  0  0  0  0  0
  1  2  1  0  0  0  0
  1  3  2  0  0  0  0
  1  4  1  0  0  0  0
  4  5  1  0  0  0  0
  4  6  1  0  0  0  0
  4  7  1  0  0  0  0
  7  8  1  0  0  0  0
  7  9  2  0  0  0  0
  9 10  1  0  0  0  0
  9 11  1  0  0  0  0
 11 12  1  0  0  0  0
 11 13  1  0  0  0  0
 11 14  1  0  0  0  0
 14 15  1  0  0  0  0
 14 16  1  0  0  0  0
 14 17  1  0  0  0  0
M  END
> <VConfSearch Rank>
741

> <Conf_Id>
38

> <Delta U+W>
0.000

> <U+W>
-49.427

> <U>
13.666

> <W>
-63.093

> <W(PB)>
-65.225

> <W(SA)>
2.132

> <Valence>
15.226

> <Coulomb>
-1.822

> <VdW>
0.261

> <VdW6>
-4.165

> <VdW12>
4.426

> <Bond>
0.044

> <Angle>
2.229

> <Pdih>
12.953

> <Idih>
0.000

> <Tether>
0.000

$$$$
VeraChem MOL file


 17 16  0  0  0  0  0  0  0  0999 V2000     
   19.5647   17.1019   24.3532 C   0  0  0  0  0  0  0  0  0  0  0  0
   18.6923   17.5037   25.0977 O   0  5  0  0  0  0  0  0  0  0  0  0
   20.5304   16.4677   24.7302 O   0  0  0  0  0  0  0  0  0  0  0  0
   19.4402   17.4037   22.8655 C   0  0  0  0  0  0  0  0  0  0  0  0
   18.3817   17.5780   22.6382 H   0  0  0  0  0  0  0  0  0  0  0  0
   19.7426   16.5053   22.3151 H   0  0  0  0  0  0  0  0  0  0  0  0
   20.2896   18.5860   22.4396 C   0  0  0  0  0  0  0  0  0  0  0  0
   21.3663   18.4257   22.4856 H   0  0  0  0  0  0  0  0  0  0  0  0
   19.7944   19.7589   22.0331 C   0  0  0  0  0  0  0  0  0  0  0  0
   18.7176   19.9196   21.9904 H   0  0  0  0  0  0  0  0  0  0  0  0
   20.6429   20.9381   21.6126 C   0  0  0  0  0  0  0  0  0  0  0  0
   20.2887   21.8479   22.1158 H   0  0  0  0  0  0  0  0  0  0  0  0
   21.6863   20.7914   21.9241 H   0  0  0  0  0  0  0  0  0  0  0  0
   20.5903   21.1418   20.0859 C   0  0  0  0  0  0  0  0  0  0  0  0
   19.5616   21.3291   19.7509 H   0  0  0  0  0  0  0  0  0  0  0  0
   21.2073   21.9992   19.7869 H   0  0  0  0  0  0  0  0  0  0  0  0
   20.9646   20.2531   19.5608 H   0  0  0  0  0  0  0  0  0  0  0  0
  1  2  1  0  0  0  0
  1  3  2  0  0  0  0
  1  4  1  0  0  0  0
  4  5  1  0  0  0  0
  4  6  1  0  0  0  0
  4  7  1  0  0  0  0
  7  8  1  0  0  0  0
  7  9  2  0  0  0  0
  9 10  1  0  0  0  0
  9 11  1  0  0  0  0
 11 12  1  0  0  0  0
 11 13  1  0  0  0  0
 11 14  1  0  0  0  0
 14 15  1  0  0  0  0
 14 16  1  0  0  0  0
 14 17  1  0  0  0  0
M  END
> <VConfSearch Rank>
742

> <Conf_Id>
35

> <Delta U+W>
-0.102

> <U+W>
-49.529

> <U>
13.666

> <W>
-63.195

> <W(PB)>
-65.299

> <W(SA)>
2.103

> <Valence>
15.226

> <Coulomb>
-1.822

> <VdW>
0.261

> <VdW6>
-4.165

> <VdW12>
4.426

> <Bond>
0.044

> <Angle>
2.229

> <Pdih>
12.953

> <Idih>
0.000

> <Tether>
0.000

$$$$
VeraChem MOL file


 17 16  0  0  0  0  0  0  0  0999 V2000     
   17.7188   20.2615   23.2451 C   0  0  0  0  0  0  0  0  0  0  0  0
   17.2803   19.5644   24.1388 O   0  5  0  0  0  0  0  0  0  0  0  0
   17.7857   21.4732   23.3092 O   0  0  0  0  0  0  0  0  0  0  0  0
   18.2017   19.5779   21.9725 C   0  0  0  0  0  0  0  0  0  0  0  0
   18.1491   20.3038   21.1522 H   0  0  0  0  0  0  0  0  0  0  0  0
   17.4947   18.7746   21.7352 H   0  0  0  0  0  0  0  0  0  0  0  0
   19.6029   19.0137   22.1125 C   0  0  0  0  0  0  0  0  0  0  0  0
   19.6884   18.1758   22.8022 H   0  0  0  0  0  0  0  0  0  0  0  0
   20.6691   19.4906   21.4580 C   0  0  0  0  0  0  0  0  0  0  0  0
   20.5455   20.3336   20.7789 H   0  0  0  0  0  0  0  0  0  0  0  0
   22.0964   18.9782   21.5531 C   0  0  0  0  0  0  0  0  0  0  0  0
   22.4398   18.6908   20.5502 H   0  0  0  0  0  0  0  0  0  0  0  0
   22.7512   19.8035   21.8640 H   0  0  0  0  0  0  0  0  0  0  0  0
   22.2987   17.7866   22.5149 C   0  0  0  0  0  0  0  0  0  0  0  0
   21.6985   16.9219   22.2026 H   0  0  0  0  0  0  0  0  0  0  0  0
   23.3518   17.4773   22.5283 H   0  0  0  0  0  0  0  0  0  0  0  0
   22.0143   18.0556   23.5406 H   0  0  0  0  0  0  0  0  0  0  0  0
  1  2  1  0  0  0  0
  1  3  2  0  0  0  0
  1  4  1  0  0  0  0
  4  5  1  0  0  0  0
  4  6  1  0  0  0  0
  4  7  1  0  0  0  0
  7  8  1  0  0  0  0
  7  9  2  0  0  0  0
  9 10  1  0  0  0  0
  9 11  1  0  0  0  0
 11 12  1  0  0  0  0
 11 13  1  0  0  0  0
 11 14  1  0  0  0  0
 14 15  1  0  0  0  0
 14 16  1  0  0  0  0
 14 17  1  0  0  0  0
M  END
> <VConfSearch Rank>
743

> <Conf_Id>
19

> <Delta U+W>
-0.496

> <U+W>
-49.923

> <U>
13.863

> <W>
-63.786

> <W(PB)>
-65.856

> <W(SA)>
2.070

> <Valence>
14.117

> <Coulomb>
-1.228

> <VdW>
0.974

> <VdW6>
-4.885

> <VdW12>
5.859

> <Bond>
0.094

> <Angle>
2.818

> <Pdih>
11.205

> <Idih>
0.000

> <Tether>
0.000

$$$$
VeraChem MOL file


 17 16  0  0  0  0  0  0  0  0999 V2000     
   18.4022   20.8405   23.7557 C   0  0  0  0  0  0  0  0  0  0  0  0
   17.8032   21.4353   22.8814 O   0  5  0  0  0  0  0  0  0  0  0  0
   17.8616   20.3549   24.7298 O   0  0  0  0  0  0  0  0  0  0  0  0
   19.9141   20.7043   23.6313 C   0  0  0  0  0  0  0  0  0  0  0  0
   20.3484   20.8787   24.6225 H   0  0  0  0  0  0  0  0  0  0  0  0
   20.2780   21.5048   22.9760 H   0  0  0  0  0  0  0  0  0  0  0  0
   20.3337   19.3427   23.1109 C   0  0  0  0  0  0  0  0  0  0  0  0
   20.1429   18.5082   23.7850 H   0  0  0  0  0  0  0  0  0  0  0  0
   20.8931   19.1353   21.9150 C   0  0  0  0  0  0  0  0  0  0  0  0
   21.0789   19.9695   21.2392 H   0  0  0  0  0  0  0  0  0  0  0  0
   21.3081   17.7764   21.3968 C   0  0  0  0  0  0  0  0  0  0  0  0
   22.3293   17.8284   20.9954 H   0  0  0  0  0  0  0  0  0  0  0  0
   21.3276   17.0428   22.2145 H   0  0  0  0  0  0  0  0  0  0  0  0
   20.3474   17.2870   20.2956 C   0  0  0  0  0  0  0  0  0  0  0  0
   20.3375   17.9833   19.4468 H   0  0  0  0  0  0  0  0  0  0  0  0
   20.6529   16.3005   19.9236 H   0  0  0  0  0  0  0  0  0  0  0  0
   19.3228   17.2036   20.6814 H   0  0  0  0  0  0  0  0  0  0  0  0
  1  2  1  0  0  0  0
  1  3  2  0  0  0  0
  1  4  1  0  0  0  0
  4  5  1  0  0  0  0
  4  6  1  0  0  0  0
  4  7  1  0  0  0  0
  7  8  1  0  0  0  0
  7  9  2  0  0  0  0
  9 10  1  0  0  0  0
  9 11  1  0  0  0  0
 11 12  1  0  0  0  0
 11 13  1  0  0  0  0
 11 14  1  0  0  0  0
 14 15  1  0  0  0  0
 14 16  1  0  0  0  0
 14 17  1  0  0  0  0
M  END
> <VConfSearch Rank>
744

> <Conf_Id>
7

> <Delta U+W>
-0.041

> <U+W>
-49.468

> <U>
14.121

> <W>
-63.589

> <W(PB)>
-65.660

> <W(SA)>
2.071

> <Valence>
15.230

> <Coulomb>
-1.333

> <VdW>
0.224

> <VdW6>
-4.212

> <VdW12>
4.436

> <Bond>
0.044

> <Angle>
2.230

> <Pdih>
12.956

> <Idih>
0.000

> <Tether>
0.000

$$$$
VeraChem MOL file


 17 16  0  0  0  0  0  0  0  0999 V2000     
   17.6368   18.2825   21.6097 C   0  0  0  0  0  0  0  0  0  0  0  0
   17.5669   18.5936   20.4370 O   0  5  0  0  0  0  0  0  0  0  0  0
   16.7943   18.5786   22.4341 O   0  0  0  0  0  0  0  0  0  0  0  0
   18.8324   17.4520   22.0663 C   0  0  0  0  0  0  0  0  0  0  0  0
   19.1335   16.8087   21.2312 H   0  0  0  0  0  0  0  0  0  0  0  0
   18.4891   16.7766   22.8585 H   0  0  0  0  0  0  0  0  0  0  0  0
   20.0345   18.2458   22.5579 C   0  0  0  0  0  0  0  0  0  0  0  0
   20.8764   17.6338   22.8789 H   0  0  0  0  0  0  0  0  0  0  0  0
   20.1252   19.5797   22.6180 C   0  0  0  0  0  0  0  0  0  0  0  0
   19.2984   20.2148   22.3023 H   0  0  0  0  0  0  0  0  0  0  0  0
   21.3454   20.3212   23.1174 C   0  0  0  0  0  0  0  0  0  0  0  0
   21.0410   21.0923   23.8380 H   0  0  0  0  0  0  0  0  0  0  0  0
   22.0190   19.6379   23.6528 H   0  0  0  0  0  0  0  0  0  0  0  0
   22.1084   20.9800   21.9517 C   0  0  0  0  0  0  0  0  0  0  0  0
   22.9918   21.5176   22.3199 H   0  0  0  0  0  0  0  0  0  0  0  0
   22.4455   20.2242   21.2300 H   0  0  0  0  0  0  0  0  0  0  0  0
   21.4690   21.6978   21.4213 H   0  0  0  0  0  0  0  0  0  0  0  0
  1  2  1  0  0  0  0
  1  3  2  0  0  0  0
  1  4  1  0  0  0  0
  4  5  1  0  0  0  0
  4  6  1  0  0  0  0
  4  7  1  0  0  0  0
  7  8  1  0  0  0  0
  7  9  2  0  0  0  0
  9 10  1  0  0  0  0
  9 11  1  0  0  0  0
 11 12  1  0  0  0  0
 11 13  1  0  0  0  0
 11 14  1  0  0  0  0
 14 15  1  0  0  0  0
 14 16  1  0  0  0  0
 14 17  1  0  0  0  0
M  END
> <VConfSearch Rank>
745

> <Conf_Id>
39

> <Delta U+W>
-0.422

> <U+W>
-49.849

> <U>
14.465

> <W>
-64.314

> <W(PB)>
-66.406

> <W(SA)>
2.093

> <Valence>
14.072

> <Coulomb>
-0.199

> <VdW>
0.592

> <VdW6>
-5.019

> <VdW12>
5.611

> <Bond>
0.085

> <Angle>
2.748

> <Pdih>
11.238

> <Idih>
0.001

> <Tether>
0.000

$$$$
VeraChem MOL file


 17 16  0  0  0  0  0  0  0  0999 V2000     
   19.8742   17.5466   24.7471 C   0  0  0  0  0  0  0  0  0  0  0  0
   20.0055   18.1419   25.7984 O   0  5  0  0  0  0  0  0  0  0  0  0
   20.3308   16.4395   24.5402 O   0  0  0  0  0  0  0  0  0  0  0  0
   19.0896   18.2243   23.6315 C   0  0  0  0  0  0  0  0  0  0  0  0
   18.2208   18.7162   24.0840 H   0  0  0  0  0  0  0  0  0  0  0  0
   18.7047   17.4463   22.9612 H   0  0  0  0  0  0  0  0  0  0  0  0
   19.9221   19.2366   22.8680 C   0  0  0  0  0  0  0  0  0  0  0  0
   20.2071   20.1243   23.4318 H   0  0  0  0  0  0  0  0  0  0  0  0
   20.3030   19.0890   21.5954 C   0  0  0  0  0  0  0  0  0  0  0  0
   20.0202   18.1997   21.0331 H   0  0  0  0  0  0  0  0  0  0  0  0
   21.1364   20.0977   20.8369 C   0  0  0  0  0  0  0  0  0  0  0  0
   21.5895   20.8204   21.5294 H   0  0  0  0  0  0  0  0  0  0  0  0
   21.9649   19.5864   20.3282 H   0  0  0  0  0  0  0  0  0  0  0  0
   20.2833   20.8521   19.7986 C   0  0  0  0  0  0  0  0  0  0  0  0
   19.4622   21.3928   20.2874 H   0  0  0  0  0  0  0  0  0  0  0  0
   20.8935   21.5820   19.2510 H   0  0  0  0  0  0  0  0  0  0  0  0
   19.8482   20.1563   19.0691 H   0  0  0  0  0  0  0  0  0  0  0  0
  1  2  1  0  0  0  0
  1  3  2  0  0  0  0
  1  4  1  0  0  0  0
  4  5  1  0  0  0  0
  4  6  1  0  0  0  0
  4  7  1  0  0  0  0
  7  8  1  0  0  0  0
  7  9  2  0  0  0  0
  9 10  1  0  0  0  0
  9 11  1  0  0  0  0
 11 12  1  0  0  0  0
 11 13  1  0  0  0  0
 11 14  1  0  0  0  0
 14 15  1  0  0  0  0
 14 16  1  0  0  0  0
 14 17  1  0  0  0  0
M  END
> <VConfSearch Rank>
746

> <Conf_Id>
38

> <Delta U+W>
0.000

> <U+W>
-49.427

> <U>
13.666

> <W>
-63.093

> <W(PB)>
-65.225

> <W(SA)>
2.132

> <Valence>
15.226

> <Coulomb>
-1.822

> <VdW>
0.261

> <VdW6>
-4.165

> <VdW12>
4.426

> <Bond>
0.044

> <Angle>
2.229

> <Pdih>
12.953

> <Idih>
0.000

> <Tether>
0.000

$$$$
VeraChem MOL file


 17 16  0  0  0  0  0  0  0  0999 V2000     
   16.9489   19.2339   21.6880 C   0  0  0  0  0  0  0  0  0  0  0  0
   16.5049   18.1788   22.0958 O   0  5  0  0  0  0  0  0  0  0  0  0
   16.5263   19.8044   20.7015 O   0  0  0  0  0  0  0  0  0  0  0  0
   18.0934   19.8812   22.4564 C   0  0  0  0  0  0  0  0  0  0  0  0
   18.0677   19.5095   23.4879 H   0  0  0  0  0  0  0  0  0  0  0  0
   17.9007   20.9594   22.4993 H   0  0  0  0  0  0  0  0  0  0  0  0
   19.4438   19.6186   21.8175 C   0  0  0  0  0  0  0  0  0  0  0  0
   19.6024   20.0975   20.8517 H   0  0  0  0  0  0  0  0  0  0  0  0
   20.3982   18.8589   22.3637 C   0  0  0  0  0  0  0  0  0  0  0  0
   20.2378   18.3778   23.3279 H   0  0  0  0  0  0  0  0  0  0  0  0
   21.7426   18.5950   21.7232 C   0  0  0  0  0  0  0  0  0  0  0  0
   21.9597   17.5185   21.7471 H   0  0  0  0  0  0  0  0  0  0  0  0
   21.7290   18.8904   20.6650 H   0  0  0  0  0  0  0  0  0  0  0  0
   22.8634   19.3613   22.4523 C   0  0  0  0  0  0  0  0  0  0  0  0
   22.9251   19.0570   23.5054 H   0  0  0  0  0  0  0  0  0  0  0  0
   23.8365   19.1654   21.9836 H   0  0  0  0  0  0  0  0  0  0  0  0
   22.6811   20.4436   22.4192 H   0  0  0  0  0  0  0  0  0  0  0  0
  1  2  1  0  0  0  0
  1  3  2  0  0  0  0
  1  4  1  0  0  0  0
  4  5  1  0  0  0  0
  4  6  1  0  0  0  0
  4  7  1  0  0  0  0
  7  8  1  0  0  0  0
  7  9  2  0  0  0  0
  9 10  1  0  0  0  0
  9 11  1  0  0  0  0
 11 12  1  0  0  0  0
 11 13  1  0  0  0  0
 11 14  1  0  0  0  0
 14 15  1  0  0  0  0
 14 16  1  0  0  0  0
 14 17  1  0  0  0  0
M  END
> <VConfSearch Rank>
747

> <Conf_Id>
35

> <Delta U+W>
-0.102

> <U+W>
-49.529

> <U>
13.666

> <W>
-63.195

> <W(PB)>
-65.299

> <W(SA)>
2.103

> <Valence>
15.226

> <Coulomb>
-1.822

> <VdW>
0.261

> <VdW6>
-4.165

> <VdW12>
4.426

> <Bond>
0.044

> <Angle>
2.229

> <Pdih>
12.953

> <Idih>
0.000

> <Tether>
0.000

$$$$
VeraChem MOL file


 17 16  0  0  0  0  0  0  0  0999 V2000     
   21.2677   16.7562   23.6613 C   0  0  0  0  0  0  0  0  0  0  0  0
   21.4843   15.8483   22.8830 O   0  5  0  0  0  0  0  0  0  0  0  0
   22.0406   17.0883   24.5382 O   0  0  0  0  0  0  0  0  0  0  0  0
   19.9511   17.5114   23.5350 C   0  0  0  0  0  0  0  0  0  0  0  0
   19.7194   17.9616   24.5077 H   0  0  0  0  0  0  0  0  0  0  0  0
   19.1635   16.7783   23.3255 H   0  0  0  0  0  0  0  0  0  0  0  0
   19.9875   18.5629   22.4421 C   0  0  0  0  0  0  0  0  0  0  0  0
   20.0566   18.1651   21.4311 H   0  0  0  0  0  0  0  0  0  0  0  0
   19.9456   19.8812   22.6721 C   0  0  0  0  0  0  0  0  0  0  0  0
   19.8809   20.2423   23.6980 H   0  0  0  0  0  0  0  0  0  0  0  0
   19.9818   20.9859   21.6296 C   0  0  0  0  0  0  0  0  0  0  0  0
   19.0846   21.6100   21.7397 H   0  0  0  0  0  0  0  0  0  0  0  0
   20.8307   21.6495   21.8429 H   0  0  0  0  0  0  0  0  0  0  0  0
   20.0796   20.4992   20.1668 C   0  0  0  0  0  0  0  0  0  0  0  0
   19.2165   19.8751   19.9007 H   0  0  0  0  0  0  0  0  0  0  0  0
   20.1018   21.3534   19.4777 H   0  0  0  0  0  0  0  0  0  0  0  0
   20.9949   19.9143   20.0067 H   0  0  0  0  0  0  0  0  0  0  0  0
  1  2  1  0  0  0  0
  1  3  2  0  0  0  0
  1  4  1  0  0  0  0
  4  5  1  0  0  0  0
  4  6  1  0  0  0  0
  4  7  1  0  0  0  0
  7  8  1  0  0  0  0
  7  9  2  0  0  0  0
  9 10  1  0  0  0  0
  9 11  1  0  0  0  0
 11 12  1  0  0  0  0
 11 13  1  0  0  0  0
 11 14  1  0  0  0  0
 14 15  1  0  0  0  0
 14 16  1  0  0  0  0
 14 17  1  0  0  0  0
M  END
> <VConfSearch Rank>
748

> <Conf_Id>
19

> <Delta U+W>
-0.496

> <U+W>
-49.923

> <U>
13.863

> <W>
-63.786

> <W(PB)>
-65.856

> <W(SA)>
2.070

> <Valence>
14.117

> <Coulomb>
-1.228

> <VdW>
0.974

> <VdW6>
-4.885

> <VdW12>
5.859

> <Bond>
0.094

> <Angle>
2.818

> <Pdih>
11.205

> <Idih>
0.000

> <Tether>
0.000

$$$$
VeraChem MOL file


 17 16  0  0  0  0  0  0  0  0999 V2000     
   20.6826   17.4777   19.7980 C   0  0  0  0  0  0  0  0  0  0  0  0
   21.8942   17.3842   19.8088 O   0  5  0  0  0  0  0  0  0  0  0  0
   19.9380   16.5391   19.5942 O   0  0  0  0  0  0  0  0  0  0  0  0
   20.0615   18.8468   20.0424 C   0  0  0  0  0  0  0  0  0  0  0  0
   19.2330   18.9693   19.3353 H   0  0  0  0  0  0  0  0  0  0  0  0
   20.8085   19.6112   19.7971 H   0  0  0  0  0  0  0  0  0  0  0  0
   19.5612   19.0121   21.4647 C   0  0  0  0  0  0  0  0  0  0  0  0
   18.7090   18.3886   21.7334 H   0  0  0  0  0  0  0  0  0  0  0  0
   20.1021   19.8449   22.3593 C   0  0  0  0  0  0  0  0  0  0  0  0
   20.9575   20.4643   22.0916 H   0  0  0  0  0  0  0  0  0  0  0  0
   19.6035   20.0061   23.7780 C   0  0  0  0  0  0  0  0  0  0  0  0
   19.4941   21.0733   24.0137 H   0  0  0  0  0  0  0  0  0  0  0  0
   18.6079   19.5548   23.8892 H   0  0  0  0  0  0  0  0  0  0  0  0
   20.5735   19.3547   24.7828 C   0  0  0  0  0  0  0  0  0  0  0  0
   21.5688   19.8141   24.7205 H   0  0  0  0  0  0  0  0  0  0  0  0
   20.2067   19.4742   25.8105 H   0  0  0  0  0  0  0  0  0  0  0  0
   20.6797   18.2805   24.5815 H   0  0  0  0  0  0  0  0  0  0  0  0
  1  2  1  0  0  0  0
  1  3  2  0  0  0  0
  1  4  1  0  0  0  0
  4  5  1  0  0  0  0
  4  6  1  0  0  0  0
  4  7  1  0  0  0  0
  7  8  1  0  0  0  0
  7  9  2  0  0  0  0
  9 10  1  0  0  0  0
  9 11  1  0  0  0  0
 11 12  1  0  0  0  0
 11 13  1  0  0  0  0
 11 14  1  0  0  0  0
 14 15  1  0  0  0  0
 14 16  1  0  0  0  0
 14 17  1  0  0  0  0
M  END
> <VConfSearch Rank>
749

> <Conf_Id>
7

> <Delta U+W>
-0.041

> <U+W>
-49.468

> <U>
14.121

> <W>
-63.589

> <W(PB)>
-65.660

> <W(SA)>
2.071

> <Valence>
15.230

> <Coulomb>
-1.333

> <VdW>
0.224

> <VdW6>
-4.212

> <VdW12>
4.436

> <Bond>
0.044

> <Angle>
2.230

> <Pdih>
12.956

> <Idih>
0.000

> <Tether>
0.000

$$$$
VeraChem MOL file


 17 16  0  0  0  0  0  0  0  0999 V2000     
   20.8871   18.4336   24.7860 C   0  0  0  0  0  0  0  0  0  0  0  0
   20.1821   17.4533   24.9238 O   0  5  0  0  0  0  0  0  0  0  0  0
   20.9247   19.3507   25.5826 O   0  0  0  0  0  0  0  0  0  0  0  0
   21.7942   18.5041   23.5614 C   0  0  0  0  0  0  0  0  0  0  0  0
   22.0914   17.4808   23.3037 H   0  0  0  0  0  0  0  0  0  0  0  0
   22.7154   19.0205   23.8552 H   0  0  0  0  0  0  0  0  0  0  0  0
   21.1956   19.1846   22.3385 C   0  0  0  0  0  0  0  0  0  0  0  0
   21.8597   19.2241   21.4760 H   0  0  0  0  0  0  0  0  0  0  0  0
   19.9680   19.7105   22.2529 C   0  0  0  0  0  0  0  0  0  0  0  0
   19.2838   19.6834   23.1002 H   0  0  0  0  0  0  0  0  0  0  0  0
   19.4205   20.3788   21.0113 C   0  0  0  0  0  0  0  0  0  0  0  0
   18.9633   21.3409   21.2794 H   0  0  0  0  0  0  0  0  0  0  0  0
   20.2315   20.6015   20.3043 H   0  0  0  0  0  0  0  0  0  0  0  0
   18.3715   19.4867   20.3193 C   0  0  0  0  0  0  0  0  0  0  0  0
   17.9767   19.9770   19.4200 H   0  0  0  0  0  0  0  0  0  0  0  0
   18.8130   18.5274   20.0186 H   0  0  0  0  0  0  0  0  0  0  0  0
   17.5290   19.2792   20.9921 H   0  0  0  0  0  0  0  0  0  0  0  0
  1  2  1  0  0  0  0
  1  3  2  0  0  0  0
  1  4  1  0  0  0  0
  4  5  1  0  0  0  0
  4  6  1  0  0  0  0
  4  7  1  0  0  0  0
  7  8  1  0  0  0  0
  7  9  2  0  0  0  0
  9 10  1  0  0  0  0
  9 11  1  0  0  0  0
 11 12  1  0  0  0  0
 11 13  1  0  0  0  0
 11 14  1  0  0  0  0
 14 15  1  0  0  0  0
 14 16  1  0  0  0  0
 14 17  1  0  0  0  0
M  END
> <VConfSearch Rank>
750

> <Conf_Id>
39

> <Delta U+W>
-0.422

> <U+W>
-49.849

> <U>
14.465

> <W>
-64.314

> <W(PB)>
-66.406

> <W(SA)>
2.093

> <Valence>
14.072

> <Coulomb>
-0.199

> <VdW>
0.592

> <VdW6>
-5.019

> <VdW12>
5.611

> <Bond>
0.085

> <Angle>
2.748

> <Pdih>
11.238

> <Idih>
0.001

> <Tether>
0.000

$$$$
VeraChem MOL file


 17 16  0  0  0  0  0  0  0  0999 V2000     
   18.8191   22.1108   22.6560 C   0  0  0  0  0  0  0  0  0  0  0  0
   18.0740   22.1919   23.6126 O   0  5  0  0  0  0  0  0  0  0  0  0
   18.6134   22.6665   21.5950 O   0  0  0  0  0  0  0  0  0  0  0  0
   20.0815   21.2708   22.7984 C   0  0  0  0  0  0  0  0  0  0  0  0
   20.5008   21.4624   23.7929 H   0  0  0  0  0  0  0  0  0  0  0  0
   20.8158   21.6281   22.0664 H   0  0  0  0  0  0  0  0  0  0  0  0
   19.8154   19.7879   22.6222 C   0  0  0  0  0  0  0  0  0  0  0  0
   19.2201   19.3256   23.4090 H   0  0  0  0  0  0  0  0  0  0  0  0
   20.2580   19.0628   21.5905 C   0  0  0  0  0  0  0  0  0  0  0  0
   20.8507   19.5264   20.8026 H   0  0  0  0  0  0  0  0  0  0  0  0
   19.9885   17.5851   21.4145 C   0  0  0  0  0  0  0  0  0  0  0  0
   19.1881   17.2569   22.0920 H   0  0  0  0  0  0  0  0  0  0  0  0
   19.6354   17.3918   20.3925 H   0  0  0  0  0  0  0  0  0  0  0  0
   21.2582   16.7545   21.6851 C   0  0  0  0  0  0  0  0  0  0  0  0
   21.6157   16.9120   22.7112 H   0  0  0  0  0  0  0  0  0  0  0  0
   21.0566   15.6832   21.5553 H   0  0  0  0  0  0  0  0  0  0  0  0
   22.0645   17.0355   20.9950 H   0  0  0  0  0  0  0  0  0  0  0  0
  1  2  1  0  0  0  0
  1  3  2  0  0  0  0
  1  4  1  0  0  0  0
  4  5  1  0  0  0  0
  4  6  1  0  0  0  0
  4  7  1  0  0  0  0
  7  8  1  0  0  0  0
  7  9  2  0  0  0  0
  9 10  1  0  0  0  0
  9 11  1  0  0  0  0
 11 12  1  0  0  0  0
 11 13  1  0  0  0  0
 11 14  1  0  0  0  0
 14 15  1  0  0  0  0
 14 16  1  0  0  0  0
 14 17  1  0  0  0  0
M  END
> <VConfSearch Rank>
751

> <Conf_Id>
38

> <Delta U+W>
0.000

> <U+W>
-49.427

> <U>
13.666

> <W>
-63.093

> <W(PB)>
-65.225

> <W(SA)>
2.132

> <Valence>
15.226

> <Coulomb>
-1.822

> <VdW>
0.261

> <VdW6>
-4.165

> <VdW12>
4.426

> <Bond>
0.044

> <Angle>
2.229

> <Pdih>
12.953

> <Idih>
0.000

> <Tether>
0.000

$$$$
VeraChem MOL file


 17 16  0  0  0  0  0  0  0  0999 V2000     
   17.2889   20.7480   22.1471 C   0  0  0  0  0  0  0  0  0  0  0  0
   17.4640   21.9213   22.4107 O   0  5  0  0  0  0  0  0  0  0  0  0
   16.3397   20.1035   22.5480 O   0  0  0  0  0  0  0  0  0  0  0  0
   18.3105   20.0464   21.2617 C   0  0  0  0  0  0  0  0  0  0  0  0
   18.8244   20.8071   20.6618 H   0  0  0  0  0  0  0  0  0  0  0  0
   17.7628   19.4033   20.5632 H   0  0  0  0  0  0  0  0  0  0  0  0
   19.3024   19.2222   22.0601 C   0  0  0  0  0  0  0  0  0  0  0  0
   18.8859   18.3464   22.5569 H   0  0  0  0  0  0  0  0  0  0  0  0
   20.6014   19.5145   22.1750 C   0  0  0  0  0  0  0  0  0  0  0  0
   21.0166   20.3922   21.6807 H   0  0  0  0  0  0  0  0  0  0  0  0
   21.5882   18.6936   22.9748 C   0  0  0  0  0  0  0  0  0  0  0  0
   22.1815   19.3540   23.6217 H   0  0  0  0  0  0  0  0  0  0  0  0
   21.0591   17.9952   23.6378 H   0  0  0  0  0  0  0  0  0  0  0  0
   22.5302   17.9017   22.0471 C   0  0  0  0  0  0  0  0  0  0  0  0
   23.1012   18.5787   21.3983 H   0  0  0  0  0  0  0  0  0  0  0  0
   23.2443   17.3086   22.6331 H   0  0  0  0  0  0  0  0  0  0  0  0
   21.9605   17.2146   21.4076 H   0  0  0  0  0  0  0  0  0  0  0  0
  1  2  1  0  0  0  0
  1  3  2  0  0  0  0
  1  4  1  0  0  0  0
  4  5  1  0  0  0  0
  4  6  1  0  0  0  0
  4  7  1  0  0  0  0
  7  8  1  0  0  0  0
  7  9  2  0  0  0  0
  9 10  1  0  0  0  0
  9 11  1  0  0  0  0
 11 12  1  0  0  0  0
 11 13  1  0  0  0  0
 11 14  1  0  0  0  0
 14 15  1  0  0  0  0
 14 16  1  0  0  0  0
 14 17  1  0  0  0  0
M  END
> <VConfSearch Rank>
752

> <Conf_Id>
35

> <Delta U+W>
-0.102

> <U+W>
-49.529

> <U>
13.666

> <W>
-63.195

> <W(PB)>
-65.299

> <W(SA)>
2.103

> <Valence>
15.226

> <Coulomb>
-1.822

> <VdW>
0.261

> <VdW6>
-4.165

> <VdW12>
4.426

> <Bond>
0.044

> <Angle>
2.229

> <Pdih>
12.953

> <Idih>
0.000

> <Tether>
0.000

$$$$
VeraChem MOL file


 17 16  0  0  0  0  0  0  0  0999 V2000     
   19.7805   19.2746   25.1154 C   0  0  0  0  0  0  0  0  0  0  0  0
   18.8547   20.0267   25.3480 O   0  5  0  0  0  0  0  0  0  0  0  0
   19.9178   18.1922   25.6507 O   0  0  0  0  0  0  0  0  0  0  0  0
   20.8298   19.7186   24.1047 C   0  0  0  0  0  0  0  0  0  0  0  0
   21.7619   19.1825   24.3202 H   0  0  0  0  0  0  0  0  0  0  0  0
   21.0267   20.7838   24.2727 H   0  0  0  0  0  0  0  0  0  0  0  0
   20.3884   19.4906   22.6714 C   0  0  0  0  0  0  0  0  0  0  0  0
   19.5592   20.1166   22.3464 H   0  0  0  0  0  0  0  0  0  0  0  0
   20.9502   18.5947   21.8501 C   0  0  0  0  0  0  0  0  0  0  0  0
   21.7756   17.9826   22.2123 H   0  0  0  0  0  0  0  0  0  0  0  0
   20.5575   18.3124   20.4098 C   0  0  0  0  0  0  0  0  0  0  0  0
   21.4335   18.4645   19.7648 H   0  0  0  0  0  0  0  0  0  0  0  0
   20.3006   17.2489   20.3124 H   0  0  0  0  0  0  0  0  0  0  0  0
   19.3849   19.1638   19.8747 C   0  0  0  0  0  0  0  0  0  0  0  0
   19.6284   20.2339   19.9064 H   0  0  0  0  0  0  0  0  0  0  0  0
   19.1623   18.9005   18.8326 H   0  0  0  0  0  0  0  0  0  0  0  0
   18.4748   18.9961   20.4655 H   0  0  0  0  0  0  0  0  0  0  0  0
  1  2  1  0  0  0  0
  1  3  2  0  0  0  0
  1  4  1  0  0  0  0
  4  5  1  0  0  0  0
  4  6  1  0  0  0  0
  4  7  1  0  0  0  0
  7  8  1  0  0  0  0
  7  9  2  0  0  0  0
  9 10  1  0  0  0  0
  9 11  1  0  0  0  0
 11 12  1  0  0  0  0
 11 13  1  0  0  0  0
 11 14  1  0  0  0  0
 14 15  1  0  0  0  0
 14 16  1  0  0  0  0
 14 17  1  0  0  0  0
M  END
> <VConfSearch Rank>
753

> <Conf_Id>
19

> <Delta U+W>
-0.496

> <U+W>
-49.923

> <U>
13.863

> <W>
-63.786

> <W(PB)>
-65.856

> <W(SA)>
2.070

> <Valence>
14.117

> <Coulomb>
-1.228

> <VdW>
0.974

> <VdW6>
-4.885

> <VdW12>
5.859

> <Bond>
0.094

> <Angle>
2.818

> <Pdih>
11.205

> <Idih>
0.000

> <Tether>
0.000

$$$$
VeraChem MOL file


 17 16  0  0  0  0  0  0  0  0999 V2000     
   19.5357   16.2108   22.5102 C   0  0  0  0  0  0  0  0  0  0  0  0
   20.5758   15.7646   22.9528 O   0  5  0  0  0  0  0  0  0  0  0  0
   18.4412   15.9394   22.9636 O   0  0  0  0  0  0  0  0  0  0  0  0
   19.6042   17.1531   21.3156 C   0  0  0  0  0  0  0  0  0  0  0  0
   18.7965   16.8796   20.6269 H   0  0  0  0  0  0  0  0  0  0  0  0
   20.5494   16.9722   20.7896 H   0  0  0  0  0  0  0  0  0  0  0  0
   19.4755   18.6101   21.7169 C   0  0  0  0  0  0  0  0  0  0  0  0
   18.5004   18.9007   22.1067 H   0  0  0  0  0  0  0  0  0  0  0  0
   20.4636   19.5052   21.6235 C   0  0  0  0  0  0  0  0  0  0  0  0
   21.4401   19.2128   21.2385 H   0  0  0  0  0  0  0  0  0  0  0  0
   20.3341   20.9569   22.0271 C   0  0  0  0  0  0  0  0  0  0  0  0
   20.7287   21.6004   21.2291 H   0  0  0  0  0  0  0  0  0  0  0  0
   19.2770   21.2271   22.1564 H   0  0  0  0  0  0  0  0  0  0  0  0
   21.0958   21.2372   23.3372 C   0  0  0  0  0  0  0  0  0  0  0  0
   22.1645   21.0122   23.2247 H   0  0  0  0  0  0  0  0  0  0  0  0
   20.9981   22.2919   23.6256 H   0  0  0  0  0  0  0  0  0  0  0  0
   20.7013   20.6217   24.1565 H   0  0  0  0  0  0  0  0  0  0  0  0
  1  2  1  0  0  0  0
  1  3  2  0  0  0  0
  1  4  1  0  0  0  0
  4  5  1  0  0  0  0
  4  6  1  0  0  0  0
  4  7  1  0  0  0  0
  7  8  1  0  0  0  0
  7  9  2  0  0  0  0
  9 10  1  0  0  0  0
  9 11  1  0  0  0  0
 11 12  1  0  0  0  0
 11 13  1  0  0  0  0
 11 14  1  0  0  0  0
 14 15  1  0  0  0  0
 14 16  1  0  0  0  0
 14 17  1  0  0  0  0
M  END
> <VConfSearch Rank>
754

> <Conf_Id>
7

> <Delta U+W>
-0.041

> <U+W>
-49.468

> <U>
14.121

> <W>
-63.589

> <W(PB)>
-65.660

> <W(SA)>
2.071

> <Valence>
15.230

> <Coulomb>
-1.333

> <VdW>
0.224

> <VdW6>
-4.212

> <VdW12>
4.436

> <Bond>
0.044

> <Angle>
2.230

> <Pdih>
12.956

> <Idih>
0.000

> <Tether>
0.000

$$$$
VeraChem MOL file


 17 16  0  0  0  0  0  0  0  0999 V2000     
   22.5556   20.4799   21.7320 C   0  0  0  0  0  0  0  0  0  0  0  0
   23.0152   19.7173   20.9049 O   0  5  0  0  0  0  0  0  0  0  0  0
   23.1412   20.8014   22.7473 O   0  0  0  0  0  0  0  0  0  0  0  0
   21.1815   21.0882   21.4683 C   0  0  0  0  0  0  0  0  0  0  0  0
   21.0660   21.2005   20.3839 H   0  0  0  0  0  0  0  0  0  0  0  0
   21.1801   22.1048   21.8785 H   0  0  0  0  0  0  0  0  0  0  0  0
   19.9998   20.3100   22.0293 C   0  0  0  0  0  0  0  0  0  0  0  0
   19.0288   20.7616   21.8299 H   0  0  0  0  0  0  0  0  0  0  0  0
   20.0677   19.1632   22.7158 C   0  0  0  0  0  0  0  0  0  0  0  0
   21.0257   18.6901   22.9280 H   0  0  0  0  0  0  0  0  0  0  0  0
   18.8598   18.4288   23.2541 C   0  0  0  0  0  0  0  0  0  0  0  0
   19.0294   18.1571   24.3048 H   0  0  0  0  0  0  0  0  0  0  0  0
   17.9741   19.0786   23.2356 H   0  0  0  0  0  0  0  0  0  0  0  0
   18.5752   17.1555   22.4338 C   0  0  0  0  0  0  0  0  0  0  0  0
   17.6988   16.6260   22.8296 H   0  0  0  0  0  0  0  0  0  0  0  0
   18.3770   17.4050   21.3831 H   0  0  0  0  0  0  0  0  0  0  0  0
   19.4315   16.4692   22.4665 H   0  0  0  0  0  0  0  0  0  0  0  0
  1  2  1  0  0  0  0
  1  3  2  0  0  0  0
  1  4  1  0  0  0  0
  4  5  1  0  0  0  0
  4  6  1  0  0  0  0
  4  7  1  0  0  0  0
  7  8  1  0  0  0  0
  7  9  2  0  0  0  0
  9 10  1  0  0  0  0
  9 11  1  0  0  0  0
 11 12  1  0  0  0  0
 11 13  1  0  0  0  0
 11 14  1  0  0  0  0
 14 15  1  0  0  0  0
 14 16  1  0  0  0  0
 14 17  1  0  0  0  0
M  END
> <VConfSearch Rank>
755

> <Conf_Id>
39

> <Delta U+W>
-0.422

> <U+W>
-49.849

> <U>
14.465

> <W>
-64.314

> <W(PB)>
-66.406

> <W(SA)>
2.093

> <Valence>
14.072

> <Coulomb>
-0.199

> <VdW>
0.592

> <VdW6>
-5.019

> <VdW12>
5.611

> <Bond>
0.085

> <Angle>
2.748

> <Pdih>
11.238

> <Idih>
0.001

> <Tether>
0.000

$$$$
VeraChem MOL file


 17 16  0  0  0  0  0  0  0  0999 V2000     
   17.2401   18.3636   23.0838 C   0  0  0  0  0  0  0  0  0  0  0  0
   17.1873   17.3343   23.7278 O   0  5  0  0  0  0  0  0  0  0  0  0
   16.4171   18.6747   22.2455 O   0  0  0  0  0  0  0  0  0  0  0  0
   18.3986   19.3166   23.3470 C   0  0  0  0  0  0  0  0  0  0  0  0
   18.5656   19.3497   24.4299 H   0  0  0  0  0  0  0  0  0  0  0  0
   18.0915   20.3233   23.0389 H   0  0  0  0  0  0  0  0  0  0  0  0
   19.6706   18.8949   22.6365 C   0  0  0  0  0  0  0  0  0  0  0  0
   20.1261   17.9760   23.0046 H   0  0  0  0  0  0  0  0  0  0  0  0
   20.2257   19.5705   21.6258 C   0  0  0  0  0  0  0  0  0  0  0  0
   19.7680   20.4877   21.2563 H   0  0  0  0  0  0  0  0  0  0  0  0
   21.4921   19.1465   20.9160 C   0  0  0  0  0  0  0  0  0  0  0  0
   21.7412   18.1054   21.1635 H   0  0  0  0  0  0  0  0  0  0  0  0
   21.3380   19.1838   19.8291 H   0  0  0  0  0  0  0  0  0  0  0  0
   22.6737   20.0587   21.2991 C   0  0  0  0  0  0  0  0  0  0  0  0
   22.8633   20.0178   22.3798 H   0  0  0  0  0  0  0  0  0  0  0  0
   23.5895   19.7465   20.7805 H   0  0  0  0  0  0  0  0  0  0  0  0
   22.4672   21.1021   21.0272 H   0  0  0  0  0  0  0  0  0  0  0  0
  1  2  1  0  0  0  0
  1  3  2  0  0  0  0
  1  4  1  0  0  0  0
  4  5  1  0  0  0  0
  4  6  1  0  0  0  0
  4  7  1  0  0  0  0
  7  8  1  0  0  0  0
  7  9  2  0  0  0  0
  9 10  1  0  0  0  0
  9 11  1  0  0  0  0
 11 12  1  0  0  0  0
 11 13  1  0  0  0  0
 11 14  1  0  0  0  0
 14 15  1  0  0  0  0
 14 16  1  0  0  0  0
 14 17  1  0  0  0  0
M  END
> <VConfSearch Rank>
756

> <Conf_Id>
38

> <Delta U+W>
0.000

> <U+W>
-49.427

> <U>
13.666

> <W>
-63.093

> <W(PB)>
-65.225

> <W(SA)>
2.132

> <Valence>
15.226

> <Coulomb>
-1.822

> <VdW>
0.261

> <VdW6>
-4.165

> <VdW12>
4.426

> <Bond>
0.044

> <Angle>
2.229

> <Pdih>
12.953

> <Idih>
0.000

> <Tether>
0.000

$$$$
VeraChem MOL file


 17 16  0  0  0  0  0  0  0  0999 V2000     
   20.0927   17.1743   24.4787 C   0  0  0  0  0  0  0  0  0  0  0  0
   19.8656   17.7552   25.5217 O   0  5  0  0  0  0  0  0  0  0  0  0
   20.8719   16.2467   24.3821 O   0  0  0  0  0  0  0  0  0  0  0  0
   19.3580   17.6284   23.2243 C   0  0  0  0  0  0  0  0  0  0  0  0
   18.4350   18.1348   23.5316 H   0  0  0  0  0  0  0  0  0  0  0  0
   19.0616   16.7324   22.6668 H   0  0  0  0  0  0  0  0  0  0  0  0
   20.2068   18.5299   22.3482 C   0  0  0  0  0  0  0  0  0  0  0  0
   21.0604   18.0471   21.8734 H   0  0  0  0  0  0  0  0  0  0  0  0
   19.9630   19.8285   22.1477 C   0  0  0  0  0  0  0  0  0  0  0  0
   19.1110   20.3114   22.6254 H   0  0  0  0  0  0  0  0  0  0  0  0
   20.8128   20.7268   21.2769 C   0  0  0  0  0  0  0  0  0  0  0  0
   21.0472   21.6536   21.8179 H   0  0  0  0  0  0  0  0  0  0  0  0
   21.7728   20.2438   21.0480 H   0  0  0  0  0  0  0  0  0  0  0  0
   20.0877   21.0694   19.9609 C   0  0  0  0  0  0  0  0  0  0  0  0
   19.1407   21.5884   20.1591 H   0  0  0  0  0  0  0  0  0  0  0  0
   20.7089   21.7219   19.3336 H   0  0  0  0  0  0  0  0  0  0  0  0
   19.8655   20.1585   19.3896 H   0  0  0  0  0  0  0  0  0  0  0  0
  1  2  1  0  0  0  0
  1  3  2  0  0  0  0
  1  4  1  0  0  0  0
  4  5  1  0  0  0  0
  4  6  1  0  0  0  0
  4  7  1  0  0  0  0
  7  8  1  0  0  0  0
  7  9  2  0  0  0  0
  9 10  1  0  0  0  0
  9 11  1  0  0  0  0
 11 12  1  0  0  0  0
 11 13  1  0  0  0  0
 11 14  1  0  0  0  0
 14 15  1  0  0  0  0
 14 16  1  0  0  0  0
 14 17  1  0  0  0  0
M  END
> <VConfSearch Rank>
757

> <Conf_Id>
35

> <Delta U+W>
-0.102

> <U+W>
-49.529

> <U>
13.666

> <W>
-63.195

> <W(PB)>
-65.299

> <W(SA)>
2.103

> <Valence>
15.226

> <Coulomb>
-1.822

> <VdW>
0.261

> <VdW6>
-4.165

> <VdW12>
4.426

> <Bond>
0.044

> <Angle>
2.229

> <Pdih>
12.953

> <Idih>
0.000

> <Tether>
0.000

$$$$
VeraChem MOL file


 17 16  0  0  0  0  0  0  0  0999 V2000     
   17.5384   17.8955   21.9756 C   0  0  0  0  0  0  0  0  0  0  0  0
   16.9495   17.9960   23.0340 O   0  5  0  0  0  0  0  0  0  0  0  0
   17.0320   18.1420   20.8988 O   0  0  0  0  0  0  0  0  0  0  0  0
   18.9870   17.4258   22.0018 C   0  0  0  0  0  0  0  0  0  0  0  0
   19.2223   16.9851   21.0256 H   0  0  0  0  0  0  0  0  0  0  0  0
   19.0649   16.6222   22.7432 H   0  0  0  0  0  0  0  0  0  0  0  0
   19.9538   18.5440   22.3427 C   0  0  0  0  0  0  0  0  0  0  0  0
   19.8746   18.9180   23.3620 H   0  0  0  0  0  0  0  0  0  0  0  0
   20.8403   19.0544   21.4789 C   0  0  0  0  0  0  0  0  0  0  0  0
   20.8874   18.6574   20.4653 H   0  0  0  0  0  0  0  0  0  0  0  0
   21.8320   20.1730   21.7508 C   0  0  0  0  0  0  0  0  0  0  0  0
   22.8477   19.8057   21.5509 H   0  0  0  0  0  0  0  0  0  0  0  0
   21.6633   20.9824   21.0276 H   0  0  0  0  0  0  0  0  0  0  0  0
   21.7804   20.7571   23.1799 C   0  0  0  0  0  0  0  0  0  0  0  0
   21.9988   19.9849   23.9292 H   0  0  0  0  0  0  0  0  0  0  0  0
   22.5230   21.5572   23.2957 H   0  0  0  0  0  0  0  0  0  0  0  0
   20.7915   21.1824   23.3961 H   0  0  0  0  0  0  0  0  0  0  0  0
  1  2  1  0  0  0  0
  1  3  2  0  0  0  0
  1  4  1  0  0  0  0
  4  5  1  0  0  0  0
  4  6  1  0  0  0  0
  4  7  1  0  0  0  0
  7  8  1  0  0  0  0
  7  9  2  0  0  0  0
  9 10  1  0  0  0  0
  9 11  1  0  0  0  0
 11 12  1  0  0  0  0
 11 13  1  0  0  0  0
 11 14  1  0  0  0  0
 14 15  1  0  0  0  0
 14 16  1  0  0  0  0
 14 17  1  0  0  0  0
M  END
> <VConfSearch Rank>
758

> <Conf_Id>
19

> <Delta U+W>
-0.496

> <U+W>
-49.923

> <U>
13.863

> <W>
-63.786

> <W(PB)>
-65.856

> <W(SA)>
2.070

> <Valence>
14.117

> <Coulomb>
-1.228

> <VdW>
0.974

> <VdW6>
-4.885

> <VdW12>
5.859

> <Bond>
0.094

> <Angle>
2.818

> <Pdih>
11.205

> <Idih>
0.000

> <Tether>
0.000

$$$$
VeraChem MOL file


 17 16  0  0  0  0  0  0  0  0999 V2000     
   18.1577   18.0313   20.3271 C   0  0  0  0  0  0  0  0  0  0  0  0
   17.1166   18.4291   20.8115 O   0  5  0  0  0  0  0  0  0  0  0  0
   18.4278   18.1240   19.1458 O   0  0  0  0  0  0  0  0  0  0  0  0
   19.1764   17.3707   21.2467 C   0  0  0  0  0  0  0  0  0  0  0  0
   19.5818   16.4967   20.7239 H   0  0  0  0  0  0  0  0  0  0  0  0
   18.6483   16.9984   22.1327 H   0  0  0  0  0  0  0  0  0  0  0  0
   20.3004   18.3108   21.6388 C   0  0  0  0  0  0  0  0  0  0  0  0
   20.9674   18.6020   20.8279 H   0  0  0  0  0  0  0  0  0  0  0  0
   20.4910   18.7789   22.8760 C   0  0  0  0  0  0  0  0  0  0  0  0
   19.8208   18.4914   23.6855 H   0  0  0  0  0  0  0  0  0  0  0  0
   21.6107   19.7185   23.2644 C   0  0  0  0  0  0  0  0  0  0  0  0
   22.1103   19.3464   24.1691 H   0  0  0  0  0  0  0  0  0  0  0  0
   22.3739   19.7541   22.4747 H   0  0  0  0  0  0  0  0  0  0  0  0
   21.0757   21.1408   23.5208 C   0  0  0  0  0  0  0  0  0  0  0  0
   20.3377   21.1410   24.3337 H   0  0  0  0  0  0  0  0  0  0  0  0
   21.8923   21.8185   23.8017 H   0  0  0  0  0  0  0  0  0  0  0  0
   20.5928   21.5436   22.6207 H   0  0  0  0  0  0  0  0  0  0  0  0
  1  2  1  0  0  0  0
  1  3  2  0  0  0  0
  1  4  1  0  0  0  0
  4  5  1  0  0  0  0
  4  6  1  0  0  0  0
  4  7  1  0  0  0  0
  7  8  1  0  0  0  0
  7  9  2  0  0  0  0
  9 10  1  0  0  0  0
  9 11  1  0  0  0  0
 11 12  1  0  0  0  0
 11 13  1  0  0  0  0
 11 14  1  0  0  0  0
 14 15  1  0  0  0  0
 14 16  1  0  0  0  0
 14 17  1  0  0  0  0
M  END
> <VConfSearch Rank>
759

> <Conf_Id>
7

> <Delta U+W>
-0.041

> <U+W>
-49.468

> <U>
14.121

> <W>
-63.589

> <W(PB)>
-65.660

> <W(SA)>
2.071

> <Valence>
15.230

> <Coulomb>
-1.333

> <VdW>
0.224

> <VdW6>
-4.212

> <VdW12>
4.436

> <Bond>
0.044

> <Angle>
2.230

> <Pdih>
12.956

> <Idih>
0.000

> <Tether>
0.000

$$$$
VeraChem MOL file


 17 16  0  0  0  0  0  0  0  0999 V2000     
   18.1874   19.3263   24.2285 C   0  0  0  0  0  0  0  0  0  0  0  0
   18.1930   20.5046   24.5261 O   0  5  0  0  0  0  0  0  0  0  0  0
   18.3270   18.4292   25.0365 O   0  0  0  0  0  0  0  0  0  0  0  0
   17.9652   18.9522   22.7662 C   0  0  0  0  0  0  0  0  0  0  0  0
   17.3120   19.7113   22.3204 H   0  0  0  0  0  0  0  0  0  0  0  0
   17.3978   18.0145   22.7421 H   0  0  0  0  0  0  0  0  0  0  0  0
   19.2263   18.8072   21.9262 C   0  0  0  0  0  0  0  0  0  0  0  0
   19.0450   18.5398   20.8859 H   0  0  0  0  0  0  0  0  0  0  0  0
   20.4819   18.9795   22.3560 C   0  0  0  0  0  0  0  0  0  0  0  0
   20.6906   19.2480   23.3909 H   0  0  0  0  0  0  0  0  0  0  0  0
   21.7037   18.8216   21.4784 C   0  0  0  0  0  0  0  0  0  0  0  0
   22.4472   18.1938   21.9879 H   0  0  0  0  0  0  0  0  0  0  0  0
   21.4428   18.3057   20.5441 H   0  0  0  0  0  0  0  0  0  0  0  0
   22.3282   20.1911   21.1473 C   0  0  0  0  0  0  0  0  0  0  0  0
   23.2150   20.0705   20.5116 H   0  0  0  0  0  0  0  0  0  0  0  0
   21.6104   20.8281   20.6139 H   0  0  0  0  0  0  0  0  0  0  0  0
   22.6340   20.7136   22.0633 H   0  0  0  0  0  0  0  0  0  0  0  0
  1  2  1  0  0  0  0
  1  3  2  0  0  0  0
  1  4  1  0  0  0  0
  4  5  1  0  0  0  0
  4  6  1  0  0  0  0
  4  7  1  0  0  0  0
  7  8  1  0  0  0  0
  7  9  2  0  0  0  0
  9 10  1  0  0  0  0
  9 11  1  0  0  0  0
 11 12  1  0  0  0  0
 11 13  1  0  0  0  0
 11 14  1  0  0  0  0
 14 15  1  0  0  0  0
 14 16  1  0  0  0  0
 14 17  1  0  0  0  0
M  END
> <VConfSearch Rank>
760

> <Conf_Id>
39

> <Delta U+W>
-0.422

> <U+W>
-49.849

> <U>
14.465

> <W>
-64.314

> <W(PB)>
-66.406

> <W(SA)>
2.093

> <Valence>
14.072

> <Coulomb>
-0.199

> <VdW>
0.592

> <VdW6>
-5.019

> <VdW12>
5.611

> <Bond>
0.085

> <Angle>
2.748

> <Pdih>
11.238

> <Idih>
0.001

> <Tether>
0.000

$$$$
VeraChem MOL file


 17 16  0  0  0  0  0  0  0  0999 V2000     
   23.1245   18.3193   21.9864 C   0  0  0  0  0  0  0  0  0  0  0  0
   23.8038   18.7772   21.0888 O   0  5  0  0  0  0  0  0  0  0  0  0
   23.1905   17.1637   22.3566 O   0  0  0  0  0  0  0  0  0  0  0  0
   22.1413   19.2473   22.6878 C   0  0  0  0  0  0  0  0  0  0  0  0
   22.6357   20.2156   22.8269 H   0  0  0  0  0  0  0  0  0  0  0  0
   21.9411   18.8429   23.6873 H   0  0  0  0  0  0  0  0  0  0  0  0
   20.8539   19.4274   21.9062 C   0  0  0  0  0  0  0  0  0  0  0  0
   20.9522   19.9708   20.9670 H   0  0  0  0  0  0  0  0  0  0  0  0
   19.6637   18.9667   22.3030 C   0  0  0  0  0  0  0  0  0  0  0  0
   19.5666   18.4207   23.2409 H   0  0  0  0  0  0  0  0  0  0  0  0
   18.3816   19.1439   21.5205 C   0  0  0  0  0  0  0  0  0  0  0  0
   18.6000   19.4643   20.4924 H   0  0  0  0  0  0  0  0  0  0  0  0
   17.8568   18.1819   21.4461 H   0  0  0  0  0  0  0  0  0  0  0  0
   17.4610   20.1807   22.1932 C   0  0  0  0  0  0  0  0  0  0  0  0
   17.9557   21.1590   22.2557 H   0  0  0  0  0  0  0  0  0  0  0  0
   16.5322   20.3045   21.6213 H   0  0  0  0  0  0  0  0  0  0  0  0
   17.1950   19.8664   23.2110 H   0  0  0  0  0  0  0  0  0  0  0  0
  1  2  1  0  0  0  0
  1  3  2  0  0  0  0
  1  4  1  0  0  0  0
  4  5  1  0  0  0  0
  4  6  1  0  0  0  0
  4  7  1  0  0  0  0
  7  8  1  0  0  0  0
  7  9  2  0  0  0  0
  9 10  1  0  0  0  0
  9 11  1  0  0  0  0
 11 12  1  0  0  0  0
 11 13  1  0  0  0  0
 11 14  1  0  0  0  0
 14 15  1  0  0  0  0
 14 16  1  0  0  0  0
 14 17  1  0  0  0  0
M  END
> <VConfSearch Rank>
761

> <Conf_Id>
38

> <Delta U+W>
0.000

> <U+W>
-49.427

> <U>
13.666

> <W>
-63.093

> <W(PB)>
-65.225

> <W(SA)>
2.132

> <Valence>
15.226

> <Coulomb>
-1.822

> <VdW>
0.261

> <VdW6>
-4.165

> <VdW12>
4.426

> <Bond>
0.044

> <Angle>
2.229

> <Pdih>
12.953

> <Idih>
0.000

> <Tether>
0.000

$$$$
VeraChem MOL file


 17 16  0  0  0  0  0  0  0  0999 V2000     
   22.8334   20.6328   22.8826 C   0  0  0  0  0  0  0  0  0  0  0  0
   23.6976   20.2504   22.1185 O   0  5  0  0  0  0  0  0  0  0  0  0
   23.0237   20.8341   24.0659 O   0  0  0  0  0  0  0  0  0  0  0  0
   21.4365   20.8790   22.3280 C   0  0  0  0  0  0  0  0  0  0  0  0
   21.5234   21.0704   21.2517 H   0  0  0  0  0  0  0  0  0  0  0  0
   21.0510   21.7969   22.7868 H   0  0  0  0  0  0  0  0  0  0  0  0
   20.4916   19.7242   22.6003 C   0  0  0  0  0  0  0  0  0  0  0  0
   20.2292   19.5749   23.6472 H   0  0  0  0  0  0  0  0  0  0  0  0
   19.9950   18.9210   21.6545 C   0  0  0  0  0  0  0  0  0  0  0  0
   20.2603   19.0689   20.6082 H   0  0  0  0  0  0  0  0  0  0  0  0
   19.0560   17.7674   21.9283 C   0  0  0  0  0  0  0  0  0  0  0  0
   19.4120   16.8681   21.4077 H   0  0  0  0  0  0  0  0  0  0  0  0
   19.0445   17.5273   23.0004 H   0  0  0  0  0  0  0  0  0  0  0  0
   17.6239   18.0968   21.4640 C   0  0  0  0  0  0  0  0  0  0  0  0
   17.5995   18.3040   20.3861 H   0  0  0  0  0  0  0  0  0  0  0  0
   16.9474   17.2559   21.6646 H   0  0  0  0  0  0  0  0  0  0  0  0
   17.2365   18.9789   21.9907 H   0  0  0  0  0  0  0  0  0  0  0  0
  1  2  1  0  0  0  0
  1  3  2  0  0  0  0
  1  4  1  0  0  0  0
  4  5  1  0  0  0  0
  4  6  1  0  0  0  0
  4  7  1  0  0  0  0
  7  8  1  0  0  0  0
  7  9  2  0  0  0  0
  9 10  1  0  0  0  0
  9 11  1  0  0  0  0
 11 12  1  0  0  0  0
 11 13  1  0  0  0  0
 11 14  1  0  0  0  0
 14 15  1  0  0  0  0
 14 16  1  0  0  0  0
 14 17  1  0  0  0  0
M  END
> <VConfSearch Rank>
762

> <Conf_Id>
35

> <Delta U+W>
-0.102

> <U+W>
-49.529

> <U>
13.666

> <W>
-63.195

> <W(PB)>
-65.299

> <W(SA)>
2.103

> <Valence>
15.226

> <Coulomb>
-1.822

> <VdW>
0.261

> <VdW6>
-4.165

> <VdW12>
4.426

> <Bond>
0.044

> <Angle>
2.229

> <Pdih>
12.953

> <Idih>
0.000

> <Tether>
0.000

$$$$
VeraChem MOL file


 17 16  0  0  0  0  0  0  0  0999 V2000     
   22.8997   19.2806   20.9759 C   0  0  0  0  0  0  0  0  0  0  0  0
   23.0677   18.3506   20.2118 O   0  5  0  0  0  0  0  0  0  0  0  0
   23.1877   20.4306   20.7084 O   0  0  0  0  0  0  0  0  0  0  0  0
   22.3046   18.9853   22.3464 C   0  0  0  0  0  0  0  0  0  0  0  0
   22.6102   19.7845   23.0324 H   0  0  0  0  0  0  0  0  0  0  0  0
   22.7564   18.0570   22.7146 H   0  0  0  0  0  0  0  0  0  0  0  0
   20.7943   18.8489   22.3062 C   0  0  0  0  0  0  0  0  0  0  0  0
   20.4312   17.9751   21.7679 H   0  0  0  0  0  0  0  0  0  0  0  0
   19.9501   19.7200   22.8730 C   0  0  0  0  0  0  0  0  0  0  0  0
   20.3504   20.5856   23.3999 H   0  0  0  0  0  0  0  0  0  0  0  0
   18.4324   19.6473   22.8683 C   0  0  0  0  0  0  0  0  0  0  0  0
   18.0724   19.6400   23.9060 H   0  0  0  0  0  0  0  0  0  0  0  0
   18.0330   20.5690   22.4239 H   0  0  0  0  0  0  0  0  0  0  0  0
   17.8401   18.4317   22.1218 C   0  0  0  0  0  0  0  0  0  0  0  0
   18.1760   17.4894   22.5743 H   0  0  0  0  0  0  0  0  0  0  0  0
   16.7434   18.4519   22.1627 H   0  0  0  0  0  0  0  0  0  0  0  0
   18.1372   18.4356   21.0647 H   0  0  0  0  0  0  0  0  0  0  0  0
  1  2  1  0  0  0  0
  1  3  2  0  0  0  0
  1  4  1  0  0  0  0
  4  5  1  0  0  0  0
  4  6  1  0  0  0  0
  4  7  1  0  0  0  0
  7  8  1  0  0  0  0
  7  9  2  0  0  0  0
  9 10  1  0  0  0  0
  9 11  1  0  0  0  0
 11 12  1  0  0  0  0
 11 13  1  0  0  0  0
 11 14  1  0  0  0  0
 14 15  1  0  0  0  0
 14 16  1  0  0  0  0
 14 17  1  0  0  0  0
M  END
> <VConfSearch Rank>
763

> <Conf_Id>
19

> <Delta U+W>
-0.496

> <U+W>
-49.923

> <U>
13.863

> <W>
-63.786

> <W(PB)>
-65.856

> <W(SA)>
2.070

> <Valence>
14.117

> <Coulomb>
-1.228

> <VdW>
0.974

> <VdW6>
-4.885

> <VdW12>
5.859

> <Bond>
0.094

> <Angle>
2.818

> <Pdih>
11.205

> <Idih>
0.000

> <Tether>
0.000

$$$$
VeraChem MOL file


 17 16  0  0  0  0  0  0  0  0999 V2000     
   22.5014   20.0377   23.6881 C   0  0  0  0  0  0  0  0  0  0  0  0
   23.4100   19.7980   22.9175 O   0  5  0  0  0  0  0  0  0  0  0  0
   22.3744   21.0981   24.2681 O   0  0  0  0  0  0  0  0  0  0  0  0
   21.4707   18.9477   23.9513 C   0  0  0  0  0  0  0  0  0  0  0  0
   21.2553   18.9433   25.0260 H   0  0  0  0  0  0  0  0  0  0  0  0
   21.9263   17.9794   23.7113 H   0  0  0  0  0  0  0  0  0  0  0  0
   20.1909   19.1563   23.1643 C   0  0  0  0  0  0  0  0  0  0  0  0
   19.6001   20.0233   23.4586 H   0  0  0  0  0  0  0  0  0  0  0  0
   19.7834   18.3631   22.1688 C   0  0  0  0  0  0  0  0  0  0  0  0
   20.3771   17.4993   21.8716 H   0  0  0  0  0  0  0  0  0  0  0  0
   18.5083   18.5746   21.3834 C   0  0  0  0  0  0  0  0  0  0  0  0
   17.9514   17.6301   21.3189 H   0  0  0  0  0  0  0  0  0  0  0  0
   17.8543   19.2919   21.8982 H   0  0  0  0  0  0  0  0  0  0  0  0
   18.8123   19.0901   19.9633 C   0  0  0  0  0  0  0  0  0  0  0  0
   19.4338   18.3730   19.4110 H   0  0  0  0  0  0  0  0  0  0  0  0
   17.8836   19.2422   19.3980 H   0  0  0  0  0  0  0  0  0  0  0  0
   19.3482   20.0476   20.0027 H   0  0  0  0  0  0  0  0  0  0  0  0
  1  2  1  0  0  0  0
  1  3  2  0  0  0  0
  1  4  1  0  0  0  0
  4  5  1  0  0  0  0
  4  6  1  0  0  0  0
  4  7  1  0  0  0  0
  7  8  1  0  0  0  0
  7  9  2  0  0  0  0
  9 10  1  0  0  0  0
  9 11  1  0  0  0  0
 11 12  1  0  0  0  0
 11 13  1  0  0  0  0
 11 14  1  0  0  0  0
 14 15  1  0  0  0  0
 14 16  1  0  0  0  0
 14 17  1  0  0  0  0
M  END
> <VConfSearch Rank>
764

> <Conf_Id>
7

> <Delta U+W>
-0.041

> <U+W>
-49.468

> <U>
14.121

> <W>
-63.589

> <W(PB)>
-65.660

> <W(SA)>
2.071

> <Valence>
15.230

> <Coulomb>
-1.333

> <VdW>
0.224

> <VdW6>
-4.212

> <VdW12>
4.436

> <Bond>
0.044

> <Angle>
2.230

> <Pdih>
12.956

> <Idih>
0.000

> <Tether>
0.000

$$$$
VeraChem MOL file


 17 16  0  0  0  0  0  0  0  0999 V2000     
   22.0091   19.1991   20.2438 C   0  0  0  0  0  0  0  0  0  0  0  0
   21.8515   20.2952   19.7430 O   0  5  0  0  0  0  0  0  0  0  0  0
   21.9644   18.1606   19.6141 O   0  0  0  0  0  0  0  0  0  0  0  0
   22.3065   19.1244   21.7383 C   0  0  0  0  0  0  0  0  0  0  0  0
   22.8701   20.0232   22.0145 H   0  0  0  0  0  0  0  0  0  0  0  0
   22.9859   18.2801   21.9036 H   0  0  0  0  0  0  0  0  0  0  0  0
   21.0910   18.9862   22.6441 C   0  0  0  0  0  0  0  0  0  0  0  0
   21.3258   18.9345   23.7065 H   0  0  0  0  0  0  0  0  0  0  0  0
   19.8150   18.9287   22.2449 C   0  0  0  0  0  0  0  0  0  0  0  0
   19.5529   18.9792   21.1887 H   0  0  0  0  0  0  0  0  0  0  0  0
   18.6408   18.7892   23.1882 C   0  0  0  0  0  0  0  0  0  0  0  0
   17.9701   17.9965   22.8301 H   0  0  0  0  0  0  0  0  0  0  0  0
   18.9831   18.4851   24.1869 H   0  0  0  0  0  0  0  0  0  0  0  0
   17.8589   20.1127   23.2982 C   0  0  0  0  0  0  0  0  0  0  0  0
   17.0074   20.0053   23.9827 H   0  0  0  0  0  0  0  0  0  0  0  0
   18.5035   20.9157   23.6793 H   0  0  0  0  0  0  0  0  0  0  0  0
   17.4716   20.4213   22.3183 H   0  0  0  0  0  0  0  0  0  0  0  0
  1  2  1  0  0  0  0
  1  3  2  0  0  0  0
  1  4  1  0  0  0  0
  4  5  1  0  0  0  0
  4  6  1  0  0  0  0
  4  7  1  0  0  0  0
  7  8  1  0  0  0  0
  7  9  2  0  0  0  0
  9 10  1  0  0  0  0
  9 11  1  0  0  0  0
 11 12  1  0  0  0  0
 11 13  1  0  0  0  0
 11 14  1  0  0  0  0
 14 15  1  0  0  0  0
 14 16  1  0  0  0  0
 14 17  1  0  0  0  0
M  END
> <VConfSearch Rank>
765

> <Conf_Id>
39

> <Delta U+W>
-0.422

> <U+W>
-49.849

> <U>
14.465

> <W>
-64.314

> <W(PB)>
-66.406

> <W(SA)>
2.093

> <Valence>
14.072

> <Coulomb>
-0.199

> <VdW>
0.592

> <VdW6>
-5.019

> <VdW12>
5.611

> <Bond>
0.085

> <Angle>
2.748

> <Pdih>
11.238

> <Idih>
0.001

> <Tether>
0.000

$$$$
VeraChem MOL file


 17 16  0  0  0  0  0  0  0  0999 V2000     
   20.3474   20.9221   19.4141 C   0  0  0  0  0  0  0  0  0  0  0  0
   21.4238   20.8894   18.8509 O   0  5  0  0  0  0  0  0  0  0  0  0
   19.6638   21.9232   19.4994 O   0  0  0  0  0  0  0  0  0  0  0  0
   19.8262   19.6360   20.0418 C   0  0  0  0  0  0  0  0  0  0  0  0
   20.0488   18.8129   19.3530 H   0  0  0  0  0  0  0  0  0  0  0  0
   18.7342   19.7074   20.1140 H   0  0  0  0  0  0  0  0  0  0  0  0
   20.4439   19.3604   21.3994 C   0  0  0  0  0  0  0  0  0  0  0  0
   21.5063   19.1188   21.3866 H   0  0  0  0  0  0  0  0  0  0  0  0
   19.7709   19.4026   22.5534 C   0  0  0  0  0  0  0  0  0  0  0  0
   18.7093   19.6472   22.5658 H   0  0  0  0  0  0  0  0  0  0  0  0
   20.3894   19.1312   23.9066 C   0  0  0  0  0  0  0  0  0  0  0  0
   21.4859   19.1501   23.8388 H   0  0  0  0  0  0  0  0  0  0  0  0
   20.1035   19.9243   24.6106 H   0  0  0  0  0  0  0  0  0  0  0  0
   19.9360   17.7658   24.4590 C   0  0  0  0  0  0  0  0  0  0  0  0
   20.2341   16.9534   23.7832 H   0  0  0  0  0  0  0  0  0  0  0  0
   20.3875   17.5748   25.4412 H   0  0  0  0  0  0  0  0  0  0  0  0
   18.8446   17.7324   24.5735 H   0  0  0  0  0  0  0  0  0  0  0  0
  1  2  1  0  0  0  0
  1  3  2  0  0  0  0
  1  4  1  0  0  0  0
  4  5  1  0  0  0  0
  4  6  1  0  0  0  0
  4  7  1  0  0  0  0
  7  8  1  0  0  0  0
  7  9  2  0  0  0  0
  9 10  1  0  0  0  0
  9 11  1  0  0  0  0
 11 12  1  0  0  0  0
 11 13  1  0  0  0  0
 11 14  1  0  0  0  0
 14 15  1  0  0  0  0
 14 16  1  0  0  0  0
 14 17  1  0  0  0  0
M  END
> <VConfSearch Rank>
766

> <Conf_Id>
38

> <Delta U+W>
0.000

> <U+W>
-49.427

> <U>
13.666

> <W>
-63.093

> <W(PB)>
-65.225

> <W(SA)>
2.132

> <Valence>
15.226

> <Coulomb>
-1.822

> <VdW>
0.261

> <VdW6>
-4.165

> <VdW12>
4.426

> <Bond>
0.044

> <Angle>
2.229

> <Pdih>
12.953

> <Idih>
0.000

> <Tether>
0.000

$$$$
VeraChem MOL file


 17 16  0  0  0  0  0  0  0  0999 V2000     
   22.8224   17.9759   23.0323 C   0  0  0  0  0  0  0  0  0  0  0  0
   23.6157   18.0224   22.1129 O   0  5  0  0  0  0  0  0  0  0  0  0
   22.7470   17.0436   23.8084 O   0  0  0  0  0  0  0  0  0  0  0  0
   21.8737   19.1512   23.2278 C   0  0  0  0  0  0  0  0  0  0  0  0
   22.3254   20.0373   22.7659 H   0  0  0  0  0  0  0  0  0  0  0  0
   21.8044   19.3504   24.3034 H   0  0  0  0  0  0  0  0  0  0  0  0
   20.4936   18.8847   22.6576 C   0  0  0  0  0  0  0  0  0  0  0  0
   19.9163   18.1192   23.1753 H   0  0  0  0  0  0  0  0  0  0  0  0
   19.9841   19.5181   21.5967 C   0  0  0  0  0  0  0  0  0  0  0  0
   20.5631   20.2812   21.0775 H   0  0  0  0  0  0  0  0  0  0  0  0
   18.6093   19.2483   21.0271 C   0  0  0  0  0  0  0  0  0  0  0  0
   18.6779   19.1189   19.9385 H   0  0  0  0  0  0  0  0  0  0  0  0
   18.2031   18.3107   21.4310 H   0  0  0  0  0  0  0  0  0  0  0  0
   17.6407   20.4035   21.3471 C   0  0  0  0  0  0  0  0  0  0  0  0
   18.0036   21.3482   20.9213 H   0  0  0  0  0  0  0  0  0  0  0  0
   16.6451   20.2024   20.9307 H   0  0  0  0  0  0  0  0  0  0  0  0
   17.5360   20.5352   22.4321 H   0  0  0  0  0  0  0  0  0  0  0  0
  1  2  1  0  0  0  0
  1  3  2  0  0  0  0
  1  4  1  0  0  0  0
  4  5  1  0  0  0  0
  4  6  1  0  0  0  0
  4  7  1  0  0  0  0
  7  8  1  0  0  0  0
  7  9  2  0  0  0  0
  9 10  1  0  0  0  0
  9 11  1  0  0  0  0
 11 12  1  0  0  0  0
 11 13  1  0  0  0  0
 11 14  1  0  0  0  0
 14 15  1  0  0  0  0
 14 16  1  0  0  0  0
 14 17  1  0  0  0  0
M  END
> <VConfSearch Rank>
767

> <Conf_Id>
35

> <Delta U+W>
-0.102

> <U+W>
-49.529

> <U>
13.666

> <W>
-63.195

> <W(PB)>
-65.299

> <W(SA)>
2.103

> <Valence>
15.226

> <Coulomb>
-1.822

> <VdW>
0.261

> <VdW6>
-4.165

> <VdW12>
4.426

> <Bond>
0.044

> <Angle>
2.229

> <Pdih>
12.953

> <Idih>
0.000

> <Tether>
0.000

$$$$
VeraChem MOL file


 17 16  0  0  0  0  0  0  0  0999 V2000     
   21.4076   20.3876   19.8282 C   0  0  0  0  0  0  0  0  0  0  0  0
   21.4752   19.5883   18.9152 O   0  5  0  0  0  0  0  0  0  0  0  0
   21.0064   21.5270   19.6955 O   0  0  0  0  0  0  0  0  0  0  0  0
   21.8598   19.9376   21.2112 C   0  0  0  0  0  0  0  0  0  0  0  0
   22.1448   20.8275   21.7852 H   0  0  0  0  0  0  0  0  0  0  0  0
   22.7655   19.3329   21.0870 H   0  0  0  0  0  0  0  0  0  0  0  0
   20.7954   19.1376   21.9382 C   0  0  0  0  0  0  0  0  0  0  0  0
   20.5811   18.1640   21.5008 H   0  0  0  0  0  0  0  0  0  0  0  0
   20.1502   19.5702   23.0287 C   0  0  0  0  0  0  0  0  0  0  0  0
   20.3885   20.5525   23.4354 H   0  0  0  0  0  0  0  0  0  0  0  0
   19.0748   18.8258   23.8020 C   0  0  0  0  0  0  0  0  0  0  0  0
   19.3962   18.7187   24.8468 H   0  0  0  0  0  0  0  0  0  0  0  0
   18.1671   19.4436   23.8344 H   0  0  0  0  0  0  0  0  0  0  0  0
   18.7146   17.4324   23.2411 C   0  0  0  0  0  0  0  0  0  0  0  0
   19.5889   16.7683   23.2443 H   0  0  0  0  0  0  0  0  0  0  0  0
   17.9330   16.9620   23.8517 H   0  0  0  0  0  0  0  0  0  0  0  0
   18.3379   17.5072   22.2125 H   0  0  0  0  0  0  0  0  0  0  0  0
  1  2  1  0  0  0  0
  1  3  2  0  0  0  0
  1  4  1  0  0  0  0
  4  5  1  0  0  0  0
  4  6  1  0  0  0  0
  4  7  1  0  0  0  0
  7  8  1  0  0  0  0
  7  9  2  0  0  0  0
  9 10  1  0  0  0  0
  9 11  1  0  0  0  0
 11 12  1  0  0  0  0
 11 13  1  0  0  0  0
 11 14  1  0  0  0  0
 14 15  1  0  0  0  0
 14 16  1  0  0  0  0
 14 17  1  0  0  0  0
M  END
> <VConfSearch Rank>
768

> <Conf_Id>
19

> <Delta U+W>
-0.496

> <U+W>
-49.923

> <U>
13.863

> <W>
-63.786

> <W(PB)>
-65.856

> <W(SA)>
2.070

> <Valence>
14.117

> <Coulomb>
-1.228

> <VdW>
0.974

> <VdW6>
-4.885

> <VdW12>
5.859

> <Bond>
0.094

> <Angle>
2.818

> <Pdih>
11.205

> <Idih>
0.000

> <Tether>
0.000

$$$$
VeraChem MOL file


 17 16  0  0  0  0  0  0  0  0999 V2000     
   21.2398   16.3515   22.5096 C   0  0  0  0  0  0  0  0  0  0  0  0
   22.3837   16.5666   22.8589 O   0  5  0  0  0  0  0  0  0  0  0  0
   20.5159   15.5353   23.0450 O   0  0  0  0  0  0  0  0  0  0  0  0
   20.6846   17.1389   21.3299 C   0  0  0  0  0  0  0  0  0  0  0  0
   20.1120   16.4446   20.7041 H   0  0  0  0  0  0  0  0  0  0  0  0
   21.5286   17.4937   20.7263 H   0  0  0  0  0  0  0  0  0  0  0  0
   19.8041   18.2946   21.7658 C   0  0  0  0  0  0  0  0  0  0  0  0
   18.8641   18.0107   22.2380 H   0  0  0  0  0  0  0  0  0  0  0  0
   20.1231   19.5829   21.6085 C   0  0  0  0  0  0  0  0  0  0  0  0
   21.0655   19.8662   21.1409 H   0  0  0  0  0  0  0  0  0  0  0  0
   19.2451   20.7337   22.0465 C   0  0  0  0  0  0  0  0  0  0  0  0
   19.1560   21.4638   21.2307 H   0  0  0  0  0  0  0  0  0  0  0  0
   18.2282   20.3797   22.2654 H   0  0  0  0  0  0  0  0  0  0  0  0
   19.8234   21.4268   23.2955 C   0  0  0  0  0  0  0  0  0  0  0  0
   20.8263   21.8254   23.0932 H   0  0  0  0  0  0  0  0  0  0  0  0
   19.1822   22.2608   23.6093 H   0  0  0  0  0  0  0  0  0  0  0  0
   19.8988   20.7209   24.1332 H   0  0  0  0  0  0  0  0  0  0  0  0
  1  2  1  0  0  0  0
  1  3  2  0  0  0  0
  1  4  1  0  0  0  0
  4  5  1  0  0  0  0
  4  6  1  0  0  0  0
  4  7  1  0  0  0  0
  7  8  1  0  0  0  0
  7  9  2  0  0  0  0
  9 10  1  0  0  0  0
  9 11  1  0  0  0  0
 11 12  1  0  0  0  0
 11 13  1  0  0  0  0
 11 14  1  0  0  0  0
 14 15  1  0  0  0  0
 14 16  1  0  0  0  0
 14 17  1  0  0  0  0
M  END
> <VConfSearch Rank>
769

> <Conf_Id>
7

> <Delta U+W>
-0.041

> <U+W>
-49.468

> <U>
14.121

> <W>
-63.589

> <W(PB)>
-65.660

> <W(SA)>
2.071

> <Valence>
15.230

> <Coulomb>
-1.333

> <VdW>
0.224

> <VdW6>
-4.212

> <VdW12>
4.436

> <Bond>
0.044

> <Angle>
2.230

> <Pdih>
12.956

> <Idih>
0.000

> <Tether>
0.000

$$$$
VeraChem MOL file


 17 16  0  0  0  0  0  0  0  0999 V2000     
   17.7583   18.8119   20.9282 C   0  0  0  0  0  0  0  0  0  0  0  0
   16.9502   19.0366   21.8077 O   0  5  0  0  0  0  0  0  0  0  0  0
   17.7855   17.7782   20.2897 O   0  0  0  0  0  0  0  0  0  0  0  0
   18.7757   19.8968   20.5883 C   0  0  0  0  0  0  0  0  0  0  0  0
   18.3026   20.8694   20.7671 H   0  0  0  0  0  0  0  0  0  0  0  0
   18.9694   19.8495   19.5104 H   0  0  0  0  0  0  0  0  0  0  0  0
   20.0931   19.8232   21.3472 C   0  0  0  0  0  0  0  0  0  0  0  0
   20.8047   20.6065   21.0894 H   0  0  0  0  0  0  0  0  0  0  0  0
   20.4211   18.9078   22.2668 C   0  0  0  0  0  0  0  0  0  0  0  0
   19.7277   18.1146   22.5436 H   0  0  0  0  0  0  0  0  0  0  0  0
   21.7478   18.8783   22.9927 C   0  0  0  0  0  0  0  0  0  0  0  0
   22.1608   17.8608   22.9682 H   0  0  0  0  0  0  0  0  0  0  0  0
   22.4774   19.5267   22.4883 H   0  0  0  0  0  0  0  0  0  0  0  0
   21.5881   19.3327   24.4566 C   0  0  0  0  0  0  0  0  0  0  0  0
   22.5534   19.3080   24.9788 H   0  0  0  0  0  0  0  0  0  0  0  0
   21.1999   20.3586   24.5061 H   0  0  0  0  0  0  0  0  0  0  0  0
   20.8918   18.6774   24.9962 H   0  0  0  0  0  0  0  0  0  0  0  0
  1  2  1  0  0  0  0
  1  3  2  0  0  0  0
  1  4  1  0  0  0  0
  4  5  1  0  0  0  0
  4  6  1  0  0  0  0
  4  7  1  0  0  0  0
  7  8  1  0  0  0  0
  7  9  2  0  0  0  0
  9 10  1  0  0  0  0
  9 11  1  0  0  0  0
 11 12  1  0  0  0  0
 11 13  1  0  0  0  0
 11 14  1  0  0  0  0
 14 15  1  0  0  0  0
 14 16  1  0  0  0  0
 14 17  1  0  0  0  0
M  END
> <VConfSearch Rank>
770

> <Conf_Id>
39

> <Delta U+W>
-0.422

> <U+W>
-49.849

> <U>
14.465

> <W>
-64.314

> <W(PB)>
-66.406

> <W(SA)>
2.093

> <Valence>
14.072

> <Coulomb>
-0.199

> <VdW>
0.592

> <VdW6>
-5.019

> <VdW12>
5.611

> <Bond>
0.085

> <Angle>
2.748

> <Pdih>
11.238

> <Idih>
0.001

> <Tether>
0.000

$$$$
VeraChem MOL file


 17 16  0  0  0  0  0  0  0  0999 V2000     
   19.3632   22.3488   22.0425 C   0  0  0  0  0  0  0  0  0  0  0  0
   20.2607   23.1196   21.7645 O   0  5  0  0  0  0  0  0  0  0  0  0
   18.5253   22.5720   22.8940 O   0  0  0  0  0  0  0  0  0  0  0  0
   19.2827   21.0345   21.2772 C   0  0  0  0  0  0  0  0  0  0  0  0
   19.5045   21.2457   20.2247 H   0  0  0  0  0  0  0  0  0  0  0  0
   18.2476   20.6749   21.3209 H   0  0  0  0  0  0  0  0  0  0  0  0
   20.2441   19.9906   21.8127 C   0  0  0  0  0  0  0  0  0  0  0  0
   21.3004   20.2077   21.6569 H   0  0  0  0  0  0  0  0  0  0  0  0
   19.8658   18.8723   22.4391 C   0  0  0  0  0  0  0  0  0  0  0  0
   18.8095   18.6573   22.5973 H   0  0  0  0  0  0  0  0  0  0  0  0
   20.8260   17.8343   22.9758 C   0  0  0  0  0  0  0  0  0  0  0  0
   21.8476   18.2372   23.0105 H   0  0  0  0  0  0  0  0  0  0  0  0
   20.5537   17.5762   24.0082 H   0  0  0  0  0  0  0  0  0  0  0  0
   20.8088   16.5619   22.1065 C   0  0  0  0  0  0  0  0  0  0  0  0
   21.1031   16.7912   21.0739 H   0  0  0  0  0  0  0  0  0  0  0  0
   21.5069   15.8123   22.5012 H   0  0  0  0  0  0  0  0  0  0  0  0
   19.8059   16.1156   22.0852 H   0  0  0  0  0  0  0  0  0  0  0  0
  1  2  1  0  0  0  0
  1  3  2  0  0  0  0
  1  4  1  0  0  0  0
  4  5  1  0  0  0  0
  4  6  1  0  0  0  0
  4  7  1  0  0  0  0
  7  8  1  0  0  0  0
  7  9  2  0  0  0  0
  9 10  1  0  0  0  0
  9 11  1  0  0  0  0
 11 12  1  0  0  0  0
 11 13  1  0  0  0  0
 11 14  1  0  0  0  0
 14 15  1  0  0  0  0
 14 16  1  0  0  0  0
 14 17  1  0  0  0  0
M  END
> <VConfSearch Rank>
771

> <Conf_Id>
38

> <Delta U+W>
0.000

> <U+W>
-49.427

> <U>
13.666

> <W>
-63.093

> <W(PB)>
-65.225

> <W(SA)>
2.132

> <Valence>
15.226

> <Coulomb>
-1.822

> <VdW>
0.261

> <VdW6>
-4.165

> <VdW12>
4.426

> <Bond>
0.044

> <Angle>
2.229

> <Pdih>
12.953

> <Idih>
0.000

> <Tether>
0.000

$$$$
VeraChem MOL file


 17 16  0  0  0  0  0  0  0  0999 V2000     
   17.2850   20.3678   23.0853 C   0  0  0  0  0  0  0  0  0  0  0  0
   17.0147   21.3767   22.4641 O   0  5  0  0  0  0  0  0  0  0  0  0
   17.0223   20.2123   24.2616 O   0  0  0  0  0  0  0  0  0  0  0  0
   17.9863   19.2332   22.3501 C   0  0  0  0  0  0  0  0  0  0  0  0
   17.7712   19.3334   21.2795 H   0  0  0  0  0  0  0  0  0  0  0  0
   17.5352   18.2905   22.6809 H   0  0  0  0  0  0  0  0  0  0  0  0
   19.4814   19.2127   22.6047 C   0  0  0  0  0  0  0  0  0  0  0  0
   19.7765   18.9570   23.6219 H   0  0  0  0  0  0  0  0  0  0  0  0
   20.4050   19.4848   21.6777 C   0  0  0  0  0  0  0  0  0  0  0  0
   20.1091   19.7435   20.6616 H   0  0  0  0  0  0  0  0  0  0  0  0
   21.8953   19.4677   21.9344 C   0  0  0  0  0  0  0  0  0  0  0  0
   22.3504   20.3852   21.5373 H   0  0  0  0  0  0  0  0  0  0  0  0
   22.0994   19.4563   23.0140 H   0  0  0  0  0  0  0  0  0  0  0  0
   22.5564   18.2404   21.2774 C   0  0  0  0  0  0  0  0  0  0  0  0
   22.4007   18.2465   20.1906 H   0  0  0  0  0  0  0  0  0  0  0  0
   23.6378   18.2339   21.4664 H   0  0  0  0  0  0  0  0  0  0  0  0
   22.1348   17.3092   21.6782 H   0  0  0  0  0  0  0  0  0  0  0  0
  1  2  1  0  0  0  0
  1  3  2  0  0  0  0
  1  4  1  0  0  0  0
  4  5  1  0  0  0  0
  4  6  1  0  0  0  0
  4  7  1  0  0  0  0
  7  8  1  0  0  0  0
  7  9  2  0  0  0  0
  9 10  1  0  0  0  0
  9 11  1  0  0  0  0
 11 12  1  0  0  0  0
 11 13  1  0  0  0  0
 11 14  1  0  0  0  0
 14 15  1  0  0  0  0
 14 16  1  0  0  0  0
 14 17  1  0  0  0  0
M  END
> <VConfSearch Rank>
772

> <Conf_Id>
35

> <Delta U+W>
-0.102

> <U+W>
-49.529

> <U>
13.666

> <W>
-63.195

> <W(PB)>
-65.299

> <W(SA)>
2.103

> <Valence>
15.226

> <Coulomb>
-1.822

> <VdW>
0.261

> <VdW6>
-4.165

> <VdW12>
4.426

> <Bond>
0.044

> <Angle>
2.229

> <Pdih>
12.953

> <Idih>
0.000

> <Tether>
0.000

$$$$
VeraChem MOL file


 17 16  0  0  0  0  0  0  0  0999 V2000     
   21.7246   19.9372   24.6009 C   0  0  0  0  0  0  0  0  0  0  0  0
   22.0142   21.1144   24.5163 O   0  5  0  0  0  0  0  0  0  0  0  0
   21.2736   19.4268   25.6074 O   0  0  0  0  0  0  0  0  0  0  0  0
   21.9486   19.0531   23.3811 C   0  0  0  0  0  0  0  0  0  0  0  0
   22.0598   18.0174   23.7240 H   0  0  0  0  0  0  0  0  0  0  0  0
   22.9028   19.3446   22.9272 H   0  0  0  0  0  0  0  0  0  0  0  0
   20.8298   19.1736   22.3636 C   0  0  0  0  0  0  0  0  0  0  0  0
   20.7690   20.1407   21.8676 H   0  0  0  0  0  0  0  0  0  0  0  0
   19.9676   18.1889   22.0812 C   0  0  0  0  0  0  0  0  0  0  0  0
   20.0569   17.2357   22.6013 H   0  0  0  0  0  0  0  0  0  0  0  0
   18.8256   18.2418   21.0804 C   0  0  0  0  0  0  0  0  0  0  0  0
   18.9585   17.4371   20.3447 H   0  0  0  0  0  0  0  0  0  0  0  0
   17.8853   18.0140   21.6003 H   0  0  0  0  0  0  0  0  0  0  0  0
   18.6744   19.5858   20.3341 C   0  0  0  0  0  0  0  0  0  0  0  0
   19.5788   19.8203   19.7575 H   0  0  0  0  0  0  0  0  0  0  0  0
   17.8305   19.5440   19.6332 H   0  0  0  0  0  0  0  0  0  0  0  0
   18.4868   20.4078   21.0373 H   0  0  0  0  0  0  0  0  0  0  0  0
  1  2  1  0  0  0  0
  1  3  2  0  0  0  0
  1  4  1  0  0  0  0
  4  5  1  0  0  0  0
  4  6  1  0  0  0  0
  4  7  1  0  0  0  0
  7  8  1  0  0  0  0
  7  9  2  0  0  0  0
  9 10  1  0  0  0  0
  9 11  1  0  0  0  0
 11 12  1  0  0  0  0
 11 13  1  0  0  0  0
 11 14  1  0  0  0  0
 14 15  1  0  0  0  0
 14 16  1  0  0  0  0
 14 17  1  0  0  0  0
M  END
> <VConfSearch Rank>
773

> <Conf_Id>
19

> <Delta U+W>
-0.496

> <U+W>
-49.923

> <U>
13.863

> <W>
-63.786

> <W(PB)>
-65.856

> <W(SA)>
2.070

> <Valence>
14.117

> <Coulomb>
-1.228

> <VdW>
0.974

> <VdW6>
-4.885

> <VdW12>
5.859

> <Bond>
0.094

> <Angle>
2.818

> <Pdih>
11.205

> <Idih>
0.000

> <Tether>
0.000

$$$$
VeraChem MOL file


 17 16  0  0  0  0  0  0  0  0999 V2000     
   22.5664   17.3989   22.0026 C   0  0  0  0  0  0  0  0  0  0  0  0
   23.3030   18.0933   21.3302 O   0  5  0  0  0  0  0  0  0  0  0  0
   22.9203   16.8284   23.0156 O   0  0  0  0  0  0  0  0  0  0  0  0
   21.1237   17.2238   21.5469 C   0  0  0  0  0  0  0  0  0  0  0  0
   20.8545   16.1703   21.6853 H   0  0  0  0  0  0  0  0  0  0  0  0
   21.0765   17.4283   20.4705 H   0  0  0  0  0  0  0  0  0  0  0  0
   20.1611   18.1122   22.3117 C   0  0  0  0  0  0  0  0  0  0  0  0
   20.0375   17.8649   23.3656 H   0  0  0  0  0  0  0  0  0  0  0  0
   19.4977   19.1398   21.7730 C   0  0  0  0  0  0  0  0  0  0  0  0
   19.6256   19.3898   20.7203 H   0  0  0  0  0  0  0  0  0  0  0  0
   18.5406   20.0263   22.5381 C   0  0  0  0  0  0  0  0  0  0  0  0
   17.6060   20.1386   21.9721 H   0  0  0  0  0  0  0  0  0  0  0  0
   18.2739   19.5648   23.4990 H   0  0  0  0  0  0  0  0  0  0  0  0
   19.1570   21.4154   22.7935 C   0  0  0  0  0  0  0  0  0  0  0  0
   19.3981   21.9169   21.8470 H   0  0  0  0  0  0  0  0  0  0  0  0
   18.4585   22.0544   23.3493 H   0  0  0  0  0  0  0  0  0  0  0  0
   20.0812   21.3298   23.3801 H   0  0  0  0  0  0  0  0  0  0  0  0
  1  2  1  0  0  0  0
  1  3  2  0  0  0  0
  1  4  1  0  0  0  0
  4  5  1  0  0  0  0
  4  6  1  0  0  0  0
  4  7  1  0  0  0  0
  7  8  1  0  0  0  0
  7  9  2  0  0  0  0
  9 10  1  0  0  0  0
  9 11  1  0  0  0  0
 11 12  1  0  0  0  0
 11 13  1  0  0  0  0
 11 14  1  0  0  0  0
 14 15  1  0  0  0  0
 14 16  1  0  0  0  0
 14 17  1  0  0  0  0
M  END
> <VConfSearch Rank>
774

> <Conf_Id>
7

> <Delta U+W>
-0.041

> <U+W>
-49.468

> <U>
14.121

> <W>
-63.589

> <W(PB)>
-65.660

> <W(SA)>
2.071

> <Valence>
15.230

> <Coulomb>
-1.333

> <VdW>
0.224

> <VdW6>
-4.212

> <VdW12>
4.436

> <Bond>
0.044

> <Angle>
2.230

> <Pdih>
12.956

> <Idih>
0.000

> <Tether>
0.000

$$$$
VeraChem MOL file


 17 16  0  0  0  0  0  0  0  0999 V2000     
   20.8523   21.3263   23.9656 C   0  0  0  0  0  0  0  0  0  0  0  0
   20.7522   22.2844   23.2246 O   0  5  0  0  0  0  0  0  0  0  0  0
   21.8587   21.0673   24.5958 O   0  0  0  0  0  0  0  0  0  0  0  0
   19.6403   20.4153   24.1353 C   0  0  0  0  0  0  0  0  0  0  0  0
   18.7394   21.0310   24.0299 H   0  0  0  0  0  0  0  0  0  0  0  0
   19.6368   20.0503   25.1690 H   0  0  0  0  0  0  0  0  0  0  0  0
   19.5663   19.2349   23.1771 C   0  0  0  0  0  0  0  0  0  0  0  0
   18.6938   18.5977   23.3156 H   0  0  0  0  0  0  0  0  0  0  0  0
   20.4552   18.9410   22.2208 C   0  0  0  0  0  0  0  0  0  0  0  0
   21.3357   19.5621   22.0608 H   0  0  0  0  0  0  0  0  0  0  0  0
   20.3355   17.7519   21.2936 C   0  0  0  0  0  0  0  0  0  0  0  0
   21.2922   17.2135   21.2563 H   0  0  0  0  0  0  0  0  0  0  0  0
   19.5886   17.0411   21.6732 H   0  0  0  0  0  0  0  0  0  0  0  0
   19.9404   18.1962   19.8718 C   0  0  0  0  0  0  0  0  0  0  0  0
   19.8563   17.3297   19.2031 H   0  0  0  0  0  0  0  0  0  0  0  0
   18.9728   18.7152   19.8805 H   0  0  0  0  0  0  0  0  0  0  0  0
   20.6908   18.8790   19.4523 H   0  0  0  0  0  0  0  0  0  0  0  0
  1  2  1  0  0  0  0
  1  3  2  0  0  0  0
  1  4  1  0  0  0  0
  4  5  1  0  0  0  0
  4  6  1  0  0  0  0
  4  7  1  0  0  0  0
  7  8  1  0  0  0  0
  7  9  2  0  0  0  0
  9 10  1  0  0  0  0
  9 11  1  0  0  0  0
 11 12  1  0  0  0  0
 11 13  1  0  0  0  0
 11 14  1  0  0  0  0
 14 15  1  0  0  0  0
 14 16  1  0  0  0  0
 14 17  1  0  0  0  0
M  END
> <VConfSearch Rank>
775

> <Conf_Id>
39

> <Delta U+W>
-0.422

> <U+W>
-49.849

> <U>
14.465

> <W>
-64.314

> <W(PB)>
-66.406

> <W(SA)>
2.093

> <Valence>
14.072

> <Coulomb>
-0.199

> <VdW>
0.592

> <VdW6>
-5.019

> <VdW12>
5.611

> <Bond>
0.085

> <Angle>
2.748

> <Pdih>
11.238

> <Idih>
0.001

> <Tether>
0.000

$$$$
VeraChem MOL file


 17 16  0  0  0  0  0  0  0  0999 V2000     
   22.4642   17.1608   22.0238 C   0  0  0  0  0  0  0  0  0  0  0  0
   22.9101   16.8032   23.0963 O   0  5  0  0  0  0  0  0  0  0  0  0
   23.1542   17.3723   21.0460 O   0  0  0  0  0  0  0  0  0  0  0  0
   20.9579   17.3484   21.8990 C   0  0  0  0  0  0  0  0  0  0  0  0
   20.4723   16.5260   22.4368 H   0  0  0  0  0  0  0  0  0  0  0  0
   20.6858   17.2452   20.8417 H   0  0  0  0  0  0  0  0  0  0  0  0
   20.4906   18.6808   22.4531 C   0  0  0  0  0  0  0  0  0  0  0  0
   20.5818   18.7931   23.5330 H   0  0  0  0  0  0  0  0  0  0  0  0
   19.9984   19.6738   21.7062 C   0  0  0  0  0  0  0  0  0  0  0  0
   19.9103   19.5620   20.6260 H   0  0  0  0  0  0  0  0  0  0  0  0
   19.5365   21.0032   22.2601 C   0  0  0  0  0  0  0  0  0  0  0  0
   19.8910   21.1339   23.2918 H   0  0  0  0  0  0  0  0  0  0  0  0
   19.9720   21.8217   21.6710 H   0  0  0  0  0  0  0  0  0  0  0  0
   17.9994   21.1110   22.2315 C   0  0  0  0  0  0  0  0  0  0  0  0
   17.5415   20.3168   22.8358 H   0  0  0  0  0  0  0  0  0  0  0  0
   17.6702   22.0779   22.6339 H   0  0  0  0  0  0  0  0  0  0  0  0
   17.6195   21.0221   21.2052 H   0  0  0  0  0  0  0  0  0  0  0  0
  1  2  1  0  0  0  0
  1  3  2  0  0  0  0
  1  4  1  0  0  0  0
  4  5  1  0  0  0  0
  4  6  1  0  0  0  0
  4  7  1  0  0  0  0
  7  8  1  0  0  0  0
  7  9  2  0  0  0  0
  9 10  1  0  0  0  0
  9 11  1  0  0  0  0
 11 12  1  0  0  0  0
 11 13  1  0  0  0  0
 11 14  1  0  0  0  0
 14 15  1  0  0  0  0
 14 16  1  0  0  0  0
 14 17  1  0  0  0  0
M  END
> <VConfSearch Rank>
776

> <Conf_Id>
38

> <Delta U+W>
0.000

> <U+W>
-49.427

> <U>
13.666

> <W>
-63.093

> <W(PB)>
-65.225

> <W(SA)>
2.132

> <Valence>
15.226

> <Coulomb>
-1.822

> <VdW>
0.261

> <VdW6>
-4.165

> <VdW12>
4.426

> <Bond>
0.044

> <Angle>
2.229

> <Pdih>
12.953

> <Idih>
0.000

> <Tether>
0.000

$$$$
VeraChem MOL file


 17 16  0  0  0  0  0  0  0  0999 V2000     
   20.4026   20.8003   24.8560 C   0  0  0  0  0  0  0  0  0  0  0  0
   20.3923   21.9975   24.6475 O   0  5  0  0  0  0  0  0  0  0  0  0
   21.1041   20.2702   25.6949 O   0  0  0  0  0  0  0  0  0  0  0  0
   19.4831   19.9147   24.0254 C   0  0  0  0  0  0  0  0  0  0  0  0
   18.6557   20.5316   23.6546 H   0  0  0  0  0  0  0  0  0  0  0  0
   19.0479   19.1632   24.6943 H   0  0  0  0  0  0  0  0  0  0  0  0
   20.2097   19.2347   22.8808 C   0  0  0  0  0  0  0  0  0  0  0  0
   20.9408   18.4824   23.1755 H   0  0  0  0  0  0  0  0  0  0  0  0
   20.0012   19.5099   21.5896 C   0  0  0  0  0  0  0  0  0  0  0  0
   19.2724   20.2645   21.2957 H   0  0  0  0  0  0  0  0  0  0  0  0
   20.7296   18.8336   20.4497 C   0  0  0  0  0  0  0  0  0  0  0  0
   21.1026   19.5909   19.7469 H   0  0  0  0  0  0  0  0  0  0  0  0
   21.6085   18.2904   20.8235 H   0  0  0  0  0  0  0  0  0  0  0  0
   19.8031   17.8533   19.7044 C   0  0  0  0  0  0  0  0  0  0  0  0
   18.9335   18.3772   19.2864 H   0  0  0  0  0  0  0  0  0  0  0  0
   20.3369   17.3662   18.8781 H   0  0  0  0  0  0  0  0  0  0  0  0
   19.4375   17.0706   20.3822 H   0  0  0  0  0  0  0  0  0  0  0  0
  1  2  1  0  0  0  0
  1  3  2  0  0  0  0
  1  4  1  0  0  0  0
  4  5  1  0  0  0  0
  4  6  1  0  0  0  0
  4  7  1  0  0  0  0
  7  8  1  0  0  0  0
  7  9  2  0  0  0  0
  9 10  1  0  0  0  0
  9 11  1  0  0  0  0
 11 12  1  0  0  0  0
 11 13  1  0  0  0  0
 11 14  1  0  0  0  0
 14 15  1  0  0  0  0
 14 16  1  0  0  0  0
 14 17  1  0  0  0  0
M  END
> <VConfSearch Rank>
777

> <Conf_Id>
35

> <Delta U+W>
-0.102

> <U+W>
-49.529

> <U>
13.666

> <W>
-63.195

> <W(PB)>
-65.299

> <W(SA)>
2.103

> <Valence>
15.226

> <Coulomb>
-1.822

> <VdW>
0.261

> <VdW6>
-4.165

> <VdW12>
4.426

> <Bond>
0.044

> <Angle>
2.229

> <Pdih>
12.953

> <Idih>
0.000

> <Tether>
0.000

$$$$
VeraChem MOL file


 17 16  0  0  0  0  0  0  0  0999 V2000     
   18.4812   17.0274   23.3788 C   0  0  0  0  0  0  0  0  0  0  0  0
   17.3560   17.1313   22.9316 O   0  5  0  0  0  0  0  0  0  0  0  0
   19.0653   15.9674   23.4890 O   0  0  0  0  0  0  0  0  0  0  0  0
   19.1927   18.2947   23.8343 C   0  0  0  0  0  0  0  0  0  0  0  0
   19.9545   18.0142   24.5716 H   0  0  0  0  0  0  0  0  0  0  0  0
   18.4593   18.9219   24.3541 H   0  0  0  0  0  0  0  0  0  0  0  0
   19.8080   19.0620   22.6792 C   0  0  0  0  0  0  0  0  0  0  0  0
   19.0881   19.5047   21.9931 H   0  0  0  0  0  0  0  0  0  0  0  0
   21.1266   19.1961   22.4896 C   0  0  0  0  0  0  0  0  0  0  0  0
   21.8170   18.7351   23.1952 H   0  0  0  0  0  0  0  0  0  0  0  0
   21.8092   19.9445   21.3570 C   0  0  0  0  0  0  0  0  0  0  0  0
   22.4635   20.7170   21.7832 H   0  0  0  0  0  0  0  0  0  0  0  0
   22.4765   19.2534   20.8245 H   0  0  0  0  0  0  0  0  0  0  0  0
   20.8511   20.6022   20.3394 C   0  0  0  0  0  0  0  0  0  0  0  0
   20.2033   21.3413   20.8288 H   0  0  0  0  0  0  0  0  0  0  0  0
   21.4187   21.1199   19.5553 H   0  0  0  0  0  0  0  0  0  0  0  0
   20.2159   19.8499   19.8534 H   0  0  0  0  0  0  0  0  0  0  0  0
  1  2  1  0  0  0  0
  1  3  2  0  0  0  0
  1  4  1  0  0  0  0
  4  5  1  0  0  0  0
  4  6  1  0  0  0  0
  4  7  1  0  0  0  0
  7  8  1  0  0  0  0
  7  9  2  0  0  0  0
  9 10  1  0  0  0  0
  9 11  1  0  0  0  0
 11 12  1  0  0  0  0
 11 13  1  0  0  0  0
 11 14  1  0  0  0  0
 14 15  1  0  0  0  0
 14 16  1  0  0  0  0
 14 17  1  0  0  0  0
M  END
> <VConfSearch Rank>
778

> <Conf_Id>
19

> <Delta U+W>
-0.496

> <U+W>
-49.923

> <U>
13.863

> <W>
-63.786

> <W(PB)>
-65.856

> <W(SA)>
2.070

> <Valence>
14.117

> <Coulomb>
-1.228

> <VdW>
0.974

> <VdW6>
-4.885

> <VdW12>
5.859

> <Bond>
0.094

> <Angle>
2.818

> <Pdih>
11.205

> <Idih>
0.000

> <Tether>
0.000

$$$$
VeraChem MOL file


 17 16  0  0  0  0  0  0  0  0999 V2000     
   22.7850   17.7904   22.5180 C   0  0  0  0  0  0  0  0  0  0  0  0
   23.1348   17.6393   21.3641 O   0  5  0  0  0  0  0  0  0  0  0  0
   23.5074   18.2402   23.3858 O   0  0  0  0  0  0  0  0  0  0  0  0
   21.3682   17.3849   22.9024 C   0  0  0  0  0  0  0  0  0  0  0  0
   21.4175   16.8737   23.8708 H   0  0  0  0  0  0  0  0  0  0  0  0
   21.0106   16.6511   22.1700 H   0  0  0  0  0  0  0  0  0  0  0  0
   20.4271   18.5714   22.9872 C   0  0  0  0  0  0  0  0  0  0  0  0
   20.6303   19.2690   23.7991 H   0  0  0  0  0  0  0  0  0  0  0  0
   19.4141   18.7886   22.1428 C   0  0  0  0  0  0  0  0  0  0  0  0
   19.2146   18.0934   21.3280 H   0  0  0  0  0  0  0  0  0  0  0  0
   18.4787   19.9740   22.2273 C   0  0  0  0  0  0  0  0  0  0  0  0
   17.4377   19.6310   22.1558 H   0  0  0  0  0  0  0  0  0  0  0  0
   18.5797   20.4748   23.2000 H   0  0  0  0  0  0  0  0  0  0  0  0
   18.7648   20.9860   21.1008 C   0  0  0  0  0  0  0  0  0  0  0  0
   18.6332   20.5219   20.1146 H   0  0  0  0  0  0  0  0  0  0  0  0
   18.0836   21.8443   21.1671 H   0  0  0  0  0  0  0  0  0  0  0  0
   19.7943   21.3620   21.1670 H   0  0  0  0  0  0  0  0  0  0  0  0
  1  2  1  0  0  0  0
  1  3  2  0  0  0  0
  1  4  1  0  0  0  0
  4  5  1  0  0  0  0
  4  6  1  0  0  0  0
  4  7  1  0  0  0  0
  7  8  1  0  0  0  0
  7  9  2  0  0  0  0
  9 10  1  0  0  0  0
  9 11  1  0  0  0  0
 11 12  1  0  0  0  0
 11 13  1  0  0  0  0
 11 14  1  0  0  0  0
 14 15  1  0  0  0  0
 14 16  1  0  0  0  0
 14 17  1  0  0  0  0
M  END
> <VConfSearch Rank>
779

> <Conf_Id>
7

> <Delta U+W>
-0.041

> <U+W>
-49.468

> <U>
14.121

> <W>
-63.589

> <W(PB)>
-65.660

> <W(SA)>
2.071

> <Valence>
15.230

> <Coulomb>
-1.333

> <VdW>
0.224

> <VdW6>
-4.212

> <VdW12>
4.436

> <Bond>
0.044

> <Angle>
2.230

> <Pdih>
12.956

> <Idih>
0.000

> <Tether>
0.000

$$$$
VeraChem MOL file


 17 16  0  0  0  0  0  0  0  0999 V2000     
   21.9563   20.7199   23.7483 C   0  0  0  0  0  0  0  0  0  0  0  0
   22.8460   20.8704   22.9342 O   0  5  0  0  0  0  0  0  0  0  0  0
   22.1306   20.2437   24.8528 O   0  0  0  0  0  0  0  0  0  0  0  0
   20.5503   21.1790   23.3743 C   0  0  0  0  0  0  0  0  0  0  0  0
   20.6453   22.0433   22.7066 H   0  0  0  0  0  0  0  0  0  0  0  0
   20.0661   21.5527   24.2840 H   0  0  0  0  0  0  0  0  0  0  0  0
   19.6667   20.1252   22.7220 C   0  0  0  0  0  0  0  0  0  0  0  0
   18.6677   20.4738   22.4633 H   0  0  0  0  0  0  0  0  0  0  0  0
   20.0162   18.8612   22.4551 C   0  0  0  0  0  0  0  0  0  0  0  0
   21.0090   18.4875   22.7026 H   0  0  0  0  0  0  0  0  0  0  0  0
   19.0974   17.8506   21.8050 C   0  0  0  0  0  0  0  0  0  0  0  0
   19.1196   16.9106   22.3729 H   0  0  0  0  0  0  0  0  0  0  0  0
   18.0580   18.2062   21.8250 H   0  0  0  0  0  0  0  0  0  0  0  0
   19.5157   17.5797   20.3467 C   0  0  0  0  0  0  0  0  0  0  0  0
   18.8466   16.8449   19.8805 H   0  0  0  0  0  0  0  0  0  0  0  0
   19.4763   18.5020   19.7522 H   0  0  0  0  0  0  0  0  0  0  0  0
   20.5396   17.1863   20.2998 H   0  0  0  0  0  0  0  0  0  0  0  0
  1  2  1  0  0  0  0
  1  3  2  0  0  0  0
  1  4  1  0  0  0  0
  4  5  1  0  0  0  0
  4  6  1  0  0  0  0
  4  7  1  0  0  0  0
  7  8  1  0  0  0  0
  7  9  2  0  0  0  0
  9 10  1  0  0  0  0
  9 11  1  0  0  0  0
 11 12  1  0  0  0  0
 11 13  1  0  0  0  0
 11 14  1  0  0  0  0
 14 15  1  0  0  0  0
 14 16  1  0  0  0  0
 14 17  1  0  0  0  0
M  END
> <VConfSearch Rank>
780

> <Conf_Id>
39

> <Delta U+W>
-0.422

> <U+W>
-49.849

> <U>
14.465

> <W>
-64.314

> <W(PB)>
-66.406

> <W(SA)>
2.093

> <Valence>
14.072

> <Coulomb>
-0.199

> <VdW>
0.592

> <VdW6>
-5.019

> <VdW12>
5.611

> <Bond>
0.085

> <Angle>
2.748

> <Pdih>
11.238

> <Idih>
0.001

> <Tether>
0.000

$$$$
VeraChem MOL file


 17 16  0  0  0  0  0  0  0  0999 V2000     
   20.4985   22.0714   20.6778 C   0  0  0  0  0  0  0  0  0  0  0  0
   19.8767   22.2468   19.6485 O   0  5  0  0  0  0  0  0  0  0  0  0
   21.6422   22.4468   20.8443 O   0  0  0  0  0  0  0  0  0  0  0  0
   19.8026   21.3462   21.8221 C   0  0  0  0  0  0  0  0  0  0  0  0
   18.7705   21.7119   21.8721 H   0  0  0  0  0  0  0  0  0  0  0  0
   20.2915   21.6364   22.7599 H   0  0  0  0  0  0  0  0  0  0  0  0
   19.8134   19.8396   21.6469 C   0  0  0  0  0  0  0  0  0  0  0  0
   19.2096   19.4630   20.8218 H   0  0  0  0  0  0  0  0  0  0  0  0
   20.5017   18.9979   22.4242 C   0  0  0  0  0  0  0  0  0  0  0  0
   21.1075   19.3754   23.2473 H   0  0  0  0  0  0  0  0  0  0  0  0
   20.5142   17.4962   22.2456 C   0  0  0  0  0  0  0  0  0  0  0  0
   20.1030   17.2223   21.2642 H   0  0  0  0  0  0  0  0  0  0  0  0
   21.5492   17.1289   22.2674 H   0  0  0  0  0  0  0  0  0  0  0  0
   19.6987   16.8000   23.3526 C   0  0  0  0  0  0  0  0  0  0  0  0
   18.6525   17.1328   23.3340 H   0  0  0  0  0  0  0  0  0  0  0  0
   19.7120   15.7106   23.2181 H   0  0  0  0  0  0  0  0  0  0  0  0
   20.1119   17.0259   24.3444 H   0  0  0  0  0  0  0  0  0  0  0  0
  1  2  1  0  0  0  0
  1  3  2  0  0  0  0
  1  4  1  0  0  0  0
  4  5  1  0  0  0  0
  4  6  1  0  0  0  0
  4  7  1  0  0  0  0
  7  8  1  0  0  0  0
  7  9  2  0  0  0  0
  9 10  1  0  0  0  0
  9 11  1  0  0  0  0
 11 12  1  0  0  0  0
 11 13  1  0  0  0  0
 11 14  1  0  0  0  0
 14 15  1  0  0  0  0
 14 16  1  0  0  0  0
 14 17  1  0  0  0  0
M  END
> <VConfSearch Rank>
781

> <Conf_Id>
38

> <Delta U+W>
0.000

> <U+W>
-49.427

> <U>
13.666

> <W>
-63.093

> <W(PB)>
-65.225

> <W(SA)>
2.132

> <Valence>
15.226

> <Coulomb>
-1.822

> <VdW>
0.261

> <VdW6>
-4.165

> <VdW12>
4.426

> <Bond>
0.044

> <Angle>
2.229

> <Pdih>
12.953

> <Idih>
0.000

> <Tether>
0.000

$$$$
VeraChem MOL file


 17 16  0  0  0  0  0  0  0  0999 V2000     
   20.2837   22.0045   20.5279 C   0  0  0  0  0  0  0  0  0  0  0  0
   19.2190   22.5854   20.6046 O   0  5  0  0  0  0  0  0  0  0  0  0
   20.9810   22.0082   19.5325 O   0  0  0  0  0  0  0  0  0  0  0  0
   20.7754   21.2339   21.7461 C   0  0  0  0  0  0  0  0  0  0  0  0
   20.2971   21.6587   22.6368 H   0  0  0  0  0  0  0  0  0  0  0  0
   21.8523   21.4136   21.8439 H   0  0  0  0  0  0  0  0  0  0  0  0
   20.5033   19.7454   21.6405 C   0  0  0  0  0  0  0  0  0  0  0  0
   21.0730   19.2218   20.8734 H   0  0  0  0  0  0  0  0  0  0  0  0
   19.6339   19.0843   22.4108 C   0  0  0  0  0  0  0  0  0  0  0  0
   19.0622   19.6091   23.1755 H   0  0  0  0  0  0  0  0  0  0  0  0
   19.3610   17.6008   22.3014 C   0  0  0  0  0  0  0  0  0  0  0  0
   18.2772   17.4243   22.2743 H   0  0  0  0  0  0  0  0  0  0  0  0
   19.7688   17.2031   21.3619 H   0  0  0  0  0  0  0  0  0  0  0  0
   19.9765   16.8354   23.4890 C   0  0  0  0  0  0  0  0  0  0  0  0
   19.5575   17.1869   24.4410 H   0  0  0  0  0  0  0  0  0  0  0  0
   19.7746   15.7597   23.4045 H   0  0  0  0  0  0  0  0  0  0  0  0
   21.0650   16.9762   23.5216 H   0  0  0  0  0  0  0  0  0  0  0  0
  1  2  1  0  0  0  0
  1  3  2  0  0  0  0
  1  4  1  0  0  0  0
  4  5  1  0  0  0  0
  4  6  1  0  0  0  0
  4  7  1  0  0  0  0
  7  8  1  0  0  0  0
  7  9  2  0  0  0  0
  9 10  1  0  0  0  0
  9 11  1  0  0  0  0
 11 12  1  0  0  0  0
 11 13  1  0  0  0  0
 11 14  1  0  0  0  0
 14 15  1  0  0  0  0
 14 16  1  0  0  0  0
 14 17  1  0  0  0  0
M  END
> <VConfSearch Rank>
782

> <Conf_Id>
35

> <Delta U+W>
-0.102

> <U+W>
-49.529

> <U>
13.666

> <W>
-63.195

> <W(PB)>
-65.299

> <W(SA)>
2.103

> <Valence>
15.226

> <Coulomb>
-1.822

> <VdW>
0.261

> <VdW6>
-4.165

> <VdW12>
4.426

> <Bond>
0.044

> <Angle>
2.229

> <Pdih>
12.953

> <Idih>
0.000

> <Tether>
0.000

$$$$
VeraChem MOL file


 17 16  0  0  0  0  0  0  0  0999 V2000     
   18.3640   19.4672   19.9416 C   0  0  0  0  0  0  0  0  0  0  0  0
   17.2545   19.7359   20.3584 O   0  5  0  0  0  0  0  0  0  0  0  0
   18.8968   20.0552   19.0212 O   0  0  0  0  0  0  0  0  0  0  0  0
   19.1226   18.3247   20.6042 C   0  0  0  0  0  0  0  0  0  0  0  0
   19.8549   17.9371   19.8858 H   0  0  0  0  0  0  0  0  0  0  0  0
   18.4075   17.5172   20.8000 H   0  0  0  0  0  0  0  0  0  0  0  0
   19.7967   18.7474   21.8958 C   0  0  0  0  0  0  0  0  0  0  0  0
   19.1125   18.9937   22.7059 H   0  0  0  0  0  0  0  0  0  0  0  0
   21.1238   18.8264   22.0548 C   0  0  0  0  0  0  0  0  0  0  0  0
   21.7773   18.5761   21.2197 H   0  0  0  0  0  0  0  0  0  0  0  0
   21.8637   19.2443   23.3143 C   0  0  0  0  0  0  0  0  0  0  0  0
   22.5433   18.4351   23.6140 H   0  0  0  0  0  0  0  0  0  0  0  0
   22.5101   20.1009   23.0802 H   0  0  0  0  0  0  0  0  0  0  0  0
   20.9585   19.6102   24.5113 C   0  0  0  0  0  0  0  0  0  0  0  0
   20.3347   18.7571   24.8088 H   0  0  0  0  0  0  0  0  0  0  0  0
   21.5657   19.9010   25.3783 H   0  0  0  0  0  0  0  0  0  0  0  0
   20.3002   20.4535   24.2640 H   0  0  0  0  0  0  0  0  0  0  0  0
  1  2  1  0  0  0  0
  1  3  2  0  0  0  0
  1  4  1  0  0  0  0
  4  5  1  0  0  0  0
  4  6  1  0  0  0  0
  4  7  1  0  0  0  0
  7  8  1  0  0  0  0
  7  9  2  0  0  0  0
  9 10  1  0  0  0  0
  9 11  1  0  0  0  0
 11 12  1  0  0  0  0
 11 13  1  0  0  0  0
 11 14  1  0  0  0  0
 14 15  1  0  0  0  0
 14 16  1  0  0  0  0
 14 17  1  0  0  0  0
M  END
> <VConfSearch Rank>
783

> <Conf_Id>
19

> <Delta U+W>
-0.496

> <U+W>
-49.923

> <U>
13.863

> <W>
-63.786

> <W(PB)>
-65.856

> <W(SA)>
2.070

> <Valence>
14.117

> <Coulomb>
-1.228

> <VdW>
0.974

> <VdW6>
-4.885

> <VdW12>
5.859

> <Bond>
0.094

> <Angle>
2.818

> <Pdih>
11.205

> <Idih>
0.000

> <Tether>
0.000

$$$$
VeraChem MOL file


 17 16  0  0  0  0  0  0  0  0999 V2000     
   18.3986   21.3613   21.7123 C   0  0  0  0  0  0  0  0  0  0  0  0
   18.4335   21.9494   22.7752 O   0  5  0  0  0  0  0  0  0  0  0  0
   18.5190   21.9118   20.6355 O   0  0  0  0  0  0  0  0  0  0  0  0
   18.1815   19.8539   21.7275 C   0  0  0  0  0  0  0  0  0  0  0  0
   17.4776   19.6091   20.9237 H   0  0  0  0  0  0  0  0  0  0  0  0
   17.6944   19.5868   22.6730 H   0  0  0  0  0  0  0  0  0  0  0  0
   19.4725   19.0792   21.5432 C   0  0  0  0  0  0  0  0  0  0  0  0
   19.9358   19.1742   20.5616 H   0  0  0  0  0  0  0  0  0  0  0  0
   20.0402   18.3286   22.4922 C   0  0  0  0  0  0  0  0  0  0  0  0
   19.5793   18.2381   23.4752 H   0  0  0  0  0  0  0  0  0  0  0  0
   21.3292   17.5594   22.3073 C   0  0  0  0  0  0  0  0  0  0  0  0
   21.2008   16.5289   22.6653 H   0  0  0  0  0  0  0  0  0  0  0  0
   21.5877   17.4930   21.2415 H   0  0  0  0  0  0  0  0  0  0  0  0
   22.4876   18.2287   23.0721 C   0  0  0  0  0  0  0  0  0  0  0  0
   22.2726   18.2733   24.1479 H   0  0  0  0  0  0  0  0  0  0  0  0
   23.4205   17.6667   22.9342 H   0  0  0  0  0  0  0  0  0  0  0  0
   22.6507   19.2535   22.7133 H   0  0  0  0  0  0  0  0  0  0  0  0
  1  2  1  0  0  0  0
  1  3  2  0  0  0  0
  1  4  1  0  0  0  0
  4  5  1  0  0  0  0
  4  6  1  0  0  0  0
  4  7  1  0  0  0  0
  7  8  1  0  0  0  0
  7  9  2  0  0  0  0
  9 10  1  0  0  0  0
  9 11  1  0  0  0  0
 11 12  1  0  0  0  0
 11 13  1  0  0  0  0
 11 14  1  0  0  0  0
 14 15  1  0  0  0  0
 14 16  1  0  0  0  0
 14 17  1  0  0  0  0
M  END
> <VConfSearch Rank>
784

> <Conf_Id>
7

> <Delta U+W>
-0.041

> <U+W>
-49.468

> <U>
14.121

> <W>
-63.589

> <W(PB)>
-65.660

> <W(SA)>
2.071

> <Valence>
15.230

> <Coulomb>
-1.333

> <VdW>
0.224

> <VdW6>
-4.212

> <VdW12>
4.436

> <Bond>
0.044

> <Angle>
2.230

> <Pdih>
12.956

> <Idih>
0.000

> <Tether>
0.000

$$$$
VeraChem MOL file


 17 16  0  0  0  0  0  0  0  0999 V2000     
   19.6865   16.8459   23.5074 C   0  0  0  0  0  0  0  0  0  0  0  0
   18.8573   17.1603   24.3384 O   0  5  0  0  0  0  0  0  0  0  0  0
   20.7236   16.2728   23.7775 O   0  0  0  0  0  0  0  0  0  0  0  0
   19.3973   17.1627   22.0433 C   0  0  0  0  0  0  0  0  0  0  0  0
   18.3127   17.1059   21.8948 H   0  0  0  0  0  0  0  0  0  0  0  0
   19.8274   16.3589   21.4346 H   0  0  0  0  0  0  0  0  0  0  0  0
   19.9101   18.5077   21.5484 C   0  0  0  0  0  0  0  0  0  0  0  0
   19.6932   18.7136   20.5010 H   0  0  0  0  0  0  0  0  0  0  0  0
   20.5753   19.4123   22.2766 C   0  0  0  0  0  0  0  0  0  0  0  0
   20.8042   19.2317   23.3262 H   0  0  0  0  0  0  0  0  0  0  0  0
   21.0656   20.7368   21.7349 C   0  0  0  0  0  0  0  0  0  0  0  0
   22.1149   20.8887   22.0218 H   0  0  0  0  0  0  0  0  0  0  0  0
   21.0358   20.7385   20.6366 H   0  0  0  0  0  0  0  0  0  0  0  0
   20.2127   21.9036   22.2699 C   0  0  0  0  0  0  0  0  0  0  0  0
   20.5737   22.8620   21.8748 H   0  0  0  0  0  0  0  0  0  0  0  0
   19.1620   21.7864   21.9731 H   0  0  0  0  0  0  0  0  0  0  0  0
   20.2551   21.9490   23.3661 H   0  0  0  0  0  0  0  0  0  0  0  0
  1  2  1  0  0  0  0
  1  3  2  0  0  0  0
  1  4  1  0  0  0  0
  4  5  1  0  0  0  0
  4  6  1  0  0  0  0
  4  7  1  0  0  0  0
  7  8  1  0  0  0  0
  7  9  2  0  0  0  0
  9 10  1  0  0  0  0
  9 11  1  0  0  0  0
 11 12  1  0  0  0  0
 11 13  1  0  0  0  0
 11 14  1  0  0  0  0
 14 15  1  0  0  0  0
 14 16  1  0  0  0  0
 14 17  1  0  0  0  0
M  END
> <VConfSearch Rank>
785

> <Conf_Id>
39

> <Delta U+W>
-0.422

> <U+W>
-49.849

> <U>
14.465

> <W>
-64.314

> <W(PB)>
-66.406

> <W(SA)>
2.093

> <Valence>
14.072

> <Coulomb>
-0.199

> <VdW>
0.592

> <VdW6>
-5.019

> <VdW12>
5.611

> <Bond>
0.085

> <Angle>
2.748

> <Pdih>
11.238

> <Idih>
0.001

> <Tether>
0.000

$$$$
VeraChem MOL file


 17 16  0  0  0  0  0  0  0  0999 V2000     
   18.7838   20.0584   19.3405 C   0  0  0  0  0  0  0  0  0  0  0  0
   17.5922   19.8466   19.2301 O   0  5  0  0  0  0  0  0  0  0  0  0
   19.5856   19.8683   18.4472 O   0  0  0  0  0  0  0  0  0  0  0  0
   19.2974   20.5962   20.6696 C   0  0  0  0  0  0  0  0  0  0  0  0
   18.5819   21.3461   21.0264 H   0  0  0  0  0  0  0  0  0  0  0  0
   20.2442   21.1182   20.4857 H   0  0  0  0  0  0  0  0  0  0  0  0
   19.4709   19.5057   21.7094 C   0  0  0  0  0  0  0  0  0  0  0  0
   18.5471   19.0485   22.0625 H   0  0  0  0  0  0  0  0  0  0  0  0
   20.6532   19.1018   22.1841 C   0  0  0  0  0  0  0  0  0  0  0  0
   21.5768   19.5573   21.8284 H   0  0  0  0  0  0  0  0  0  0  0  0
   20.8245   18.0116   23.2183 C   0  0  0  0  0  0  0  0  0  0  0  0
   19.8941   17.4378   23.3297 H   0  0  0  0  0  0  0  0  0  0  0  0
   21.5942   17.3023   22.8851 H   0  0  0  0  0  0  0  0  0  0  0  0
   21.2264   18.6018   24.5840 C   0  0  0  0  0  0  0  0  0  0  0  0
   20.4583   19.2958   24.9500 H   0  0  0  0  0  0  0  0  0  0  0  0
   21.3499   17.8061   25.3300 H   0  0  0  0  0  0  0  0  0  0  0  0
   22.1750   19.1496   24.5101 H   0  0  0  0  0  0  0  0  0  0  0  0
  1  2  1  0  0  0  0
  1  3  2  0  0  0  0
  1  4  1  0  0  0  0
  4  5  1  0  0  0  0
  4  6  1  0  0  0  0
  4  7  1  0  0  0  0
  7  8  1  0  0  0  0
  7  9  2  0  0  0  0
  9 10  1  0  0  0  0
  9 11  1  0  0  0  0
 11 12  1  0  0  0  0
 11 13  1  0  0  0  0
 11 14  1  0  0  0  0
 14 15  1  0  0  0  0
 14 16  1  0  0  0  0
 14 17  1  0  0  0  0
M  END
> <VConfSearch Rank>
786

> <Conf_Id>
38

> <Delta U+W>
0.000

> <U+W>
-49.427

> <U>
13.666

> <W>
-63.093

> <W(PB)>
-65.225

> <W(SA)>
2.132

> <Valence>
15.226

> <Coulomb>
-1.822

> <VdW>
0.261

> <VdW6>
-4.165

> <VdW12>
4.426

> <Bond>
0.044

> <Angle>
2.229

> <Pdih>
12.953

> <Idih>
0.000

> <Tether>
0.000

$$$$
VeraChem MOL file


 17 16  0  0  0  0  0  0  0  0999 V2000     
   18.5320   18.0745   19.6195 C   0  0  0  0  0  0  0  0  0  0  0  0
   17.5936   18.7989   19.3522 O   0  5  0  0  0  0  0  0  0  0  0  0
   18.4906   16.8627   19.5360 O   0  0  0  0  0  0  0  0  0  0  0  0
   19.8334   18.7184   20.0791 C   0  0  0  0  0  0  0  0  0  0  0  0
   19.8571   19.7490   19.7050 H   0  0  0  0  0  0  0  0  0  0  0  0
   20.6601   18.1834   19.5975 H   0  0  0  0  0  0  0  0  0  0  0  0
   19.9982   18.6833   21.5865 C   0  0  0  0  0  0  0  0  0  0  0  0
   20.1443   17.6923   22.0154 H   0  0  0  0  0  0  0  0  0  0  0  0
   19.9700   19.7652   22.3706 C   0  0  0  0  0  0  0  0  0  0  0  0
   19.8207   20.7555   21.9414 H   0  0  0  0  0  0  0  0  0  0  0  0
   20.1306   19.7279   23.8740 C   0  0  0  0  0  0  0  0  0  0  0  0
   19.3383   20.3243   24.3463 H   0  0  0  0  0  0  0  0  0  0  0  0
   20.0171   18.7007   24.2473 H   0  0  0  0  0  0  0  0  0  0  0  0
   21.5075   20.2752   24.2977 C   0  0  0  0  0  0  0  0  0  0  0  0
   21.6332   21.3156   23.9701 H   0  0  0  0  0  0  0  0  0  0  0  0
   21.6179   20.2463   25.3895 H   0  0  0  0  0  0  0  0  0  0  0  0
   22.3168   19.6779   23.8575 H   0  0  0  0  0  0  0  0  0  0  0  0
  1  2  1  0  0  0  0
  1  3  2  0  0  0  0
  1  4  1  0  0  0  0
  4  5  1  0  0  0  0
  4  6  1  0  0  0  0
  4  7  1  0  0  0  0
  7  8  1  0  0  0  0
  7  9  2  0  0  0  0
  9 10  1  0  0  0  0
  9 11  1  0  0  0  0
 11 12  1  0  0  0  0
 11 13  1  0  0  0  0
 11 14  1  0  0  0  0
 14 15  1  0  0  0  0
 14 16  1  0  0  0  0
 14 17  1  0  0  0  0
M  END
> <VConfSearch Rank>
787

> <Conf_Id>
35

> <Delta U+W>
-0.102

> <U+W>
-49.529

> <U>
13.666

> <W>
-63.195

> <W(PB)>
-65.299

> <W(SA)>
2.103

> <Valence>
15.226

> <Coulomb>
-1.822

> <VdW>
0.261

> <VdW6>
-4.165

> <VdW12>
4.426

> <Bond>
0.044

> <Angle>
2.229

> <Pdih>
12.953

> <Idih>
0.000

> <Tether>
0.000

$$$$
VeraChem MOL file


 17 16  0  0  0  0  0  0  0  0999 V2000     
   19.0429   21.8027   22.2660 C   0  0  0  0  0  0  0  0  0  0  0  0
   18.8417   22.1391   23.4163 O   0  5  0  0  0  0  0  0  0  0  0  0
   19.5506   22.5273   21.4329 O   0  0  0  0  0  0  0  0  0  0  0  0
   18.6265   20.3994   21.8450 C   0  0  0  0  0  0  0  0  0  0  0  0
   18.4675   20.3999   20.7600 H   0  0  0  0  0  0  0  0  0  0  0  0
   17.6579   20.1838   22.3106 H   0  0  0  0  0  0  0  0  0  0  0  0
   19.6429   19.3473   22.2468 C   0  0  0  0  0  0  0  0  0  0  0  0
   19.7309   19.1872   23.3200 H   0  0  0  0  0  0  0  0  0  0  0  0
   20.3902   18.6590   21.3748 C   0  0  0  0  0  0  0  0  0  0  0  0
   20.2775   18.8498   20.3080 H   0  0  0  0  0  0  0  0  0  0  0  0
   21.4259   17.5979   21.7064 C   0  0  0  0  0  0  0  0  0  0  0  0
   21.1553   16.6635   21.1964 H   0  0  0  0  0  0  0  0  0  0  0  0
   22.3926   17.8978   21.2795 H   0  0  0  0  0  0  0  0  0  0  0  0
   21.6087   17.3136   23.2137 C   0  0  0  0  0  0  0  0  0  0  0  0
   20.6725   16.9584   23.6640 H   0  0  0  0  0  0  0  0  0  0  0  0
   22.3714   16.5397   23.3696 H   0  0  0  0  0  0  0  0  0  0  0  0
   21.9317   18.2165   23.7484 H   0  0  0  0  0  0  0  0  0  0  0  0
  1  2  1  0  0  0  0
  1  3  2  0  0  0  0
  1  4  1  0  0  0  0
  4  5  1  0  0  0  0
  4  6  1  0  0  0  0
  4  7  1  0  0  0  0
  7  8  1  0  0  0  0
  7  9  2  0  0  0  0
  9 10  1  0  0  0  0
  9 11  1  0  0  0  0
 11 12  1  0  0  0  0
 11 13  1  0  0  0  0
 11 14  1  0  0  0  0
 14 15  1  0  0  0  0
 14 16  1  0  0  0  0
 14 17  1  0  0  0  0
M  END
> <VConfSearch Rank>
788

> <Conf_Id>
19

> <Delta U+W>
-0.496

> <U+W>
-49.923

> <U>
13.863

> <W>
-63.786

> <W(PB)>
-65.856

> <W(SA)>
2.070

> <Valence>
14.117

> <Coulomb>
-1.228

> <VdW>
0.974

> <VdW6>
-4.885

> <VdW12>
5.859

> <Bond>
0.094

> <Angle>
2.818

> <Pdih>
11.205

> <Idih>
0.000

> <Tether>
0.000

$$$$
VeraChem MOL file


 17 16  0  0  0  0  0  0  0  0999 V2000     
   22.8593   18.4167   23.1613 C   0  0  0  0  0  0  0  0  0  0  0  0
   23.5116   18.4655   22.1371 O   0  5  0  0  0  0  0  0  0  0  0  0
   23.2060   18.9356   24.2041 O   0  0  0  0  0  0  0  0  0  0  0  0
   21.5404   17.6552   23.1421 C   0  0  0  0  0  0  0  0  0  0  0  0
   21.4741   17.0773   24.0712 H   0  0  0  0  0  0  0  0  0  0  0  0
   21.5726   16.9336   22.3169 H   0  0  0  0  0  0  0  0  0  0  0  0
   20.3407   18.5745   23.0138 C   0  0  0  0  0  0  0  0  0  0  0  0
   20.1533   19.2172   23.8736 H   0  0  0  0  0  0  0  0  0  0  0  0
   19.5487   18.6304   21.9388 C   0  0  0  0  0  0  0  0  0  0  0  0
   19.7396   17.9913   21.0773 H   0  0  0  0  0  0  0  0  0  0  0  0
   18.3547   19.5500   21.8117 C   0  0  0  0  0  0  0  0  0  0  0  0
   17.4850   18.9816   21.4551 H   0  0  0  0  0  0  0  0  0  0  0  0
   18.0812   19.9626   22.7926 H   0  0  0  0  0  0  0  0  0  0  0  0
   18.6481   20.7063   20.8361 C   0  0  0  0  0  0  0  0  0  0  0  0
   18.8871   20.3233   19.8353 H   0  0  0  0  0  0  0  0  0  0  0  0
   17.7787   21.3706   20.7481 H   0  0  0  0  0  0  0  0  0  0  0  0
   19.5001   21.3043   21.1857 H   0  0  0  0  0  0  0  0  0  0  0  0
  1  2  1  0  0  0  0
  1  3  2  0  0  0  0
  1  4  1  0  0  0  0
  4  5  1  0  0  0  0
  4  6  1  0  0  0  0
  4  7  1  0  0  0  0
  7  8  1  0  0  0  0
  7  9  2  0  0  0  0
  9 10  1  0  0  0  0
  9 11  1  0  0  0  0
 11 12  1  0  0  0  0
 11 13  1  0  0  0  0
 11 14  1  0  0  0  0
 14 15  1  0  0  0  0
 14 16  1  0  0  0  0
 14 17  1  0  0  0  0
M  END
> <VConfSearch Rank>
789

> <Conf_Id>
7

> <Delta U+W>
-0.041

> <U+W>
-49.468

> <U>
14.121

> <W>
-63.589

> <W(PB)>
-65.660

> <W(SA)>
2.071

> <Valence>
15.230

> <Coulomb>
-1.333

> <VdW>
0.224

> <VdW6>
-4.212

> <VdW12>
4.436

> <Bond>
0.044

> <Angle>
2.230

> <Pdih>
12.956

> <Idih>
0.000

> <Tether>
0.000

$$$$
VeraChem MOL file


 17 16  0  0  0  0  0  0  0  0999 V2000     
   17.4119   18.8697   21.9888 C   0  0  0  0  0  0  0  0  0  0  0  0
   16.9847   19.9684   22.2846 O   0  5  0  0  0  0  0  0  0  0  0  0
   17.0442   17.8409   22.5212 O   0  0  0  0  0  0  0  0  0  0  0  0
   18.4446   18.7740   20.8699 C   0  0  0  0  0  0  0  0  0  0  0  0
   18.2388   19.5771   20.1527 H   0  0  0  0  0  0  0  0  0  0  0  0
   18.2691   17.8359   20.3305 H   0  0  0  0  0  0  0  0  0  0  0  0
   19.8997   18.8444   21.3110 C   0  0  0  0  0  0  0  0  0  0  0  0
   20.6200   18.7741   20.4969 H   0  0  0  0  0  0  0  0  0  0  0  0
   20.3345   18.9824   22.5691 C   0  0  0  0  0  0  0  0  0  0  0  0
   19.6354   19.0559   23.4014 H   0  0  0  0  0  0  0  0  0  0  0  0
   21.7957   19.0458   22.9552 C   0  0  0  0  0  0  0  0  0  0  0  0
   21.9872   18.3629   23.7939 H   0  0  0  0  0  0  0  0  0  0  0  0
   22.4289   18.7082   22.1232 H   0  0  0  0  0  0  0  0  0  0  0  0
   22.2008   20.4777   23.3558 C   0  0  0  0  0  0  0  0  0  0  0  0
   23.2614   20.5175   23.6362 H   0  0  0  0  0  0  0  0  0  0  0  0
   22.0420   21.1751   22.5228 H   0  0  0  0  0  0  0  0  0  0  0  0
   21.6086   20.8270   24.2118 H   0  0  0  0  0  0  0  0  0  0  0  0
  1  2  1  0  0  0  0
  1  3  2  0  0  0  0
  1  4  1  0  0  0  0
  4  5  1  0  0  0  0
  4  6  1  0  0  0  0
  4  7  1  0  0  0  0
  7  8  1  0  0  0  0
  7  9  2  0  0  0  0
  9 10  1  0  0  0  0
  9 11  1  0  0  0  0
 11 12  1  0  0  0  0
 11 13  1  0  0  0  0
 11 14  1  0  0  0  0
 14 15  1  0  0  0  0
 14 16  1  0  0  0  0
 14 17  1  0  0  0  0
M  END
> <VConfSearch Rank>
790

> <Conf_Id>
39

> <Delta U+W>
-0.422

> <U+W>
-49.849

> <U>
14.465

> <W>
-64.314

> <W(PB)>
-66.406

> <W(SA)>
2.093

> <Valence>
14.072

> <Coulomb>
-0.199

> <VdW>
0.592

> <VdW6>
-5.019

> <VdW12>
5.611

> <Bond>
0.085

> <Angle>
2.748

> <Pdih>
11.238

> <Idih>
0.001

> <Tether>
0.000

$$$$
VeraChem MOL file


 17 16  0  0  0  0  0  0  0  0999 V2000     
   17.9553   21.2422   20.8794 C   0  0  0  0  0  0  0  0  0  0  0  0
   18.3689   22.0910   20.1143 O   0  5  0  0  0  0  0  0  0  0  0  0
   17.0885   21.4475   21.7060 O   0  0  0  0  0  0  0  0  0  0  0  0
   18.5536   19.8443   20.7923 C   0  0  0  0  0  0  0  0  0  0  0  0
   18.6775   19.5985   19.7313 H   0  0  0  0  0  0  0  0  0  0  0  0
   17.8264   19.1336   21.2033 H   0  0  0  0  0  0  0  0  0  0  0  0
   19.8851   19.7364   21.5108 C   0  0  0  0  0  0  0  0  0  0  0  0
   20.7041   20.2948   21.0585 H   0  0  0  0  0  0  0  0  0  0  0  0
   20.0829   19.0215   22.6225 C   0  0  0  0  0  0  0  0  0  0  0  0
   19.2627   18.4658   23.0760 H   0  0  0  0  0  0  0  0  0  0  0  0
   21.4104   18.9182   23.3398 C   0  0  0  0  0  0  0  0  0  0  0  0
   22.1021   19.6932   22.9817 H   0  0  0  0  0  0  0  0  0  0  0  0
   21.2662   19.0964   24.4140 H   0  0  0  0  0  0  0  0  0  0  0  0
   22.0466   17.5303   23.1301 C   0  0  0  0  0  0  0  0  0  0  0  0
   22.2242   17.3400   22.0634 H   0  0  0  0  0  0  0  0  0  0  0  0
   23.0092   17.4612   23.6533 H   0  0  0  0  0  0  0  0  0  0  0  0
   21.3921   16.7372   23.5147 H   0  0  0  0  0  0  0  0  0  0  0  0
  1  2  1  0  0  0  0
  1  3  2  0  0  0  0
  1  4  1  0  0  0  0
  4  5  1  0  0  0  0
  4  6  1  0  0  0  0
  4  7  1  0  0  0  0
  7  8  1  0  0  0  0
  7  9  2  0  0  0  0
  9 10  1  0  0  0  0
  9 11  1  0  0  0  0
 11 12  1  0  0  0  0
 11 13  1  0  0  0  0
 11 14  1  0  0  0  0
 14 15  1  0  0  0  0
 14 16  1  0  0  0  0
 14 17  1  0  0  0  0
M  END
> <VConfSearch Rank>
791

> <Conf_Id>
38

> <Delta U+W>
0.000

> <U+W>
-49.427

> <U>
13.666

> <W>
-63.093

> <W(PB)>
-65.225

> <W(SA)>
2.132

> <Valence>
15.226

> <Coulomb>
-1.822

> <VdW>
0.261

> <VdW6>
-4.165

> <VdW12>
4.426

> <Bond>
0.044

> <Angle>
2.229

> <Pdih>
12.953

> <Idih>
0.000

> <Tether>
0.000

$$$$
VeraChem MOL file


 17 16  0  0  0  0  0  0  0  0999 V2000     
   19.0823   16.6010   20.7273 C   0  0  0  0  0  0  0  0  0  0  0  0
   19.5383   15.6476   21.3272 O   0  5  0  0  0  0  0  0  0  0  0  0
   18.9449   16.6323   19.5202 O   0  0  0  0  0  0  0  0  0  0  0  0
   18.6541   17.8222   21.5305 C   0  0  0  0  0  0  0  0  0  0  0  0
   18.4382   17.4998   22.5562 H   0  0  0  0  0  0  0  0  0  0  0  0
   17.7130   18.1896   21.1052 H   0  0  0  0  0  0  0  0  0  0  0  0
   19.6976   18.9229   21.5148 C   0  0  0  0  0  0  0  0  0  0  0  0
   19.8500   19.4056   20.5499 H   0  0  0  0  0  0  0  0  0  0  0  0
   20.4042   19.3033   22.5835 C   0  0  0  0  0  0  0  0  0  0  0  0
   20.2536   18.8181   23.5473 H   0  0  0  0  0  0  0  0  0  0  0  0
   21.4471   20.3984   22.5651 C   0  0  0  0  0  0  0  0  0  0  0  0
   22.3642   20.0452   23.0558 H   0  0  0  0  0  0  0  0  0  0  0  0
   21.7201   20.6519   21.5315 H   0  0  0  0  0  0  0  0  0  0  0  0
   20.9352   21.6629   23.2821 C   0  0  0  0  0  0  0  0  0  0  0  0
   20.6905   21.4468   24.3304 H   0  0  0  0  0  0  0  0  0  0  0  0
   21.6965   22.4536   23.2661 H   0  0  0  0  0  0  0  0  0  0  0  0
   20.0317   22.0498   22.7927 H   0  0  0  0  0  0  0  0  0  0  0  0
  1  2  1  0  0  0  0
  1  3  2  0  0  0  0
  1  4  1  0  0  0  0
  4  5  1  0  0  0  0
  4  6  1  0  0  0  0
  4  7  1  0  0  0  0
  7  8  1  0  0  0  0
  7  9  2  0  0  0  0
  9 10  1  0  0  0  0
  9 11  1  0  0  0  0
 11 12  1  0  0  0  0
 11 13  1  0  0  0  0
 11 14  1  0  0  0  0
 14 15  1  0  0  0  0
 14 16  1  0  0  0  0
 14 17  1  0  0  0  0
M  END
> <VConfSearch Rank>
792

> <Conf_Id>
35

> <Delta U+W>
-0.102

> <U+W>
-49.529

> <U>
13.666

> <W>
-63.195

> <W(PB)>
-65.299

> <W(SA)>
2.103

> <Valence>
15.226

> <Coulomb>
-1.822

> <VdW>
0.261

> <VdW6>
-4.165

> <VdW12>
4.426

> <Bond>
0.044

> <Angle>
2.229

> <Pdih>
12.953

> <Idih>
0.000

> <Tether>
0.000

$$$$
VeraChem MOL file


 17 16  0  0  0  0  0  0  0  0999 V2000     
   17.5031   18.1250   21.6030 C   0  0  0  0  0  0  0  0  0  0  0  0
   16.9628   17.7518   22.6257 O   0  5  0  0  0  0  0  0  0  0  0  0
   16.9568   18.8208   20.7698 O   0  0  0  0  0  0  0  0  0  0  0  0
   18.9398   17.6877   21.3492 C   0  0  0  0  0  0  0  0  0  0  0  0
   19.1222   17.7201   20.2684 H   0  0  0  0  0  0  0  0  0  0  0  0
   19.0303   16.6399   21.6581 H   0  0  0  0  0  0  0  0  0  0  0  0
   19.9468   18.5400   22.0982 C   0  0  0  0  0  0  0  0  0  0  0  0
   19.9205   18.4283   23.1807 H   0  0  0  0  0  0  0  0  0  0  0  0
   20.8073   19.3757   21.5034 C   0  0  0  0  0  0  0  0  0  0  0  0
   20.8013   19.4642   20.4175 H   0  0  0  0  0  0  0  0  0  0  0  0
   21.8363   20.2584   22.1894 C   0  0  0  0  0  0  0  0  0  0  0  0
   22.8334   20.0136   21.7989 H   0  0  0  0  0  0  0  0  0  0  0  0
   21.6561   21.3037   21.9038 H   0  0  0  0  0  0  0  0  0  0  0  0
   21.8602   20.1554   23.7304 C   0  0  0  0  0  0  0  0  0  0  0  0
   22.0921   19.1320   24.0533 H   0  0  0  0  0  0  0  0  0  0  0  0
   22.6260   20.8214   24.1488 H   0  0  0  0  0  0  0  0  0  0  0  0
   20.8920   20.4451   24.1596 H   0  0  0  0  0  0  0  0  0  0  0  0
  1  2  1  0  0  0  0
  1  3  2  0  0  0  0
  1  4  1  0  0  0  0
  4  5  1  0  0  0  0
  4  6  1  0  0  0  0
  4  7  1  0  0  0  0
  7  8  1  0  0  0  0
  7  9  2  0  0  0  0
  9 10  1  0  0  0  0
  9 11  1  0  0  0  0
 11 12  1  0  0  0  0
 11 13  1  0  0  0  0
 11 14  1  0  0  0  0
 14 15  1  0  0  0  0
 14 16  1  0  0  0  0
 14 17  1  0  0  0  0
M  END
> <VConfSearch Rank>
793

> <Conf_Id>
19

> <Delta U+W>
-0.496

> <U+W>
-49.923

> <U>
13.863

> <W>
-63.786

> <W(PB)>
-65.856

> <W(SA)>
2.070

> <Valence>
14.117

> <Coulomb>
-1.228

> <VdW>
0.974

> <VdW6>
-4.885

> <VdW12>
5.859

> <Bond>
0.094

> <Angle>
2.818

> <Pdih>
11.205

> <Idih>
0.000

> <Tether>
0.000

$$$$
VeraChem MOL file


 17 16  0  0  0  0  0  0  0  0999 V2000     
   20.2256   17.7917   24.8566 C   0  0  0  0  0  0  0  0  0  0  0  0
   21.3425   18.0683   25.2478 O   0  5  0  0  0  0  0  0  0  0  0  0
   19.2268   17.9072   25.5392 O   0  0  0  0  0  0  0  0  0  0  0  0
   20.0679   17.2610   23.4377 C   0  0  0  0  0  0  0  0  0  0  0  0
   19.3458   16.4369   23.4670 H   0  0  0  0  0  0  0  0  0  0  0  0
   21.0280   16.8355   23.1217 H   0  0  0  0  0  0  0  0  0  0  0  0
   19.6006   18.3287   22.4669 C   0  0  0  0  0  0  0  0  0  0  0  0
   18.5853   18.6904   22.6268 H   0  0  0  0  0  0  0  0  0  0  0  0
   20.3501   18.8243   21.4775 C   0  0  0  0  0  0  0  0  0  0  0  0
   21.3671   18.4660   21.3213 H   0  0  0  0  0  0  0  0  0  0  0  0
   19.8832   19.8911   20.5124 C   0  0  0  0  0  0  0  0  0  0  0  0
   20.1136   19.5862   19.4826 H   0  0  0  0  0  0  0  0  0  0  0  0
   18.7925   20.0104   20.5695 H   0  0  0  0  0  0  0  0  0  0  0  0
   20.5602   21.2428   20.8118 C   0  0  0  0  0  0  0  0  0  0  0  0
   21.6516   21.1622   20.7237 H   0  0  0  0  0  0  0  0  0  0  0  0
   20.2175   22.0132   20.1089 H   0  0  0  0  0  0  0  0  0  0  0  0
   20.3234   21.5802   21.8295 H   0  0  0  0  0  0  0  0  0  0  0  0
  1  2  1  0  0  0  0
  1  3  2  0  0  0  0
  1  4  1  0  0  0  0
  4  5  1  0  0  0  0
  4  6  1  0  0  0  0
  4  7  1  0  0  0  0
  7  8  1  0  0  0  0
  7  9  2  0  0  0  0
  9 10  1  0  0  0  0
  9 11  1  0  0  0  0
 11 12  1  0  0  0  0
 11 13  1  0  0  0  0
 11 14  1  0  0  0  0
 14 15  1  0  0  0  0
 14 16  1  0  0  0  0
 14 17  1  0  0  0  0
M  END
> <VConfSearch Rank>
794

> <Conf_Id>
7

> <Delta U+W>
-0.041

> <U+W>
-49.468

> <U>
14.121

> <W>
-63.589

> <W(PB)>
-65.660

> <W(SA)>
2.071

> <Valence>
15.230

> <Coulomb>
-1.333

> <VdW>
0.224

> <VdW6>
-4.212

> <VdW12>
4.436

> <Bond>
0.044

> <Angle>
2.230

> <Pdih>
12.956

> <Idih>
0.000

> <Tether>
0.000

$$$$
VeraChem MOL file


 17 16  0  0  0  0  0  0  0  0999 V2000     
   19.7078   17.2871   20.3938 C   0  0  0  0  0  0  0  0  0  0  0  0
   19.5395   16.3230   21.1144 O   0  5  0  0  0  0  0  0  0  0  0  0
   20.5281   17.3202   19.4976 O   0  0  0  0  0  0  0  0  0  0  0  0
   18.8230   18.5114   20.6076 C   0  0  0  0  0  0  0  0  0  0  0  0
   17.8471   18.1627   20.9653 H   0  0  0  0  0  0  0  0  0  0  0  0
   18.6394   18.9681   19.6281 H   0  0  0  0  0  0  0  0  0  0  0  0
   19.3721   19.5599   21.5646 C   0  0  0  0  0  0  0  0  0  0  0  0
   18.7250   20.4252   21.7027 H   0  0  0  0  0  0  0  0  0  0  0  0
   20.5379   19.4945   22.2185 C   0  0  0  0  0  0  0  0  0  0  0  0
   21.2031   18.6401   22.0990 H   0  0  0  0  0  0  0  0  0  0  0  0
   21.0393   20.5673   23.1597 C   0  0  0  0  0  0  0  0  0  0  0  0
   22.0830   20.8118   22.9204 H   0  0  0  0  0  0  0  0  0  0  0  0
   20.4614   21.4929   23.0316 H   0  0  0  0  0  0  0  0  0  0  0  0
   20.9434   20.1053   24.6269 C   0  0  0  0  0  0  0  0  0  0  0  0
   21.3097   20.8869   25.3052 H   0  0  0  0  0  0  0  0  0  0  0  0
   19.9035   19.8793   24.8972 H   0  0  0  0  0  0  0  0  0  0  0  0
   21.5439   19.2013   24.7927 H   0  0  0  0  0  0  0  0  0  0  0  0
  1  2  1  0  0  0  0
  1  3  2  0  0  0  0
  1  4  1  0  0  0  0
  4  5  1  0  0  0  0
  4  6  1  0  0  0  0
  4  7  1  0  0  0  0
  7  8  1  0  0  0  0
  7  9  2  0  0  0  0
  9 10  1  0  0  0  0
  9 11  1  0  0  0  0
 11 12  1  0  0  0  0
 11 13  1  0  0  0  0
 11 14  1  0  0  0  0
 14 15  1  0  0  0  0
 14 16  1  0  0  0  0
 14 17  1  0  0  0  0
M  END
> <VConfSearch Rank>
795

> <Conf_Id>
39

> <Delta U+W>
-0.422

> <U+W>
-49.849

> <U>
14.465

> <W>
-64.314

> <W(PB)>
-66.406

> <W(SA)>
2.093

> <Valence>
14.072

> <Coulomb>
-0.199

> <VdW>
0.592

> <VdW6>
-5.019

> <VdW12>
5.611

> <Bond>
0.085

> <Angle>
2.748

> <Pdih>
11.238

> <Idih>
0.001

> <Tether>
0.000

$$$$
VeraChem MOL file


 17 16  0  0  0  0  0  0  0  0999 V2000     
   21.2821   20.3654   24.8347 C   0  0  0  0  0  0  0  0  0  0  0  0
   22.4417   20.0924   25.0751 O   0  5  0  0  0  0  0  0  0  0  0  0
   20.4034   20.3633   25.6741 O   0  0  0  0  0  0  0  0  0  0  0  0
   20.9134   20.7353   23.4040 C   0  0  0  0  0  0  0  0  0  0  0  0
   21.7105   21.3746   23.0073 H   0  0  0  0  0  0  0  0  0  0  0  0
   19.9997   21.3413   23.4309 H   0  0  0  0  0  0  0  0  0  0  0  0
   20.7324   19.5179   22.5176 C   0  0  0  0  0  0  0  0  0  0  0  0
   21.6410   18.9525   22.3127 H   0  0  0  0  0  0  0  0  0  0  0  0
   19.5606   19.1291   22.0055 C   0  0  0  0  0  0  0  0  0  0  0  0
   18.6519   19.6932   22.2132 H   0  0  0  0  0  0  0  0  0  0  0  0
   19.3814   17.9127   21.1249 C   0  0  0  0  0  0  0  0  0  0  0  0
   20.2693   17.2674   21.1753 H   0  0  0  0  0  0  0  0  0  0  0  0
   18.5353   17.3136   21.4879 H   0  0  0  0  0  0  0  0  0  0  0  0
   19.1306   18.3214   19.6602 C   0  0  0  0  0  0  0  0  0  0  0  0
   19.9763   18.9006   19.2668 H   0  0  0  0  0  0  0  0  0  0  0  0
   19.0007   17.4347   19.0263 H   0  0  0  0  0  0  0  0  0  0  0  0
   18.2253   18.9368   19.5748 H   0  0  0  0  0  0  0  0  0  0  0  0
  1  2  1  0  0  0  0
  1  3  2  0  0  0  0
  1  4  1  0  0  0  0
  4  5  1  0  0  0  0
  4  6  1  0  0  0  0
  4  7  1  0  0  0  0
  7  8  1  0  0  0  0
  7  9  2  0  0  0  0
  9 10  1  0  0  0  0
  9 11  1  0  0  0  0
 11 12  1  0  0  0  0
 11 13  1  0  0  0  0
 11 14  1  0  0  0  0
 14 15  1  0  0  0  0
 14 16  1  0  0  0  0
 14 17  1  0  0  0  0
M  END
> <VConfSearch Rank>
796

> <Conf_Id>
38

> <Delta U+W>
0.000

> <U+W>
-49.427

> <U>
13.666

> <W>
-63.093

> <W(PB)>
-65.225

> <W(SA)>
2.132

> <Valence>
15.226

> <Coulomb>
-1.822

> <VdW>
0.261

> <VdW6>
-4.165

> <VdW12>
4.426

> <Bond>
0.044

> <Angle>
2.229

> <Pdih>
12.953

> <Idih>
0.000

> <Tether>
0.000

$$$$
VeraChem MOL file


 17 16  0  0  0  0  0  0  0  0999 V2000     
   17.4750   21.0554   22.1656 C   0  0  0  0  0  0  0  0  0  0  0  0
   17.2686   21.4190   23.3067 O   0  5  0  0  0  0  0  0  0  0  0  0
   16.5925   20.7537   21.3864 O   0  0  0  0  0  0  0  0  0  0  0  0
   18.9171   20.9779   21.6820 C   0  0  0  0  0  0  0  0  0  0  0  0
   19.5226   21.6529   22.2989 H   0  0  0  0  0  0  0  0  0  0  0  0
   18.9480   21.3658   20.6573 H   0  0  0  0  0  0  0  0  0  0  0  0
   19.4678   19.5651   21.7210 C   0  0  0  0  0  0  0  0  0  0  0  0
   19.0186   18.8712   21.0111 H   0  0  0  0  0  0  0  0  0  0  0  0
   20.4320   19.1574   22.5518 C   0  0  0  0  0  0  0  0  0  0  0  0
   20.8785   19.8511   23.2635 H   0  0  0  0  0  0  0  0  0  0  0  0
   20.9771   17.7473   22.5919 C   0  0  0  0  0  0  0  0  0  0  0  0
   21.0081   17.3913   23.6306 H   0  0  0  0  0  0  0  0  0  0  0  0
   20.3145   17.0633   22.0439 H   0  0  0  0  0  0  0  0  0  0  0  0
   22.3919   17.6828   21.9843 C   0  0  0  0  0  0  0  0  0  0  0  0
   23.0857   18.3292   22.5376 H   0  0  0  0  0  0  0  0  0  0  0  0
   22.7823   16.6574   22.0168 H   0  0  0  0  0  0  0  0  0  0  0  0
   22.3814   18.0103   20.9363 H   0  0  0  0  0  0  0  0  0  0  0  0
  1  2  1  0  0  0  0
  1  3  2  0  0  0  0
  1  4  1  0  0  0  0
  4  5  1  0  0  0  0
  4  6  1  0  0  0  0
  4  7  1  0  0  0  0
  7  8  1  0  0  0  0
  7  9  2  0  0  0  0
  9 10  1  0  0  0  0
  9 11  1  0  0  0  0
 11 12  1  0  0  0  0
 11 13  1  0  0  0  0
 11 14  1  0  0  0  0
 14 15  1  0  0  0  0
 14 16  1  0  0  0  0
 14 17  1  0  0  0  0
M  END
> <VConfSearch Rank>
797

> <Conf_Id>
35

> <Delta U+W>
-0.102

> <U+W>
-49.529

> <U>
13.666

> <W>
-63.195

> <W(PB)>
-65.299

> <W(SA)>
2.103

> <Valence>
15.226

> <Coulomb>
-1.822

> <VdW>
0.261

> <VdW6>
-4.165

> <VdW12>
4.426

> <Bond>
0.044

> <Angle>
2.229

> <Pdih>
12.953

> <Idih>
0.000

> <Tether>
0.000

$$$$
VeraChem MOL file


 17 16  0  0  0  0  0  0  0  0999 V2000     
   18.3622   21.3770   21.9689 C   0  0  0  0  0  0  0  0  0  0  0  0
   18.3834   21.8126   20.8345 O   0  5  0  0  0  0  0  0  0  0  0  0
   17.3388   21.1797   22.5939 O   0  0  0  0  0  0  0  0  0  0  0  0
   19.6920   21.0714   22.6456 C   0  0  0  0  0  0  0  0  0  0  0  0
   19.5421   21.1138   23.7311 H   0  0  0  0  0  0  0  0  0  0  0  0
   20.3915   21.8747   22.3872 H   0  0  0  0  0  0  0  0  0  0  0  0
   20.2620   19.7296   22.2259 C   0  0  0  0  0  0  0  0  0  0  0  0
   20.5807   19.6766   21.1863 H   0  0  0  0  0  0  0  0  0  0  0  0
   20.3718   18.6756   23.0442 C   0  0  0  0  0  0  0  0  0  0  0  0
   20.0381   18.7650   24.0775 H   0  0  0  0  0  0  0  0  0  0  0  0
   20.9274   17.3063   22.6908 C   0  0  0  0  0  0  0  0  0  0  0  0
   21.7639   17.0760   23.3644 H   0  0  0  0  0  0  0  0  0  0  0  0
   20.1623   16.5464   22.9001 H   0  0  0  0  0  0  0  0  0  0  0  0
   21.4017   17.1525   21.2288 C   0  0  0  0  0  0  0  0  0  0  0  0
   22.2071   17.8623   20.9991 H   0  0  0  0  0  0  0  0  0  0  0  0
   21.7866   16.1394   21.0536 H   0  0  0  0  0  0  0  0  0  0  0  0
   20.5754   17.3242   20.5265 H   0  0  0  0  0  0  0  0  0  0  0  0
  1  2  1  0  0  0  0
  1  3  2  0  0  0  0
  1  4  1  0  0  0  0
  4  5  1  0  0  0  0
  4  6  1  0  0  0  0
  4  7  1  0  0  0  0
  7  8  1  0  0  0  0
  7  9  2  0  0  0  0
  9 10  1  0  0  0  0
  9 11  1  0  0  0  0
 11 12  1  0  0  0  0
 11 13  1  0  0  0  0
 11 14  1  0  0  0  0
 14 15  1  0  0  0  0
 14 16  1  0  0  0  0
 14 17  1  0  0  0  0
M  END
> <VConfSearch Rank>
798

> <Conf_Id>
19

> <Delta U+W>
-0.496

> <U+W>
-49.923

> <U>
13.863

> <W>
-63.786

> <W(PB)>
-65.856

> <W(SA)>
2.070

> <Valence>
14.117

> <Coulomb>
-1.228

> <VdW>
0.974

> <VdW6>
-4.885

> <VdW12>
5.859

> <Bond>
0.094

> <Angle>
2.818

> <Pdih>
11.205

> <Idih>
0.000

> <Tether>
0.000

$$$$
VeraChem MOL file


 17 16  0  0  0  0  0  0  0  0999 V2000     
   17.3690   18.3876   22.8317 C   0  0  0  0  0  0  0  0  0  0  0  0
   17.4949   17.5083   23.6610 O   0  5  0  0  0  0  0  0  0  0  0  0
   16.5992   19.3202   22.9528 O   0  0  0  0  0  0  0  0  0  0  0  0
   18.2130   18.3132   21.5661 C   0  0  0  0  0  0  0  0  0  0  0  0
   17.5722   18.5868   20.7200 H   0  0  0  0  0  0  0  0  0  0  0  0
   18.5150   17.2697   21.4158 H   0  0  0  0  0  0  0  0  0  0  0  0
   19.4227   19.2268   21.6201 C   0  0  0  0  0  0  0  0  0  0  0  0
   19.2005   20.2935   21.6136 H   0  0  0  0  0  0  0  0  0  0  0  0
   20.6867   18.7968   21.6804 C   0  0  0  0  0  0  0  0  0  0  0  0
   20.9080   17.7301   21.6920 H   0  0  0  0  0  0  0  0  0  0  0  0
   21.8913   19.7095   21.7371 C   0  0  0  0  0  0  0  0  0  0  0  0
   22.6387   19.3837   21.0010 H   0  0  0  0  0  0  0  0  0  0  0  0
   21.6088   20.7362   21.4665 H   0  0  0  0  0  0  0  0  0  0  0  0
   22.5208   19.7081   23.1438 C   0  0  0  0  0  0  0  0  0  0  0  0
   22.8486   18.6987   23.4251 H   0  0  0  0  0  0  0  0  0  0  0  0
   23.3942   20.3722   23.1794 H   0  0  0  0  0  0  0  0  0  0  0  0
   21.7982   20.0545   23.8944 H   0  0  0  0  0  0  0  0  0  0  0  0
  1  2  1  0  0  0  0
  1  3  2  0  0  0  0
  1  4  1  0  0  0  0
  4  5  1  0  0  0  0
  4  6  1  0  0  0  0
  4  7  1  0  0  0  0
  7  8  1  0  0  0  0
  7  9  2  0  0  0  0
  9 10  1  0  0  0  0
  9 11  1  0  0  0  0
 11 12  1  0  0  0  0
 11 13  1  0  0  0  0
 11 14  1  0  0  0  0
 14 15  1  0  0  0  0
 14 16  1  0  0  0  0
 14 17  1  0  0  0  0
M  END
> <VConfSearch Rank>
799

> <Conf_Id>
7

> <Delta U+W>
-0.041

> <U+W>
-49.468

> <U>
14.121

> <W>
-63.589

> <W(PB)>
-65.660

> <W(SA)>
2.071

> <Valence>
15.230

> <Coulomb>
-1.333

> <VdW>
0.224

> <VdW6>
-4.212

> <VdW12>
4.436

> <Bond>
0.044

> <Angle>
2.230

> <Pdih>
12.956

> <Idih>
0.000

> <Tether>
0.000

$$$$
VeraChem MOL file


 17 16  0  0  0  0  0  0  0  0999 V2000     
   21.1436   17.9902   24.4920 C   0  0  0  0  0  0  0  0  0  0  0  0
   20.9086   16.8301   24.2163 O   0  5  0  0  0  0  0  0  0  0  0  0
   20.7892   18.5193   25.5271 O   0  0  0  0  0  0  0  0  0  0  0  0
   21.9509   18.8192   23.4977 C   0  0  0  0  0  0  0  0  0  0  0  0
   22.6489   18.1457   22.9869 H   0  0  0  0  0  0  0  0  0  0  0  0
   22.5713   19.5189   24.0697 H   0  0  0  0  0  0  0  0  0  0  0  0
   21.1351   19.5860   22.4665 C   0  0  0  0  0  0  0  0  0  0  0  0
   21.7308   20.1710   21.7669 H   0  0  0  0  0  0  0  0  0  0  0  0
   19.8008   19.5894   22.3634 C   0  0  0  0  0  0  0  0  0  0  0  0
   19.1819   19.0125   23.0495 H   0  0  0  0  0  0  0  0  0  0  0  0
   19.0368   20.3720   21.3185 C   0  0  0  0  0  0  0  0  0  0  0  0
   18.2186   20.9275   21.7965 H   0  0  0  0  0  0  0  0  0  0  0  0
   19.6885   21.1180   20.8431 H   0  0  0  0  0  0  0  0  0  0  0  0
   18.4600   19.4365   20.2382 C   0  0  0  0  0  0  0  0  0  0  0  0
   17.9056   20.0094   19.4835 H   0  0  0  0  0  0  0  0  0  0  0  0
   19.2631   18.8884   19.7281 H   0  0  0  0  0  0  0  0  0  0  0  0
   17.7737   18.7030   20.6814 H   0  0  0  0  0  0  0  0  0  0  0  0
  1  2  1  0  0  0  0
  1  3  2  0  0  0  0
  1  4  1  0  0  0  0
  4  5  1  0  0  0  0
  4  6  1  0  0  0  0
  4  7  1  0  0  0  0
  7  8  1  0  0  0  0
  7  9  2  0  0  0  0
  9 10  1  0  0  0  0
  9 11  1  0  0  0  0
 11 12  1  0  0  0  0
 11 13  1  0  0  0  0
 11 14  1  0  0  0  0
 14 15  1  0  0  0  0
 14 16  1  0  0  0  0
 14 17  1  0  0  0  0
M  END
> <VConfSearch Rank>
800

> <Conf_Id>
39

> <Delta U+W>
-0.422

> <U+W>
-49.849

> <U>
14.465

> <W>
-64.314

> <W(PB)>
-66.406

> <W(SA)>
2.093

> <Valence>
14.072

> <Coulomb>
-0.199

> <VdW>
0.592

> <VdW6>
-5.019

> <VdW12>
5.611

> <Bond>
0.085

> <Angle>
2.748

> <Pdih>
11.238

> <Idih>
0.001

> <Tether>
0.000

$$$$
VeraChem MOL file


 17 16  0  0  0  0  0  0  0  0999 V2000     
   17.1593   20.4134   22.2320 C   0  0  0  0  0  0  0  0  0  0  0  0
   17.0117   21.4753   22.8043 O   0  5  0  0  0  0  0  0  0  0  0  0
   16.3786   19.4866   22.3234 O   0  0  0  0  0  0  0  0  0  0  0  0
   18.3873   20.2388   21.3482 C   0  0  0  0  0  0  0  0  0  0  0  0
   18.5384   21.1737   20.7962 H   0  0  0  0  0  0  0  0  0  0  0  0
   18.1689   19.4605   20.6072 H   0  0  0  0  0  0  0  0  0  0  0  0
   19.6323   19.8973   22.1446 C   0  0  0  0  0  0  0  0  0  0  0  0
   20.0048   20.6929   22.7891 H   0  0  0  0  0  0  0  0  0  0  0  0
   20.2576   18.7173   22.0915 C   0  0  0  0  0  0  0  0  0  0  0  0
   19.8828   17.9212   21.4490 H   0  0  0  0  0  0  0  0  0  0  0  0
   21.4967   18.3773   22.8892 C   0  0  0  0  0  0  0  0  0  0  0  0
   21.6557   19.1166   23.6863 H   0  0  0  0  0  0  0  0  0  0  0  0
   21.3645   17.4050   23.3830 H   0  0  0  0  0  0  0  0  0  0  0  0
   22.7425   18.3282   21.9832 C   0  0  0  0  0  0  0  0  0  0  0  0
   22.9100   19.2987   21.4978 H   0  0  0  0  0  0  0  0  0  0  0  0
   23.6382   18.0804   22.5675 H   0  0  0  0  0  0  0  0  0  0  0  0
   22.6266   17.5688   21.1988 H   0  0  0  0  0  0  0  0  0  0  0  0
  1  2  1  0  0  0  0
  1  3  2  0  0  0  0
  1  4  1  0  0  0  0
  4  5  1  0  0  0  0
  4  6  1  0  0  0  0
  4  7  1  0  0  0  0
  7  8  1  0  0  0  0
  7  9  2  0  0  0  0
  9 10  1  0  0  0  0
  9 11  1  0  0  0  0
 11 12  1  0  0  0  0
 11 13  1  0  0  0  0
 11 14  1  0  0  0  0
 14 15  1  0  0  0  0
 14 16  1  0  0  0  0
 14 17  1  0  0  0  0
M  END
> <VConfSearch Rank>
801

> <Conf_Id>
38

> <Delta U+W>
0.000

> <U+W>
-49.427

> <U>
13.666

> <W>
-63.093

> <W(PB)>
-65.225

> <W(SA)>
2.132

> <Valence>
15.226

> <Coulomb>
-1.822

> <VdW>
0.261

> <VdW6>
-4.165

> <VdW12>
4.426

> <Bond>
0.044

> <Angle>
2.229

> <Pdih>
12.953

> <Idih>
0.000

> <Tether>
0.000

$$$$
VeraChem MOL file


 17 16  0  0  0  0  0  0  0  0999 V2000     
   17.7924   18.1137   20.2545 C   0  0  0  0  0  0  0  0  0  0  0  0
   18.2441   17.9031   19.1461 O   0  5  0  0  0  0  0  0  0  0  0  0
   16.6703   18.5356   20.4539 O   0  0  0  0  0  0  0  0  0  0  0  0
   18.6772   17.8288   21.4610 C   0  0  0  0  0  0  0  0  0  0  0  0
   19.4334   17.0916   21.1655 H   0  0  0  0  0  0  0  0  0  0  0  0
   18.0538   17.3579   22.2299 H   0  0  0  0  0  0  0  0  0  0  0  0
   19.3273   19.0828   22.0137 C   0  0  0  0  0  0  0  0  0  0  0  0
   18.6446   19.7960   22.4748 H   0  0  0  0  0  0  0  0  0  0  0  0
   20.6383   19.3363   21.9578 C   0  0  0  0  0  0  0  0  0  0  0  0
   21.3200   18.6242   21.4937 H   0  0  0  0  0  0  0  0  0  0  0  0
   21.2843   20.5892   22.5059 C   0  0  0  0  0  0  0  0  0  0  0  0
   21.9613   21.0166   21.7539 H   0  0  0  0  0  0  0  0  0  0  0  0
   20.5235   21.3536   22.7159 H   0  0  0  0  0  0  0  0  0  0  0  0
   22.0731   20.2871   23.7949 C   0  0  0  0  0  0  0  0  0  0  0  0
   22.8670   19.5528   23.6053 H   0  0  0  0  0  0  0  0  0  0  0  0
   22.5401   21.1998   24.1875 H   0  0  0  0  0  0  0  0  0  0  0  0
   21.4109   19.8821   24.5714 H   0  0  0  0  0  0  0  0  0  0  0  0
  1  2  1  0  0  0  0
  1  3  2  0  0  0  0
  1  4  1  0  0  0  0
  4  5  1  0  0  0  0
  4  6  1  0  0  0  0
  4  7  1  0  0  0  0
  7  8  1  0  0  0  0
  7  9  2  0  0  0  0
  9 10  1  0  0  0  0
  9 11  1  0  0  0  0
 11 12  1  0  0  0  0
 11 13  1  0  0  0  0
 11 14  1  0  0  0  0
 14 15  1  0  0  0  0
 14 16  1  0  0  0  0
 14 17  1  0  0  0  0
M  END
> <VConfSearch Rank>
802

> <Conf_Id>
35

> <Delta U+W>
-0.102

> <U+W>
-49.529

> <U>
13.666

> <W>
-63.195

> <W(PB)>
-65.299

> <W(SA)>
2.103

> <Valence>
15.226

> <Coulomb>
-1.822

> <VdW>
0.261

> <VdW6>
-4.165

> <VdW12>
4.426

> <Bond>
0.044

> <Angle>
2.229

> <Pdih>
12.953

> <Idih>
0.000

> <Tether>
0.000

$$$$
VeraChem MOL file


 17 16  0  0  0  0  0  0  0  0999 V2000     
   19.7896   22.0101   22.4129 C   0  0  0  0  0  0  0  0  0  0  0  0
   20.8143   22.5553   22.7728 O   0  5  0  0  0  0  0  0  0  0  0  0
   19.0925   22.4210   21.5062 O   0  0  0  0  0  0  0  0  0  0  0  0
   19.3519   20.7487   23.1457 C   0  0  0  0  0  0  0  0  0  0  0  0
   18.2681   20.6380   23.0206 H   0  0  0  0  0  0  0  0  0  0  0  0
   19.5370   20.9016   24.2152 H   0  0  0  0  0  0  0  0  0  0  0  0
   20.0859   19.5122   22.6620 C   0  0  0  0  0  0  0  0  0  0  0  0
   21.1477   19.4916   22.9010 H   0  0  0  0  0  0  0  0  0  0  0  0
   19.5026   18.5130   21.9880 C   0  0  0  0  0  0  0  0  0  0  0  0
   18.4381   18.5708   21.7632 H   0  0  0  0  0  0  0  0  0  0  0  0
   20.1754   17.2521   21.4722 C   0  0  0  0  0  0  0  0  0  0  0  0
   19.6659   16.3766   21.8970 H   0  0  0  0  0  0  0  0  0  0  0  0
   20.0219   17.1849   20.3867 H   0  0  0  0  0  0  0  0  0  0  0  0
   21.6870   17.1496   21.7733 C   0  0  0  0  0  0  0  0  0  0  0  0
   21.8748   17.1590   22.8550 H   0  0  0  0  0  0  0  0  0  0  0  0
   22.0974   16.2153   21.3691 H   0  0  0  0  0  0  0  0  0  0  0  0
   22.2368   17.9834   21.3172 H   0  0  0  0  0  0  0  0  0  0  0  0
  1  2  1  0  0  0  0
  1  3  2  0  0  0  0
  1  4  1  0  0  0  0
  4  5  1  0  0  0  0
  4  6  1  0  0  0  0
  4  7  1  0  0  0  0
  7  8  1  0  0  0  0
  7  9  2  0  0  0  0
  9 10  1  0  0  0  0
  9 11  1  0  0  0  0
 11 12  1  0  0  0  0
 11 13  1  0  0  0  0
 11 14  1  0  0  0  0
 14 15  1  0  0  0  0
 14 16  1  0  0  0  0
 14 17  1  0  0  0  0
M  END
> <VConfSearch Rank>
803

> <Conf_Id>
19

> <Delta U+W>
-0.496

> <U+W>
-49.923

> <U>
13.863

> <W>
-63.786

> <W(PB)>
-65.856

> <W(SA)>
2.070

> <Valence>
14.117

> <Coulomb>
-1.228

> <VdW>
0.974

> <VdW6>
-4.885

> <VdW12>
5.859

> <Bond>
0.094

> <Angle>
2.818

> <Pdih>
11.205

> <Idih>
0.000

> <Tether>
0.000

$$$$
VeraChem MOL file


 17 16  0  0  0  0  0  0  0  0999 V2000     
   18.2225   18.0413   20.2554 C   0  0  0  0  0  0  0  0  0  0  0  0
   17.9851   19.0279   19.5867 O   0  5  0  0  0  0  0  0  0  0  0  0
   18.4593   16.9483   19.7798 O   0  0  0  0  0  0  0  0  0  0  0  0
   18.2128   18.1772   21.7723 C   0  0  0  0  0  0  0  0  0  0  0  0
   17.7052   17.2972   22.1839 H   0  0  0  0  0  0  0  0  0  0  0  0
   17.6039   19.0508   22.0348 H   0  0  0  0  0  0  0  0  0  0  0  0
   19.6088   18.2930   22.3541 C   0  0  0  0  0  0  0  0  0  0  0  0
   20.2243   17.3980   22.2677 H   0  0  0  0  0  0  0  0  0  0  0  0
   20.0925   19.3965   22.9325 C   0  0  0  0  0  0  0  0  0  0  0  0
   19.4784   20.2927   23.0140 H   0  0  0  0  0  0  0  0  0  0  0  0
   21.4859   19.5107   23.5093 C   0  0  0  0  0  0  0  0  0  0  0  0
   21.4361   19.9479   24.5158 H   0  0  0  0  0  0  0  0  0  0  0  0
   21.9390   18.5159   23.6196 H   0  0  0  0  0  0  0  0  0  0  0  0
   22.3857   20.3842   22.6136 C   0  0  0  0  0  0  0  0  0  0  0  0
   21.9761   21.3983   22.5173 H   0  0  0  0  0  0  0  0  0  0  0  0
   23.3956   20.4634   23.0366 H   0  0  0  0  0  0  0  0  0  0  0  0
   22.4703   19.9527   21.6075 H   0  0  0  0  0  0  0  0  0  0  0  0
  1  2  1  0  0  0  0
  1  3  2  0  0  0  0
  1  4  1  0  0  0  0
  4  5  1  0  0  0  0
  4  6  1  0  0  0  0
  4  7  1  0  0  0  0
  7  8  1  0  0  0  0
  7  9  2  0  0  0  0
  9 10  1  0  0  0  0
  9 11  1  0  0  0  0
 11 12  1  0  0  0  0
 11 13  1  0  0  0  0
 11 14  1  0  0  0  0
 14 15  1  0  0  0  0
 14 16  1  0  0  0  0
 14 17  1  0  0  0  0
M  END
> <VConfSearch Rank>
804

> <Conf_Id>
7

> <Delta U+W>
-0.041

> <U+W>
-49.468

> <U>
14.121

> <W>
-63.589

> <W(PB)>
-65.660

> <W(SA)>
2.071

> <Valence>
15.230

> <Coulomb>
-1.333

> <VdW>
0.224

> <VdW6>
-4.212

> <VdW12>
4.436

> <Bond>
0.044

> <Angle>
2.230

> <Pdih>
12.956

> <Idih>
0.000

> <Tether>
0.000

$$$$
VeraChem MOL file


 17 16  0  0  0  0  0  0  0  0999 V2000     
   19.0435   17.7139   24.2704 C   0  0  0  0  0  0  0  0  0  0  0  0
   19.0271   18.5042   25.1935 O   0  5  0  0  0  0  0  0  0  0  0  0
   19.5664   16.6186   24.3336 O   0  0  0  0  0  0  0  0  0  0  0  0
   18.3463   18.1066   22.9715 C   0  0  0  0  0  0  0  0  0  0  0  0
   17.4959   18.7494   23.2273 H   0  0  0  0  0  0  0  0  0  0  0  0
   17.9164   17.1983   22.5333 H   0  0  0  0  0  0  0  0  0  0  0  0
   19.2219   18.8053   21.9409 C   0  0  0  0  0  0  0  0  0  0  0  0
   18.7045   19.0766   21.0215 H   0  0  0  0  0  0  0  0  0  0  0  0
   20.5205   19.0972   22.0802 C   0  0  0  0  0  0  0  0  0  0  0  0
   21.0612   18.8377   22.9897 H   0  0  0  0  0  0  0  0  0  0  0  0
   21.3475   19.7932   21.0222 C   0  0  0  0  0  0  0  0  0  0  0  0
   22.2901   19.2496   20.8718 H   0  0  0  0  0  0  0  0  0  0  0  0
   20.8226   19.7868   20.0570 H   0  0  0  0  0  0  0  0  0  0  0  0
   21.6529   21.2485   21.4268 C   0  0  0  0  0  0  0  0  0  0  0  0
   22.2543   21.7482   20.6563 H   0  0  0  0  0  0  0  0  0  0  0  0
   20.7243   21.8196   21.5581 H   0  0  0  0  0  0  0  0  0  0  0  0
   22.2119   21.2832   22.3712 H   0  0  0  0  0  0  0  0  0  0  0  0
  1  2  1  0  0  0  0
  1  3  2  0  0  0  0
  1  4  1  0  0  0  0
  4  5  1  0  0  0  0
  4  6  1  0  0  0  0
  4  7  1  0  0  0  0
  7  8  1  0  0  0  0
  7  9  2  0  0  0  0
  9 10  1  0  0  0  0
  9 11  1  0  0  0  0
 11 12  1  0  0  0  0
 11 13  1  0  0  0  0
 11 14  1  0  0  0  0
 14 15  1  0  0  0  0
 14 16  1  0  0  0  0
 14 17  1  0  0  0  0
M  END
> <VConfSearch Rank>
805

> <Conf_Id>
39

> <Delta U+W>
-0.422

> <U+W>
-49.849

> <U>
14.465

> <W>
-64.314

> <W(PB)>
-66.406

> <W(SA)>
2.093

> <Valence>
14.072

> <Coulomb>
-0.199

> <VdW>
0.592

> <VdW6>
-5.019

> <VdW12>
5.611

> <Bond>
0.085

> <Angle>
2.748

> <Pdih>
11.238

> <Idih>
0.001

> <Tether>
0.000

$$$$
VeraChem MOL file


 17 16  0  0  0  0  0  0  0  0999 V2000     
   23.2676   19.4366   22.2270 C   0  0  0  0  0  0  0  0  0  0  0  0
   23.8570   19.3468   21.1680 O   0  5  0  0  0  0  0  0  0  0  0  0
   23.6529   18.9185   23.2565 O   0  0  0  0  0  0  0  0  0  0  0  0
   21.9789   20.2474   22.2649 C   0  0  0  0  0  0  0  0  0  0  0  0
   22.1302   21.1456   21.6550 H   0  0  0  0  0  0  0  0  0  0  0  0
   21.8153   20.5836   23.2959 H   0  0  0  0  0  0  0  0  0  0  0  0
   20.7849   19.4649   21.7523 C   0  0  0  0  0  0  0  0  0  0  0  0
   20.8029   19.2335   20.6877 H   0  0  0  0  0  0  0  0  0  0  0  0
   19.7641   19.0657   22.5169 C   0  0  0  0  0  0  0  0  0  0  0  0
   19.7482   19.2948   23.5820 H   0  0  0  0  0  0  0  0  0  0  0  0
   18.5762   18.2822   22.0048 C   0  0  0  0  0  0  0  0  0  0  0  0
   18.7859   17.8750   21.0060 H   0  0  0  0  0  0  0  0  0  0  0  0
   18.3876   17.4227   22.6623 H   0  0  0  0  0  0  0  0  0  0  0  0
   17.3155   19.1663   21.9407 C   0  0  0  0  0  0  0  0  0  0  0  0
   17.4717   20.0198   21.2678 H   0  0  0  0  0  0  0  0  0  0  0  0
   16.4569   18.5922   21.5690 H   0  0  0  0  0  0  0  0  0  0  0  0
   17.0598   19.5566   22.9345 H   0  0  0  0  0  0  0  0  0  0  0  0
  1  2  1  0  0  0  0
  1  3  2  0  0  0  0
  1  4  1  0  0  0  0
  4  5  1  0  0  0  0
  4  6  1  0  0  0  0
  4  7  1  0  0  0  0
  7  8  1  0  0  0  0
  7  9  2  0  0  0  0
  9 10  1  0  0  0  0
  9 11  1  0  0  0  0
 11 12  1  0  0  0  0
 11 13  1  0  0  0  0
 11 14  1  0  0  0  0
 14 15  1  0  0  0  0
 14 16  1  0  0  0  0
 14 17  1  0  0  0  0
M  END
> <VConfSearch Rank>
806

> <Conf_Id>
38

> <Delta U+W>
0.000

> <U+W>
-49.427

> <U>
13.666

> <W>
-63.093

> <W(PB)>
-65.225

> <W(SA)>
2.132

> <Valence>
15.226

> <Coulomb>
-1.822

> <VdW>
0.261

> <VdW6>
-4.165

> <VdW12>
4.426

> <Bond>
0.044

> <Angle>
2.229

> <Pdih>
12.953

> <Idih>
0.000

> <Tether>
0.000

$$$$
VeraChem MOL file


 17 16  0  0  0  0  0  0  0  0999 V2000     
   22.1204   17.7706   24.0120 C   0  0  0  0  0  0  0  0  0  0  0  0
   22.6619   16.8765   23.3921 O   0  5  0  0  0  0  0  0  0  0  0  0
   21.8022   17.6804   25.1814 O   0  0  0  0  0  0  0  0  0  0  0  0
   21.8285   19.0779   23.2873 C   0  0  0  0  0  0  0  0  0  0  0  0
   22.5193   19.1620   22.4397 H   0  0  0  0  0  0  0  0  0  0  0  0
   22.0612   19.9004   23.9734 H   0  0  0  0  0  0  0  0  0  0  0  0
   20.3870   19.1769   22.8257 C   0  0  0  0  0  0  0  0  0  0  0  0
   19.6484   19.2617   23.6222 H   0  0  0  0  0  0  0  0  0  0  0  0
   20.0058   19.1622   21.5447 C   0  0  0  0  0  0  0  0  0  0  0  0
   20.7447   19.0742   20.7489 H   0  0  0  0  0  0  0  0  0  0  0  0
   18.5677   19.2570   21.0865 C   0  0  0  0  0  0  0  0  0  0  0  0
   18.3619   18.4719   20.3463 H   0  0  0  0  0  0  0  0  0  0  0  0
   17.8836   19.0834   21.9286 H   0  0  0  0  0  0  0  0  0  0  0  0
   18.2737   20.6371   20.4667 C   0  0  0  0  0  0  0  0  0  0  0  0
   18.9183   20.8214   19.5973 H   0  0  0  0  0  0  0  0  0  0  0  0
   17.2290   20.6996   20.1355 H   0  0  0  0  0  0  0  0  0  0  0  0
   18.4479   21.4378   21.1976 H   0  0  0  0  0  0  0  0  0  0  0  0
  1  2  1  0  0  0  0
  1  3  2  0  0  0  0
  1  4  1  0  0  0  0
  4  5  1  0  0  0  0
  4  6  1  0  0  0  0
  4  7  1  0  0  0  0
  7  8  1  0  0  0  0
  7  9  2  0  0  0  0
  9 10  1  0  0  0  0
  9 11  1  0  0  0  0
 11 12  1  0  0  0  0
 11 13  1  0  0  0  0
 11 14  1  0  0  0  0
 14 15  1  0  0  0  0
 14 16  1  0  0  0  0
 14 17  1  0  0  0  0
M  END
> <VConfSearch Rank>
807

> <Conf_Id>
35

> <Delta U+W>
-0.102

> <U+W>
-49.529

> <U>
13.666

> <W>
-63.195

> <W(PB)>
-65.299

> <W(SA)>
2.103

> <Valence>
15.226

> <Coulomb>
-1.822

> <VdW>
0.261

> <VdW6>
-4.165

> <VdW12>
4.426

> <Bond>
0.044

> <Angle>
2.229

> <Pdih>
12.953

> <Idih>
0.000

> <Tether>
0.000

$$$$
VeraChem MOL file


 17 16  0  0  0  0  0  0  0  0999 V2000     
   19.8417   17.9716   19.5035 C   0  0  0  0  0  0  0  0  0  0  0  0
   18.6558   17.8296   19.2787 O   0  5  0  0  0  0  0  0  0  0  0  0
   20.6235   18.4534   18.7075 O   0  0  0  0  0  0  0  0  0  0  0  0
   20.3769   17.5114   20.8531 C   0  0  0  0  0  0  0  0  0  0  0  0
   21.4479   17.3028   20.7442 H   0  0  0  0  0  0  0  0  0  0  0  0
   19.8889   16.5616   21.1004 H   0  0  0  0  0  0  0  0  0  0  0  0
   20.1280   18.5263   21.9529 C   0  0  0  0  0  0  0  0  0  0  0  0
   19.0809   18.6607   22.2185 H   0  0  0  0  0  0  0  0  0  0  0  0
   21.0973   19.2204   22.5623 C   0  0  0  0  0  0  0  0  0  0  0  0
   22.1339   19.0622   22.2664 H   0  0  0  0  0  0  0  0  0  0  0  0
   20.9199   20.2511   23.6644 C   0  0  0  0  0  0  0  0  0  0  0  0
   21.5050   19.9407   24.5407 H   0  0  0  0  0  0  0  0  0  0  0  0
   21.3611   21.2023   23.3371 H   0  0  0  0  0  0  0  0  0  0  0  0
   19.4578   20.4978   24.0974 C   0  0  0  0  0  0  0  0  0  0  0  0
   19.0003   19.5771   24.4826 H   0  0  0  0  0  0  0  0  0  0  0  0
   19.4142   21.2530   24.8929 H   0  0  0  0  0  0  0  0  0  0  0  0
   18.8538   20.8612   23.2556 H   0  0  0  0  0  0  0  0  0  0  0  0
  1  2  1  0  0  0  0
  1  3  2  0  0  0  0
  1  4  1  0  0  0  0
  4  5  1  0  0  0  0
  4  6  1  0  0  0  0
  4  7  1  0  0  0  0
  7  8  1  0  0  0  0
  7  9  2  0  0  0  0
  9 10  1  0  0  0  0
  9 11  1  0  0  0  0
 11 12  1  0  0  0  0
 11 13  1  0  0  0  0
 11 14  1  0  0  0  0
 14 15  1  0  0  0  0
 14 16  1  0  0  0  0
 14 17  1  0  0  0  0
M  END
> <VConfSearch Rank>
808

> <Conf_Id>
19

> <Delta U+W>
-0.496

> <U+W>
-49.923

> <U>
13.863

> <W>
-63.786

> <W(PB)>
-65.856

> <W(SA)>
2.070

> <Valence>
14.117

> <Coulomb>
-1.228

> <VdW>
0.974

> <VdW6>
-4.885

> <VdW12>
5.859

> <Bond>
0.094

> <Angle>
2.818

> <Pdih>
11.205

> <Idih>
0.000

> <Tether>
0.000

$$$$
VeraChem MOL file


 17 16  0  0  0  0  0  0  0  0999 V2000     
   20.4527   20.7436   19.8216 C   0  0  0  0  0  0  0  0  0  0  0  0
   19.6396   21.6241   20.0226 O   0  5  0  0  0  0  0  0  0  0  0  0
   21.5885   20.9516   19.4424 O   0  0  0  0  0  0  0  0  0  0  0  0
   20.0240   19.2994   20.0462 C   0  0  0  0  0  0  0  0  0  0  0  0
   20.4281   18.6987   19.2232 H   0  0  0  0  0  0  0  0  0  0  0  0
   18.9310   19.2505   19.9727 H   0  0  0  0  0  0  0  0  0  0  0  0
   20.5046   18.7510   21.3762 C   0  0  0  0  0  0  0  0  0  0  0  0
   21.5831   18.6237   21.4644 H   0  0  0  0  0  0  0  0  0  0  0  0
   19.6986   18.4407   22.3962 C   0  0  0  0  0  0  0  0  0  0  0  0
   18.6206   18.5731   22.3093 H   0  0  0  0  0  0  0  0  0  0  0  0
   20.1801   17.8968   23.7227 C   0  0  0  0  0  0  0  0  0  0  0  0
   19.5818   17.0193   24.0030 H   0  0  0  0  0  0  0  0  0  0  0  0
   21.2216   17.5561   23.6432 H   0  0  0  0  0  0  0  0  0  0  0  0
   20.0761   18.9644   24.8291 C   0  0  0  0  0  0  0  0  0  0  0  0
   19.0372   19.2957   24.9573 H   0  0  0  0  0  0  0  0  0  0  0  0
   20.4271   18.5646   25.7893 H   0  0  0  0  0  0  0  0  0  0  0  0
   20.6869   19.8427   24.5818 H   0  0  0  0  0  0  0  0  0  0  0  0
  1  2  1  0  0  0  0
  1  3  2  0  0  0  0
  1  4  1  0  0  0  0
  4  5  1  0  0  0  0
  4  6  1  0  0  0  0
  4  7  1  0  0  0  0
  7  8  1  0  0  0  0
  7  9  2  0  0  0  0
  9 10  1  0  0  0  0
  9 11  1  0  0  0  0
 11 12  1  0  0  0  0
 11 13  1  0  0  0  0
 11 14  1  0  0  0  0
 14 15  1  0  0  0  0
 14 16  1  0  0  0  0
 14 17  1  0  0  0  0
M  END
> <VConfSearch Rank>
809

> <Conf_Id>
7

> <Delta U+W>
-0.041

> <U+W>
-49.468

> <U>
14.121

> <W>
-63.589

> <W(PB)>
-65.660

> <W(SA)>
2.071

> <Valence>
15.230

> <Coulomb>
-1.333

> <VdW>
0.224

> <VdW6>
-4.212

> <VdW12>
4.436

> <Bond>
0.044

> <Angle>
2.230

> <Pdih>
12.956

> <Idih>
0.000

> <Tether>
0.000

$$$$
VeraChem MOL file


 17 16  0  0  0  0  0  0  0  0999 V2000     
   20.7086   17.0192   20.7785 C   0  0  0  0  0  0  0  0  0  0  0  0
   21.7110   17.3804   20.1938 O   0  5  0  0  0  0  0  0  0  0  0  0
   19.7264   16.5762   20.2163 O   0  0  0  0  0  0  0  0  0  0  0  0
   20.6929   17.1002   22.3019 C   0  0  0  0  0  0  0  0  0  0  0  0
   21.7164   16.9351   22.6581 H   0  0  0  0  0  0  0  0  0  0  0  0
   20.1034   16.2554   22.6769 H   0  0  0  0  0  0  0  0  0  0  0  0
   20.1528   18.3982   22.8853 C   0  0  0  0  0  0  0  0  0  0  0  0
   20.1504   18.4348   23.9740 H   0  0  0  0  0  0  0  0  0  0  0  0
   19.7044   19.4480   22.1870 C   0  0  0  0  0  0  0  0  0  0  0  0
   19.6969   19.4376   21.0977 H   0  0  0  0  0  0  0  0  0  0  0  0
   19.1753   20.7173   22.8170 C   0  0  0  0  0  0  0  0  0  0  0  0
   18.2205   20.9930   22.3492 H   0  0  0  0  0  0  0  0  0  0  0  0
   18.9693   20.5604   23.8848 H   0  0  0  0  0  0  0  0  0  0  0  0
   20.1794   21.8753   22.6562 C   0  0  0  0  0  0  0  0  0  0  0  0
   19.7898   22.7939   23.1139 H   0  0  0  0  0  0  0  0  0  0  0  0
   21.1350   21.6325   23.1393 H   0  0  0  0  0  0  0  0  0  0  0  0
   20.3749   22.0795   21.5953 H   0  0  0  0  0  0  0  0  0  0  0  0
  1  2  1  0  0  0  0
  1  3  2  0  0  0  0
  1  4  1  0  0  0  0
  4  5  1  0  0  0  0
  4  6  1  0  0  0  0
  4  7  1  0  0  0  0
  7  8  1  0  0  0  0
  7  9  2  0  0  0  0
  9 10  1  0  0  0  0
  9 11  1  0  0  0  0
 11 12  1  0  0  0  0
 11 13  1  0  0  0  0
 11 14  1  0  0  0  0
 14 15  1  0  0  0  0
 14 16  1  0  0  0  0
 14 17  1  0  0  0  0
M  END
> <VConfSearch Rank>
810

> <Conf_Id>
39

> <Delta U+W>
-0.422

> <U+W>
-49.849

> <U>
14.465

> <W>
-64.314

> <W(PB)>
-66.406

> <W(SA)>
2.093

> <Valence>
14.072

> <Coulomb>
-0.199

> <VdW>
0.592

> <VdW6>
-5.019

> <VdW12>
5.611

> <Bond>
0.085

> <Angle>
2.748

> <Pdih>
11.238

> <Idih>
0.001

> <Tether>
0.000

$$$$
VeraChem MOL file


 17 16  0  0  0  0  0  0  0  0999 V2000     
   20.9107   17.4165   24.5396 C   0  0  0  0  0  0  0  0  0  0  0  0
   21.8534   17.7821   25.2139 O   0  5  0  0  0  0  0  0  0  0  0  0
   20.7103   16.2566   24.2375 O   0  0  0  0  0  0  0  0  0  0  0  0
   19.9251   18.4704   24.0523 C   0  0  0  0  0  0  0  0  0  0  0  0
   19.7581   19.1777   24.8729 H   0  0  0  0  0  0  0  0  0  0  0  0
   18.9659   17.9773   23.8537 H   0  0  0  0  0  0  0  0  0  0  0  0
   20.4226   19.2068   22.8231 C   0  0  0  0  0  0  0  0  0  0  0  0
   21.2863   19.8511   22.9848 H   0  0  0  0  0  0  0  0  0  0  0  0
   19.8727   19.1001   21.6097 C   0  0  0  0  0  0  0  0  0  0  0  0
   19.0109   18.4533   21.4481 H   0  0  0  0  0  0  0  0  0  0  0  0
   20.3725   19.8322   20.3844 C   0  0  0  0  0  0  0  0  0  0  0  0
   21.3737   20.2469   20.5660 H   0  0  0  0  0  0  0  0  0  0  0  0
   20.4700   19.1288   19.5463 H   0  0  0  0  0  0  0  0  0  0  0  0
   19.4125   20.9715   19.9899 C   0  0  0  0  0  0  0  0  0  0  0  0
   19.3190   21.7020   20.8042 H   0  0  0  0  0  0  0  0  0  0  0  0
   19.7801   21.4986   19.0999 H   0  0  0  0  0  0  0  0  0  0  0  0
   18.4117   20.5801   19.7649 H   0  0  0  0  0  0  0  0  0  0  0  0
  1  2  1  0  0  0  0
  1  3  2  0  0  0  0
  1  4  1  0  0  0  0
  4  5  1  0  0  0  0
  4  6  1  0  0  0  0
  4  7  1  0  0  0  0
  7  8  1  0  0  0  0
  7  9  2  0  0  0  0
  9 10  1  0  0  0  0
  9 11  1  0  0  0  0
 11 12  1  0  0  0  0
 11 13  1  0  0  0  0
 11 14  1  0  0  0  0
 14 15  1  0  0  0  0
 14 16  1  0  0  0  0
 14 17  1  0  0  0  0
M  END
> <VConfSearch Rank>
811

> <Conf_Id>
38

> <Delta U+W>
0.000

> <U+W>
-49.427

> <U>
13.666

> <W>
-63.093

> <W(PB)>
-65.225

> <W(SA)>
2.132

> <Valence>
15.226

> <Coulomb>
-1.822

> <VdW>
0.261

> <VdW6>
-4.165

> <VdW12>
4.426

> <Bond>
0.044

> <Angle>
2.229

> <Pdih>
12.953

> <Idih>
0.000

> <Tether>
0.000

$$$$
VeraChem MOL file


 17 16  0  0  0  0  0  0  0  0999 V2000     
   17.1421   19.2412   20.9434 C   0  0  0  0  0  0  0  0  0  0  0  0
   16.6070   18.1913   21.2404 O   0  5  0  0  0  0  0  0  0  0  0  0
   16.9732   19.8042   19.8797 O   0  0  0  0  0  0  0  0  0  0  0  0
   18.0710   19.8913   21.9603 C   0  0  0  0  0  0  0  0  0  0  0  0
   17.7950   19.5290   22.9579 H   0  0  0  0  0  0  0  0  0  0  0  0
   17.8795   20.9705   21.9469 H   0  0  0  0  0  0  0  0  0  0  0  0
   19.5342   19.6183   21.6683 C   0  0  0  0  0  0  0  0  0  0  0  0
   19.9237   20.0879   20.7655 H   0  0  0  0  0  0  0  0  0  0  0  0
   20.3243   18.8602   22.4346 C   0  0  0  0  0  0  0  0  0  0  0  0
   19.9333   18.3883   23.3354 H   0  0  0  0  0  0  0  0  0  0  0  0
   21.7820   18.5858   22.1397 C   0  0  0  0  0  0  0  0  0  0  0  0
   21.9809   17.5088   22.2237 H   0  0  0  0  0  0  0  0  0  0  0  0
   22.0258   18.8718   21.1072 H   0  0  0  0  0  0  0  0  0  0  0  0
   22.6980   19.3547   23.1117 C   0  0  0  0  0  0  0  0  0  0  0  0
   22.5020   19.0596   24.1509 H   0  0  0  0  0  0  0  0  0  0  0  0
   23.7544   19.1511   22.8932 H   0  0  0  0  0  0  0  0  0  0  0  0
   22.5351   20.4373   23.0270 H   0  0  0  0  0  0  0  0  0  0  0  0
  1  2  1  0  0  0  0
  1  3  2  0  0  0  0
  1  4  1  0  0  0  0
  4  5  1  0  0  0  0
  4  6  1  0  0  0  0
  4  7  1  0  0  0  0
  7  8  1  0  0  0  0
  7  9  2  0  0  0  0
  9 10  1  0  0  0  0
  9 11  1  0  0  0  0
 11 12  1  0  0  0  0
 11 13  1  0  0  0  0
 11 14  1  0  0  0  0
 14 15  1  0  0  0  0
 14 16  1  0  0  0  0
 14 17  1  0  0  0  0
M  END
> <VConfSearch Rank>
812

> <Conf_Id>
35

> <Delta U+W>
-0.102

> <U+W>
-49.529

> <U>
13.666

> <W>
-63.195

> <W(PB)>
-65.299

> <W(SA)>
2.103

> <Valence>
15.226

> <Coulomb>
-1.822

> <VdW>
0.261

> <VdW6>
-4.165

> <VdW12>
4.426

> <Bond>
0.044

> <Angle>
2.229

> <Pdih>
12.953

> <Idih>
0.000

> <Tether>
0.000

$$$$
VeraChem MOL file


 17 16  0  0  0  0  0  0  0  0999 V2000     
   20.2553   17.8748   24.8879 C   0  0  0  0  0  0  0  0  0  0  0  0
   19.2565   18.1967   25.5008 O   0  5  0  0  0  0  0  0  0  0  0  0
   20.6845   16.7384   24.8517 O   0  0  0  0  0  0  0  0  0  0  0  0
   21.0144   18.9578   24.1324 C   0  0  0  0  0  0  0  0  0  0  0  0
   22.0541   18.6295   24.0152 H   0  0  0  0  0  0  0  0  0  0  0  0
   21.0307   19.8555   24.7611 H   0  0  0  0  0  0  0  0  0  0  0  0
   20.3878   19.2752   22.7878 C   0  0  0  0  0  0  0  0  0  0  0  0
   19.4119   19.7544   22.8431 H   0  0  0  0  0  0  0  0  0  0  0  0
   20.9622   18.9954   21.6111 C   0  0  0  0  0  0  0  0  0  0  0  0
   21.9381   18.5112   21.5953 H   0  0  0  0  0  0  0  0  0  0  0  0
   20.3919   19.2810   20.2321 C   0  0  0  0  0  0  0  0  0  0  0  0
   21.1008   19.9093   19.6760 H   0  0  0  0  0  0  0  0  0  0  0  0
   20.3291   18.3391   19.6705 H   0  0  0  0  0  0  0  0  0  0  0  0
   19.0055   19.9620   20.2280 C   0  0  0  0  0  0  0  0  0  0  0  0
   19.0429   20.9349   20.7354 H   0  0  0  0  0  0  0  0  0  0  0  0
   18.6636   20.1327   19.1989 H   0  0  0  0  0  0  0  0  0  0  0  0
   18.2574   19.3353   20.7311 H   0  0  0  0  0  0  0  0  0  0  0  0
  1  2  1  0  0  0  0
  1  3  2  0  0  0  0
  1  4  1  0  0  0  0
  4  5  1  0  0  0  0
  4  6  1  0  0  0  0
  4  7  1  0  0  0  0
  7  8  1  0  0  0  0
  7  9  2  0  0  0  0
  9 10  1  0  0  0  0
  9 11  1  0  0  0  0
 11 12  1  0  0  0  0
 11 13  1  0  0  0  0
 11 14  1  0  0  0  0
 14 15  1  0  0  0  0
 14 16  1  0  0  0  0
 14 17  1  0  0  0  0
M  END
> <VConfSearch Rank>
813

> <Conf_Id>
19

> <Delta U+W>
-0.496

> <U+W>
-49.923

> <U>
13.863

> <W>
-63.786

> <W(PB)>
-65.856

> <W(SA)>
2.070

> <Valence>
14.117

> <Coulomb>
-1.228

> <VdW>
0.974

> <VdW6>
-4.885

> <VdW12>
5.859

> <Bond>
0.094

> <Angle>
2.818

> <Pdih>
11.205

> <Idih>
0.000

> <Tether>
0.000

$$$$
VeraChem MOL file


 17 16  0  0  0  0  0  0  0  0999 V2000     
   18.2666   17.1629   21.0171 C   0  0  0  0  0  0  0  0  0  0  0  0
   18.4915   16.1465   21.6441 O   0  5  0  0  0  0  0  0  0  0  0  0
   17.1475   17.5804   20.7928 O   0  0  0  0  0  0  0  0  0  0  0  0
   19.4498   17.9525   20.4724 C   0  0  0  0  0  0  0  0  0  0  0  0
   19.1968   18.2760   19.4561 H   0  0  0  0  0  0  0  0  0  0  0  0
   20.3066   17.2731   20.3891 H   0  0  0  0  0  0  0  0  0  0  0  0
   19.7908   19.1548   21.3320 C   0  0  0  0  0  0  0  0  0  0  0  0
   19.0449   19.9490   21.3378 H   0  0  0  0  0  0  0  0  0  0  0  0
   20.9104   19.2695   22.0528 C   0  0  0  0  0  0  0  0  0  0  0  0
   21.6536   18.4729   22.0508 H   0  0  0  0  0  0  0  0  0  0  0  0
   21.2472   20.4680   22.9117 C   0  0  0  0  0  0  0  0  0  0  0  0
   22.2756   20.7947   22.7058 H   0  0  0  0  0  0  0  0  0  0  0  0
   20.5919   21.3145   22.6643 H   0  0  0  0  0  0  0  0  0  0  0  0
   21.1044   20.1333   24.4092 C   0  0  0  0  0  0  0  0  0  0  0  0
   21.7781   19.3143   24.6935 H   0  0  0  0  0  0  0  0  0  0  0  0
   21.3495   21.0065   25.0277 H   0  0  0  0  0  0  0  0  0  0  0  0
   20.0763   19.8272   24.6437 H   0  0  0  0  0  0  0  0  0  0  0  0
  1  2  1  0  0  0  0
  1  3  2  0  0  0  0
  1  4  1  0  0  0  0
  4  5  1  0  0  0  0
  4  6  1  0  0  0  0
  4  7  1  0  0  0  0
  7  8  1  0  0  0  0
  7  9  2  0  0  0  0
  9 10  1  0  0  0  0
  9 11  1  0  0  0  0
 11 12  1  0  0  0  0
 11 13  1  0  0  0  0
 11 14  1  0  0  0  0
 14 15  1  0  0  0  0
 14 16  1  0  0  0  0
 14 17  1  0  0  0  0
M  END
> <VConfSearch Rank>
814

> <Conf_Id>
7

> <Delta U+W>
-0.041

> <U+W>
-49.468

> <U>
14.121

> <W>
-63.589

> <W(PB)>
-65.660

> <W(SA)>
2.071

> <Valence>
15.230

> <Coulomb>
-1.333

> <VdW>
0.224

> <VdW6>
-4.212

> <VdW12>
4.436

> <Bond>
0.044

> <Angle>
2.230

> <Pdih>
12.956

> <Idih>
0.000

> <Tether>
0.000

$$$$
VeraChem MOL file


 17 16  0  0  0  0  0  0  0  0999 V2000     
   20.4153   16.7001   23.2288 C   0  0  0  0  0  0  0  0  0  0  0  0
   20.8402   16.1310   22.2426 O   0  5  0  0  0  0  0  0  0  0  0  0
   19.4365   16.3308   23.8474 O   0  0  0  0  0  0  0  0  0  0  0  0
   21.1670   17.9278   23.7338 C   0  0  0  0  0  0  0  0  0  0  0  0
   22.2297   17.7902   23.5023 H   0  0  0  0  0  0  0  0  0  0  0  0
   21.0958   17.9387   24.8276 H   0  0  0  0  0  0  0  0  0  0  0  0
   20.6928   19.2632   23.1782 C   0  0  0  0  0  0  0  0  0  0  0  0
   21.2427   20.1262   23.5517 H   0  0  0  0  0  0  0  0  0  0  0  0
   19.6962   19.4419   22.3030 C   0  0  0  0  0  0  0  0  0  0  0  0
   19.1311   18.5960   21.9133 H   0  0  0  0  0  0  0  0  0  0  0  0
   19.2623   20.7941   21.7822 C   0  0  0  0  0  0  0  0  0  0  0  0
   18.1698   20.8845   21.8514 H   0  0  0  0  0  0  0  0  0  0  0  0
   19.6848   21.5985   22.4000 H   0  0  0  0  0  0  0  0  0  0  0  0
   19.7023   20.9907   20.3184 C   0  0  0  0  0  0  0  0  0  0  0  0
   19.3837   21.9727   19.9453 H   0  0  0  0  0  0  0  0  0  0  0  0
   20.7949   20.9298   20.2283 H   0  0  0  0  0  0  0  0  0  0  0  0
   19.2625   20.2209   19.6707 H   0  0  0  0  0  0  0  0  0  0  0  0
  1  2  1  0  0  0  0
  1  3  2  0  0  0  0
  1  4  1  0  0  0  0
  4  5  1  0  0  0  0
  4  6  1  0  0  0  0
  4  7  1  0  0  0  0
  7  8  1  0  0  0  0
  7  9  2  0  0  0  0
  9 10  1  0  0  0  0
  9 11  1  0  0  0  0
 11 12  1  0  0  0  0
 11 13  1  0  0  0  0
 11 14  1  0  0  0  0
 14 15  1  0  0  0  0
 14 16  1  0  0  0  0
 14 17  1  0  0  0  0
M  END
> <VConfSearch Rank>
815

> <Conf_Id>
39

> <Delta U+W>
-0.422

> <U+W>
-49.849

> <U>
14.465

> <W>
-64.314

> <W(PB)>
-66.406

> <W(SA)>
2.093

> <Valence>
14.072

> <Coulomb>
-0.199

> <VdW>
0.592

> <VdW6>
-5.019

> <VdW12>
5.611

> <Bond>
0.085

> <Angle>
2.748

> <Pdih>
11.238

> <Idih>
0.001

> <Tether>
0.000

$$$$
VeraChem MOL file


 17 16  0  0  0  0  0  0  0  0999 V2000     
   20.6841   17.8795   24.8879 C   0  0  0  0  0  0  0  0  0  0  0  0
   20.8860   18.6165   25.8330 O   0  5  0  0  0  0  0  0  0  0  0  0
   21.2984   16.8486   24.6966 O   0  0  0  0  0  0  0  0  0  0  0  0
   19.5980   18.2682   23.8935 C   0  0  0  0  0  0  0  0  0  0  0  0
   18.7469   18.6592   24.4630 H   0  0  0  0  0  0  0  0  0  0  0  0
   19.2544   17.3580   23.3875 H   0  0  0  0  0  0  0  0  0  0  0  0
   20.0723   19.3021   22.8901 C   0  0  0  0  0  0  0  0  0  0  0  0
   20.2795   20.2893   23.3021 H   0  0  0  0  0  0  0  0  0  0  0  0
   20.2401   19.0615   21.5862 C   0  0  0  0  0  0  0  0  0  0  0  0
   20.0355   18.0734   21.1753 H   0  0  0  0  0  0  0  0  0  0  0  0
   20.7167   20.0926   20.5877 C   0  0  0  0  0  0  0  0  0  0  0  0
   21.1406   20.9632   21.1069 H   0  0  0  0  0  0  0  0  0  0  0  0
   21.5226   19.6689   19.9732 H   0  0  0  0  0  0  0  0  0  0  0  0
   19.5637   20.5545   19.6754 C   0  0  0  0  0  0  0  0  0  0  0  0
   18.7558   21.0059   20.2663 H   0  0  0  0  0  0  0  0  0  0  0  0
   19.9157   21.3021   18.9527 H   0  0  0  0  0  0  0  0  0  0  0  0
   19.1454   19.7087   19.1141 H   0  0  0  0  0  0  0  0  0  0  0  0
  1  2  1  0  0  0  0
  1  3  2  0  0  0  0
  1  4  1  0  0  0  0
  4  5  1  0  0  0  0
  4  6  1  0  0  0  0
  4  7  1  0  0  0  0
  7  8  1  0  0  0  0
  7  9  2  0  0  0  0
  9 10  1  0  0  0  0
  9 11  1  0  0  0  0
 11 12  1  0  0  0  0
 11 13  1  0  0  0  0
 11 14  1  0  0  0  0
 14 15  1  0  0  0  0
 14 16  1  0  0  0  0
 14 17  1  0  0  0  0
M  END
> <VConfSearch Rank>
816

> <Conf_Id>
38

> <Delta U+W>
0.000

> <U+W>
-49.427

> <U>
13.666

> <W>
-63.093

> <W(PB)>
-65.225

> <W(SA)>
2.132

> <Valence>
15.226

> <Coulomb>
-1.822

> <VdW>
0.261

> <VdW6>
-4.165

> <VdW12>
4.426

> <Bond>
0.044

> <Angle>
2.229

> <Pdih>
12.953

> <Idih>
0.000

> <Tether>
0.000

$$$$
VeraChem MOL file


 17 16  0  0  0  0  0  0  0  0999 V2000     
   18.8447   16.3730   22.4158 C   0  0  0  0  0  0  0  0  0  0  0  0
   18.8964   15.8012   21.3447 O   0  5  0  0  0  0  0  0  0  0  0  0
   17.9176   16.2606   23.1935 O   0  0  0  0  0  0  0  0  0  0  0  0
   20.0065   17.2758   22.8093 C   0  0  0  0  0  0  0  0  0  0  0  0
   20.8959   16.9514   22.2558 H   0  0  0  0  0  0  0  0  0  0  0  0
   20.2131   17.1112   23.8731 H   0  0  0  0  0  0  0  0  0  0  0  0
   19.7138   18.7425   22.5565 C   0  0  0  0  0  0  0  0  0  0  0  0
   18.9435   19.1792   23.1914 H   0  0  0  0  0  0  0  0  0  0  0  0
   20.3306   19.4827   21.6303 C   0  0  0  0  0  0  0  0  0  0  0  0
   21.0986   19.0446   20.9936 H   0  0  0  0  0  0  0  0  0  0  0  0
   20.0348   20.9441   21.3769 C   0  0  0  0  0  0  0  0  0  0  0  0
   19.8978   21.1133   20.3003 H   0  0  0  0  0  0  0  0  0  0  0  0
   19.0942   21.2359   21.8641 H   0  0  0  0  0  0  0  0  0  0  0  0
   21.1771   21.8386   21.8964 C   0  0  0  0  0  0  0  0  0  0  0  0
   22.1240   21.5940   21.3974 H   0  0  0  0  0  0  0  0  0  0  0  0
   20.9571   22.8976   21.7091 H   0  0  0  0  0  0  0  0  0  0  0  0
   21.3158   21.7054   22.9774 H   0  0  0  0  0  0  0  0  0  0  0  0
  1  2  1  0  0  0  0
  1  3  2  0  0  0  0
  1  4  1  0  0  0  0
  4  5  1  0  0  0  0
  4  6  1  0  0  0  0
  4  7  1  0  0  0  0
  7  8  1  0  0  0  0
  7  9  2  0  0  0  0
  9 10  1  0  0  0  0
  9 11  1  0  0  0  0
 11 12  1  0  0  0  0
 11 13  1  0  0  0  0
 11 14  1  0  0  0  0
 14 15  1  0  0  0  0
 14 16  1  0  0  0  0
 14 17  1  0  0  0  0
M  END
> <VConfSearch Rank>
817

> <Conf_Id>
35

> <Delta U+W>
-0.102

> <U+W>
-49.529

> <U>
13.666

> <W>
-63.195

> <W(PB)>
-65.299

> <W(SA)>
2.103

> <Valence>
15.226

> <Coulomb>
-1.822

> <VdW>
0.261

> <VdW6>
-4.165

> <VdW12>
4.426

> <Bond>
0.044

> <Angle>
2.229

> <Pdih>
12.953

> <Idih>
0.000

> <Tether>
0.000

$$$$
VeraChem MOL file


 17 16  0  0  0  0  0  0  0  0999 V2000     
   21.9705   18.6260   24.5332 C   0  0  0  0  0  0  0  0  0  0  0  0
   23.1349   18.6380   24.1852 O   0  5  0  0  0  0  0  0  0  0  0  0
   21.5583   19.2019   25.5208 O   0  0  0  0  0  0  0  0  0  0  0  0
   20.9771   17.8380   23.6894 C   0  0  0  0  0  0  0  0  0  0  0  0
   20.1255   17.5678   24.3254 H   0  0  0  0  0  0  0  0  0  0  0  0
   21.4619   16.9020   23.3886 H   0  0  0  0  0  0  0  0  0  0  0  0
   20.5202   18.6051   22.4630 C   0  0  0  0  0  0  0  0  0  0  0  0
   21.2935   18.7668   21.7141 H   0  0  0  0  0  0  0  0  0  0  0  0
   19.2743   19.0641   22.2902 C   0  0  0  0  0  0  0  0  0  0  0  0
   18.5280   18.8868   23.0639 H   0  0  0  0  0  0  0  0  0  0  0  0
   18.7509   19.8401   21.0934 C   0  0  0  0  0  0  0  0  0  0  0  0
   17.9000   19.2969   20.6604 H   0  0  0  0  0  0  0  0  0  0  0  0
   18.3428   20.7988   21.4411 H   0  0  0  0  0  0  0  0  0  0  0  0
   19.7923   20.1096   19.9848 C   0  0  0  0  0  0  0  0  0  0  0  0
   20.1833   19.1694   19.5745 H   0  0  0  0  0  0  0  0  0  0  0  0
   19.3386   20.6734   19.1594 H   0  0  0  0  0  0  0  0  0  0  0  0
   20.6349   20.6983   20.3708 H   0  0  0  0  0  0  0  0  0  0  0  0
  1  2  1  0  0  0  0
  1  3  2  0  0  0  0
  1  4  1  0  0  0  0
  4  5  1  0  0  0  0
  4  6  1  0  0  0  0
  4  7  1  0  0  0  0
  7  8  1  0  0  0  0
  7  9  2  0  0  0  0
  9 10  1  0  0  0  0
  9 11  1  0  0  0  0
 11 12  1  0  0  0  0
 11 13  1  0  0  0  0
 11 14  1  0  0  0  0
 14 15  1  0  0  0  0
 14 16  1  0  0  0  0
 14 17  1  0  0  0  0
M  END
> <VConfSearch Rank>
818

> <Conf_Id>
19

> <Delta U+W>
-0.496

> <U+W>
-49.923

> <U>
13.863

> <W>
-63.786

> <W(PB)>
-65.856

> <W(SA)>
2.070

> <Valence>
14.117

> <Coulomb>
-1.228

> <VdW>
0.974

> <VdW6>
-4.885

> <VdW12>
5.859

> <Bond>
0.094

> <Angle>
2.818

> <Pdih>
11.205

> <Idih>
0.000

> <Tether>
0.000

$$$$
VeraChem MOL file


 17 16  0  0  0  0  0  0  0  0999 V2000     
   18.3595   20.6103   20.4808 C   0  0  0  0  0  0  0  0  0  0  0  0
   19.0844   21.5022   20.0861 O   0  5  0  0  0  0  0  0  0  0  0  0
   17.6244   19.9707   19.7545 O   0  0  0  0  0  0  0  0  0  0  0  0
   18.3626   20.2816   21.9680 C   0  0  0  0  0  0  0  0  0  0  0  0
   17.3239   20.1154   22.2762 H   0  0  0  0  0  0  0  0  0  0  0  0
   18.7222   21.1625   22.5134 H   0  0  0  0  0  0  0  0  0  0  0  0
   19.2036   19.0613   22.2914 C   0  0  0  0  0  0  0  0  0  0  0  0
   18.8181   18.1165   21.9094 H   0  0  0  0  0  0  0  0  0  0  0  0
   20.3455   19.0983   22.9848 C   0  0  0  0  0  0  0  0  0  0  0  0
   20.7331   20.0440   23.3620 H   0  0  0  0  0  0  0  0  0  0  0  0
   21.1841   17.8807   23.3036 C   0  0  0  0  0  0  0  0  0  0  0  0
   21.4477   17.8806   24.3699 H   0  0  0  0  0  0  0  0  0  0  0  0
   20.6116   16.9610   23.1202 H   0  0  0  0  0  0  0  0  0  0  0  0
   22.4710   17.8577   22.4561 C   0  0  0  0  0  0  0  0  0  0  0  0
   23.0828   18.7487   22.6488 H   0  0  0  0  0  0  0  0  0  0  0  0
   23.0754   16.9720   22.6911 H   0  0  0  0  0  0  0  0  0  0  0  0
   22.2316   17.8326   21.3847 H   0  0  0  0  0  0  0  0  0  0  0  0
  1  2  1  0  0  0  0
  1  3  2  0  0  0  0
  1  4  1  0  0  0  0
  4  5  1  0  0  0  0
  4  6  1  0  0  0  0
  4  7  1  0  0  0  0
  7  8  1  0  0  0  0
  7  9  2  0  0  0  0
  9 10  1  0  0  0  0
  9 11  1  0  0  0  0
 11 12  1  0  0  0  0
 11 13  1  0  0  0  0
 11 14  1  0  0  0  0
 14 15  1  0  0  0  0
 14 16  1  0  0  0  0
 14 17  1  0  0  0  0
M  END
> <VConfSearch Rank>
819

> <Conf_Id>
7

> <Delta U+W>
-0.041

> <U+W>
-49.468

> <U>
14.121

> <W>
-63.589

> <W(PB)>
-65.660

> <W(SA)>
2.071

> <Valence>
15.230

> <Coulomb>
-1.333

> <VdW>
0.224

> <VdW6>
-4.212

> <VdW12>
4.436

> <Bond>
0.044

> <Angle>
2.230

> <Pdih>
12.956

> <Idih>
0.000

> <Tether>
0.000

$$$$
VeraChem MOL file


 17 16  0  0  0  0  0  0  0  0999 V2000     
   20.9444   19.8208   24.8475 C   0  0  0  0  0  0  0  0  0  0  0  0
   20.0394   19.3204   25.4858 O   0  5  0  0  0  0  0  0  0  0  0  0
   21.3013   20.9750   24.9803 O   0  0  0  0  0  0  0  0  0  0  0  0
   21.6911   18.9456   23.8454 C   0  0  0  0  0  0  0  0  0  0  0  0
   21.6928   17.9194   24.2311 H   0  0  0  0  0  0  0  0  0  0  0  0
   22.7394   19.2657   23.8358 H   0  0  0  0  0  0  0  0  0  0  0  0
   21.1413   18.9561   22.4261 C   0  0  0  0  0  0  0  0  0  0  0  0
   21.6888   18.3249   21.7273 H   0  0  0  0  0  0  0  0  0  0  0  0
   20.0812   19.6520   21.9983 C   0  0  0  0  0  0  0  0  0  0  0  0
   19.5157   20.2899   22.6765 H   0  0  0  0  0  0  0  0  0  0  0  0
   19.5754   19.6287   20.5729 C   0  0  0  0  0  0  0  0  0  0  0  0
   19.4059   20.6560   20.2232 H   0  0  0  0  0  0  0  0  0  0  0  0
   20.3279   19.1884   19.9043 H   0  0  0  0  0  0  0  0  0  0  0  0
   18.2644   18.8260   20.4639 C   0  0  0  0  0  0  0  0  0  0  0  0
   17.9012   18.8136   19.4280 H   0  0  0  0  0  0  0  0  0  0  0  0
   18.4158   17.7869   20.7846 H   0  0  0  0  0  0  0  0  0  0  0  0
   17.4814   19.2676   21.0943 H   0  0  0  0  0  0  0  0  0  0  0  0
  1  2  1  0  0  0  0
  1  3  2  0  0  0  0
  1  4  1  0  0  0  0
  4  5  1  0  0  0  0
  4  6  1  0  0  0  0
  4  7  1  0  0  0  0
  7  8  1  0  0  0  0
  7  9  2  0  0  0  0
  9 10  1  0  0  0  0
  9 11  1  0  0  0  0
 11 12  1  0  0  0  0
 11 13  1  0  0  0  0
 11 14  1  0  0  0  0
 14 15  1  0  0  0  0
 14 16  1  0  0  0  0
 14 17  1  0  0  0  0
M  END
> <VConfSearch Rank>
820

> <Conf_Id>
39

> <Delta U+W>
-0.422

> <U+W>
-49.849

> <U>
14.465

> <W>
-64.314

> <W(PB)>
-66.406

> <W(SA)>
2.093

> <Valence>
14.072

> <Coulomb>
-0.199

> <VdW>
0.592

> <VdW6>
-5.019

> <VdW12>
5.611

> <Bond>
0.085

> <Angle>
2.748

> <Pdih>
11.238

> <Idih>
0.001

> <Tether>
0.000

$$$$
VeraChem MOL file


 17 16  0  0  0  0  0  0  0  0999 V2000     
   17.2624   20.1565   21.0408 C   0  0  0  0  0  0  0  0  0  0  0  0
   16.3042   19.8146   21.7055 O   0  5  0  0  0  0  0  0  0  0  0  0
   17.2734   20.1515   19.8256 O   0  0  0  0  0  0  0  0  0  0  0  0
   18.5147   20.6214   21.7724 C   0  0  0  0  0  0  0  0  0  0  0  0
   18.1974   21.2417   22.6186 H   0  0  0  0  0  0  0  0  0  0  0  0
   19.0864   21.2688   21.0967 H   0  0  0  0  0  0  0  0  0  0  0  0
   19.3633   19.4644   22.2642 C   0  0  0  0  0  0  0  0  0  0  0  0
   18.9193   18.8674   23.0603 H   0  0  0  0  0  0  0  0  0  0  0  0
   20.5725   19.1617   21.7821 C   0  0  0  0  0  0  0  0  0  0  0  0
   21.0146   19.7572   20.9840 H   0  0  0  0  0  0  0  0  0  0  0  0
   21.4157   18.0053   22.2711 C   0  0  0  0  0  0  0  0  0  0  0  0
   20.8094   17.3157   22.8745 H   0  0  0  0  0  0  0  0  0  0  0  0
   21.7881   17.4293   21.4132 H   0  0  0  0  0  0  0  0  0  0  0  0
   22.6074   18.5049   23.1108 C   0  0  0  0  0  0  0  0  0  0  0  0
   22.2583   19.0628   23.9898 H   0  0  0  0  0  0  0  0  0  0  0  0
   23.2158   17.6615   23.4623 H   0  0  0  0  0  0  0  0  0  0  0  0
   23.2529   19.1674   22.5194 H   0  0  0  0  0  0  0  0  0  0  0  0
  1  2  1  0  0  0  0
  1  3  2  0  0  0  0
  1  4  1  0  0  0  0
  4  5  1  0  0  0  0
  4  6  1  0  0  0  0
  4  7  1  0  0  0  0
  7  8  1  0  0  0  0
  7  9  2  0  0  0  0
  9 10  1  0  0  0  0
  9 11  1  0  0  0  0
 11 12  1  0  0  0  0
 11 13  1  0  0  0  0
 11 14  1  0  0  0  0
 14 15  1  0  0  0  0
 14 16  1  0  0  0  0
 14 17  1  0  0  0  0
M  END
> <VConfSearch Rank>
821

> <Conf_Id>
38

> <Delta U+W>
0.000

> <U+W>
-49.427

> <U>
13.666

> <W>
-63.093

> <W(PB)>
-65.225

> <W(SA)>
2.132

> <Valence>
15.226

> <Coulomb>
-1.822

> <VdW>
0.261

> <VdW6>
-4.165

> <VdW12>
4.426

> <Bond>
0.044

> <Angle>
2.229

> <Pdih>
12.953

> <Idih>
0.000

> <Tether>
0.000

$$$$
VeraChem MOL file


 17 16  0  0  0  0  0  0  0  0999 V2000     
   23.2169   19.6550   21.8523 C   0  0  0  0  0  0  0  0  0  0  0  0
   23.4856   20.8304   22.0037 O   0  5  0  0  0  0  0  0  0  0  0  0
   23.7915   18.9305   21.0636 O   0  0  0  0  0  0  0  0  0  0  0  0
   22.1035   19.0536   22.6998 C   0  0  0  0  0  0  0  0  0  0  0  0
   21.9935   19.6635   23.6046 H   0  0  0  0  0  0  0  0  0  0  0  0
   22.4286   18.0576   23.0220 H   0  0  0  0  0  0  0  0  0  0  0  0
   20.7899   18.9548   21.9478 C   0  0  0  0  0  0  0  0  0  0  0  0
   20.7768   18.2387   21.1267 H   0  0  0  0  0  0  0  0  0  0  0  0
   19.7031   19.6771   22.2364 C   0  0  0  0  0  0  0  0  0  0  0  0
   19.7178   20.3952   23.0556 H   0  0  0  0  0  0  0  0  0  0  0  0
   18.3953   19.5801   21.4830 C   0  0  0  0  0  0  0  0  0  0  0  0
   18.0408   20.5871   21.2245 H   0  0  0  0  0  0  0  0  0  0  0  0
   18.5367   19.0426   20.5352 H   0  0  0  0  0  0  0  0  0  0  0  0
   17.3240   18.8584   22.3236 C   0  0  0  0  0  0  0  0  0  0  0  0
   17.1345   19.3962   23.2619 H   0  0  0  0  0  0  0  0  0  0  0  0
   16.3773   18.7917   21.7720 H   0  0  0  0  0  0  0  0  0  0  0  0
   17.6458   17.8386   22.5729 H   0  0  0  0  0  0  0  0  0  0  0  0
  1  2  1  0  0  0  0
  1  3  2  0  0  0  0
  1  4  1  0  0  0  0
  4  5  1  0  0  0  0
  4  6  1  0  0  0  0
  4  7  1  0  0  0  0
  7  8  1  0  0  0  0
  7  9  2  0  0  0  0
  9 10  1  0  0  0  0
  9 11  1  0  0  0  0
 11 12  1  0  0  0  0
 11 13  1  0  0  0  0
 11 14  1  0  0  0  0
 14 15  1  0  0  0  0
 14 16  1  0  0  0  0
 14 17  1  0  0  0  0
M  END
> <VConfSearch Rank>
822

> <Conf_Id>
35

> <Delta U+W>
-0.102

> <U+W>
-49.529

> <U>
13.666

> <W>
-63.195

> <W(PB)>
-65.299

> <W(SA)>
2.103

> <Valence>
15.226

> <Coulomb>
-1.822

> <VdW>
0.261

> <VdW6>
-4.165

> <VdW12>
4.426

> <Bond>
0.044

> <Angle>
2.229

> <Pdih>
12.953

> <Idih>
0.000

> <Tether>
0.000

$$$$
VeraChem MOL file


 17 16  0  0  0  0  0  0  0  0999 V2000     
   22.6938   17.6528   22.9164 C   0  0  0  0  0  0  0  0  0  0  0  0
   23.5653   17.8998   22.1062 O   0  5  0  0  0  0  0  0  0  0  0  0
   22.8747   17.6499   24.1181 O   0  0  0  0  0  0  0  0  0  0  0  0
   21.3022   17.3197   22.3948 C   0  0  0  0  0  0  0  0  0  0  0  0
   20.7835   16.7255   23.1567 H   0  0  0  0  0  0  0  0  0  0  0  0
   21.4196   16.6786   21.5135 H   0  0  0  0  0  0  0  0  0  0  0  0
   20.5054   18.5593   22.0343 C   0  0  0  0  0  0  0  0  0  0  0  0
   20.8852   19.1095   21.1751 H   0  0  0  0  0  0  0  0  0  0  0  0
   19.4216   18.9717   22.7036 C   0  0  0  0  0  0  0  0  0  0  0  0
   19.0735   18.3973   23.5615 H   0  0  0  0  0  0  0  0  0  0  0  0
   18.5811   20.2007   22.4010 C   0  0  0  0  0  0  0  0  0  0  0  0
   17.5413   19.8892   22.2325 H   0  0  0  0  0  0  0  0  0  0  0  0
   18.5559   20.8433   23.2915 H   0  0  0  0  0  0  0  0  0  0  0  0
   19.0583   21.0355   21.1921 C   0  0  0  0  0  0  0  0  0  0  0  0
   19.0444   20.4385   20.2708 H   0  0  0  0  0  0  0  0  0  0  0  0
   18.4026   21.9028   21.0404 H   0  0  0  0  0  0  0  0  0  0  0  0
   20.0786   21.4091   21.3497 H   0  0  0  0  0  0  0  0  0  0  0  0
  1  2  1  0  0  0  0
  1  3  2  0  0  0  0
  1  4  1  0  0  0  0
  4  5  1  0  0  0  0
  4  6  1  0  0  0  0
  4  7  1  0  0  0  0
  7  8  1  0  0  0  0
  7  9  2  0  0  0  0
  9 10  1  0  0  0  0
  9 11  1  0  0  0  0
 11 12  1  0  0  0  0
 11 13  1  0  0  0  0
 11 14  1  0  0  0  0
 14 15  1  0  0  0  0
 14 16  1  0  0  0  0
 14 17  1  0  0  0  0
M  END
> <VConfSearch Rank>
823

> <Conf_Id>
19

> <Delta U+W>
-0.496

> <U+W>
-49.923

> <U>
13.863

> <W>
-63.786

> <W(PB)>
-65.856

> <W(SA)>
2.070

> <Valence>
14.117

> <Coulomb>
-1.228

> <VdW>
0.974

> <VdW6>
-4.885

> <VdW12>
5.859

> <Bond>
0.094

> <Angle>
2.818

> <Pdih>
11.205

> <Idih>
0.000

> <Tether>
0.000

$$$$
VeraChem MOL file


 17 16  0  0  0  0  0  0  0  0999 V2000     
   19.9134   16.3469   23.2957 C   0  0  0  0  0  0  0  0  0  0  0  0
   18.7088   16.1908   23.3324 O   0  5  0  0  0  0  0  0  0  0  0  0
   20.6855   15.5172   22.8568 O   0  0  0  0  0  0  0  0  0  0  0  0
   20.4902   17.6479   23.8384 C   0  0  0  0  0  0  0  0  0  0  0  0
   21.3890   17.4005   24.4151 H   0  0  0  0  0  0  0  0  0  0  0  0
   19.7662   18.0775   24.5412 H   0  0  0  0  0  0  0  0  0  0  0  0
   20.8321   18.6351   22.7388 C   0  0  0  0  0  0  0  0  0  0  0  0
   21.6567   18.3413   22.0900 H   0  0  0  0  0  0  0  0  0  0  0  0
   20.1890   19.7896   22.5391 C   0  0  0  0  0  0  0  0  0  0  0  0
   19.3612   20.0804   23.1850 H   0  0  0  0  0  0  0  0  0  0  0  0
   20.5296   20.7712   21.4401 C   0  0  0  0  0  0  0  0  0  0  0  0
   20.6018   21.7848   21.8573 H   0  0  0  0  0  0  0  0  0  0  0  0
   21.5120   20.5377   21.0070 H   0  0  0  0  0  0  0  0  0  0  0  0
   19.4635   20.7481   20.3276 C   0  0  0  0  0  0  0  0  0  0  0  0
   18.4761   21.0164   20.7257 H   0  0  0  0  0  0  0  0  0  0  0  0
   19.7158   21.4618   19.5326 H   0  0  0  0  0  0  0  0  0  0  0  0
   19.3908   19.7489   19.8782 H   0  0  0  0  0  0  0  0  0  0  0  0
  1  2  1  0  0  0  0
  1  3  2  0  0  0  0
  1  4  1  0  0  0  0
  4  5  1  0  0  0  0
  4  6  1  0  0  0  0
  4  7  1  0  0  0  0
  7  8  1  0  0  0  0
  7  9  2  0  0  0  0
  9 10  1  0  0  0  0
  9 11  1  0  0  0  0
 11 12  1  0  0  0  0
 11 13  1  0  0  0  0
 11 14  1  0  0  0  0
 14 15  1  0  0  0  0
 14 16  1  0  0  0  0
 14 17  1  0  0  0  0
M  END
> <VConfSearch Rank>
824

> <Conf_Id>
7

> <Delta U+W>
-0.041

> <U+W>
-49.468

> <U>
14.121

> <W>
-63.589

> <W(PB)>
-65.660

> <W(SA)>
2.071

> <Valence>
15.230

> <Coulomb>
-1.333

> <VdW>
0.224

> <VdW6>
-4.212

> <VdW12>
4.436

> <Bond>
0.044

> <Angle>
2.230

> <Pdih>
12.956

> <Idih>
0.000

> <Tether>
0.000

$$$$
VeraChem MOL file


 17 16  0  0  0  0  0  0  0  0999 V2000     
   21.6382   17.1211   21.4164 C   0  0  0  0  0  0  0  0  0  0  0  0
   21.8574   16.5619   22.4729 O   0  5  0  0  0  0  0  0  0  0  0  0
   22.5112   17.4520   20.6383 O   0  0  0  0  0  0  0  0  0  0  0  0
   20.1876   17.3978   21.0334 C   0  0  0  0  0  0  0  0  0  0  0  0
   19.5697   16.5963   21.4549 H   0  0  0  0  0  0  0  0  0  0  0  0
   20.1037   17.3022   19.9446 H   0  0  0  0  0  0  0  0  0  0  0  0
   19.6387   18.7485   21.4708 C   0  0  0  0  0  0  0  0  0  0  0  0
   18.6020   18.9255   21.1872 H   0  0  0  0  0  0  0  0  0  0  0  0
   20.3088   19.6878   22.1489 C   0  0  0  0  0  0  0  0  0  0  0  0
   21.3459   19.5357   22.4453 H   0  0  0  0  0  0  0  0  0  0  0  0
   19.7159   21.0175   22.5590 C   0  0  0  0  0  0  0  0  0  0  0  0
   20.4065   21.8290   22.2926 H   0  0  0  0  0  0  0  0  0  0  0  0
   18.7813   21.2073   22.0133 H   0  0  0  0  0  0  0  0  0  0  0  0
   19.4383   21.0560   24.0744 C   0  0  0  0  0  0  0  0  0  0  0  0
   19.0095   22.0234   24.3666 H   0  0  0  0  0  0  0  0  0  0  0  0
   18.7290   20.2683   24.3609 H   0  0  0  0  0  0  0  0  0  0  0  0
   20.3638   20.9068   24.6459 H   0  0  0  0  0  0  0  0  0  0  0  0
  1  2  1  0  0  0  0
  1  3  2  0  0  0  0
  1  4  1  0  0  0  0
  4  5  1  0  0  0  0
  4  6  1  0  0  0  0
  4  7  1  0  0  0  0
  7  8  1  0  0  0  0
  7  9  2  0  0  0  0
  9 10  1  0  0  0  0
  9 11  1  0  0  0  0
 11 12  1  0  0  0  0
 11 13  1  0  0  0  0
 11 14  1  0  0  0  0
 14 15  1  0  0  0  0
 14 16  1  0  0  0  0
 14 17  1  0  0  0  0
M  END
> <VConfSearch Rank>
825

> <Conf_Id>
39

> <Delta U+W>
-0.422

> <U+W>
-49.849

> <U>
14.465

> <W>
-64.314

> <W(PB)>
-66.406

> <W(SA)>
2.093

> <Valence>
14.072

> <Coulomb>
-0.199

> <VdW>
0.592

> <VdW6>
-5.019

> <VdW12>
5.611

> <Bond>
0.085

> <Angle>
2.748

> <Pdih>
11.238

> <Idih>
0.001

> <Tether>
0.000

$$$$
VeraChem MOL file


 17 16  0  0  0  0  0  0  0  0999 V2000     
   21.0876   17.1794   24.2672 C   0  0  0  0  0  0  0  0  0  0  0  0
   20.6867   17.3438   25.4027 O   0  5  0  0  0  0  0  0  0  0  0  0
   22.2201   16.8303   23.9984 O   0  0  0  0  0  0  0  0  0  0  0  0
   20.1144   17.4192   23.1205 C   0  0  0  0  0  0  0  0  0  0  0  0
   19.1427   17.0053   23.4138 H   0  0  0  0  0  0  0  0  0  0  0  0
   20.4589   16.8446   22.2523 H   0  0  0  0  0  0  0  0  0  0  0  0
   19.9719   18.8898   22.7775 C   0  0  0  0  0  0  0  0  0  0  0  0
   19.4845   19.4996   23.5376 H   0  0  0  0  0  0  0  0  0  0  0  0
   20.4014   19.4403   21.6379 C   0  0  0  0  0  0  0  0  0  0  0  0
   20.8914   18.8305   20.8794 H   0  0  0  0  0  0  0  0  0  0  0  0
   20.2619   20.9076   21.2991 C   0  0  0  0  0  0  0  0  0  0  0  0
   20.0030   21.4863   22.1965 H   0  0  0  0  0  0  0  0  0  0  0  0
   21.2233   21.2980   20.9389 H   0  0  0  0  0  0  0  0  0  0  0  0
   19.1821   21.1271   20.2216 C   0  0  0  0  0  0  0  0  0  0  0  0
   18.2049   20.7673   20.5699 H   0  0  0  0  0  0  0  0  0  0  0  0
   19.0859   22.1935   19.9796 H   0  0  0  0  0  0  0  0  0  0  0  0
   19.4352   20.5897   19.2983 H   0  0  0  0  0  0  0  0  0  0  0  0
  1  2  1  0  0  0  0
  1  3  2  0  0  0  0
  1  4  1  0  0  0  0
  4  5  1  0  0  0  0
  4  6  1  0  0  0  0
  4  7  1  0  0  0  0
  7  8  1  0  0  0  0
  7  9  2  0  0  0  0
  9 10  1  0  0  0  0
  9 11  1  0  0  0  0
 11 12  1  0  0  0  0
 11 13  1  0  0  0  0
 11 14  1  0  0  0  0
 14 15  1  0  0  0  0
 14 16  1  0  0  0  0
 14 17  1  0  0  0  0
M  END
> <VConfSearch Rank>
826

> <Conf_Id>
38

> <Delta U+W>
0.000

> <U+W>
-49.427

> <U>
13.666

> <W>
-63.093

> <W(PB)>
-65.225

> <W(SA)>
2.132

> <Valence>
15.226

> <Coulomb>
-1.822

> <VdW>
0.261

> <VdW6>
-4.165

> <VdW12>
4.426

> <Bond>
0.044

> <Angle>
2.229

> <Pdih>
12.953

> <Idih>
0.000

> <Tether>
0.000

$$$$
VeraChem MOL file


 17 16  0  0  0  0  0  0  0  0999 V2000     
   17.2246   19.4922   20.7713 C   0  0  0  0  0  0  0  0  0  0  0  0
   16.3797   19.1855   21.5890 O   0  5  0  0  0  0  0  0  0  0  0  0
   17.1520   19.2094   19.5915 O   0  0  0  0  0  0  0  0  0  0  0  0
   18.4389   20.2786   21.2476 C   0  0  0  0  0  0  0  0  0  0  0  0
   18.1671   20.8031   22.1715 H   0  0  0  0  0  0  0  0  0  0  0  0
   18.6571   21.0457   20.4957 H   0  0  0  0  0  0  0  0  0  0  0  0
   19.6548   19.3971   21.4605 C   0  0  0  0  0  0  0  0  0  0  0  0
   20.0819   18.9673   20.5549 H   0  0  0  0  0  0  0  0  0  0  0  0
   20.1945   19.1376   22.6553 C   0  0  0  0  0  0  0  0  0  0  0  0
   19.7650   19.5652   23.5607 H   0  0  0  0  0  0  0  0  0  0  0  0
   21.4046   18.2552   22.8660 C   0  0  0  0  0  0  0  0  0  0  0  0
   21.2022   17.5342   23.6696 H   0  0  0  0  0  0  0  0  0  0  0  0
   21.6145   17.6683   21.9612 H   0  0  0  0  0  0  0  0  0  0  0  0
   22.6453   19.0942   23.2291 C   0  0  0  0  0  0  0  0  0  0  0  0
   22.4768   19.6631   24.1529 H   0  0  0  0  0  0  0  0  0  0  0  0
   23.5199   18.4485   23.3814 H   0  0  0  0  0  0  0  0  0  0  0  0
   22.8828   19.8060   22.4275 H   0  0  0  0  0  0  0  0  0  0  0  0
  1  2  1  0  0  0  0
  1  3  2  0  0  0  0
  1  4  1  0  0  0  0
  4  5  1  0  0  0  0
  4  6  1  0  0  0  0
  4  7  1  0  0  0  0
  7  8  1  0  0  0  0
  7  9  2  0  0  0  0
  9 10  1  0  0  0  0
  9 11  1  0  0  0  0
 11 12  1  0  0  0  0
 11 13  1  0  0  0  0
 11 14  1  0  0  0  0
 14 15  1  0  0  0  0
 14 16  1  0  0  0  0
 14 17  1  0  0  0  0
M  END
> <VConfSearch Rank>
827

> <Conf_Id>
35

> <Delta U+W>
-0.102

> <U+W>
-49.529

> <U>
13.666

> <W>
-63.195

> <W(PB)>
-65.299

> <W(SA)>
2.103

> <Valence>
15.226

> <Coulomb>
-1.822

> <VdW>
0.261

> <VdW6>
-4.165

> <VdW12>
4.426

> <Bond>
0.044

> <Angle>
2.229

> <Pdih>
12.953

> <Idih>
0.000

> <Tether>
0.000

$$$$
VeraChem MOL file


 17 16  0  0  0  0  0  0  0  0999 V2000     
   18.0145   18.9691   20.2508 C   0  0  0  0  0  0  0  0  0  0  0  0
   16.9475   18.9832   20.8325 O   0  5  0  0  0  0  0  0  0  0  0  0
   18.2524   19.6418   19.2670 O   0  0  0  0  0  0  0  0  0  0  0  0
   19.1084   18.0508   20.7797 C   0  0  0  0  0  0  0  0  0  0  0  0
   19.7958   17.8261   19.9552 H   0  0  0  0  0  0  0  0  0  0  0  0
   18.6388   17.1046   21.0721 H   0  0  0  0  0  0  0  0  0  0  0  0
   19.8496   18.6506   21.9596 C   0  0  0  0  0  0  0  0  0  0  0  0
   19.2550   18.7513   22.8660 H   0  0  0  0  0  0  0  0  0  0  0  0
   21.1302   19.0394   21.9181 C   0  0  0  0  0  0  0  0  0  0  0  0
   21.6924   18.9271   20.9916 H   0  0  0  0  0  0  0  0  0  0  0  0
   21.9309   19.6490   23.0565 C   0  0  0  0  0  0  0  0  0  0  0  0
   22.8173   19.0273   23.2420 H   0  0  0  0  0  0  0  0  0  0  0  0
   22.3175   20.6262   22.7369 H   0  0  0  0  0  0  0  0  0  0  0  0
   21.1536   19.8243   24.3797 C   0  0  0  0  0  0  0  0  0  0  0  0
   20.7974   18.8574   24.7586 H   0  0  0  0  0  0  0  0  0  0  0  0
   21.7982   20.2697   25.1486 H   0  0  0  0  0  0  0  0  0  0  0  0
   20.2875   20.4853   24.2431 H   0  0  0  0  0  0  0  0  0  0  0  0
  1  2  1  0  0  0  0
  1  3  2  0  0  0  0
  1  4  1  0  0  0  0
  4  5  1  0  0  0  0
  4  6  1  0  0  0  0
  4  7  1  0  0  0  0
  7  8  1  0  0  0  0
  7  9  2  0  0  0  0
  9 10  1  0  0  0  0
  9 11  1  0  0  0  0
 11 12  1  0  0  0  0
 11 13  1  0  0  0  0
 11 14  1  0  0  0  0
 14 15  1  0  0  0  0
 14 16  1  0  0  0  0
 14 17  1  0  0  0  0
M  END
> <VConfSearch Rank>
828

> <Conf_Id>
19

> <Delta U+W>
-0.496

> <U+W>
-49.923

> <U>
13.863

> <W>
-63.786

> <W(PB)>
-65.856

> <W(SA)>
2.070

> <Valence>
14.117

> <Coulomb>
-1.228

> <VdW>
0.974

> <VdW6>
-4.885

> <VdW12>
5.859

> <Bond>
0.094

> <Angle>
2.818

> <Pdih>
11.205

> <Idih>
0.000

> <Tether>
0.000

$$$$
VeraChem MOL file


 17 16  0  0  0  0  0  0  0  0999 V2000     
   22.1000   19.9777   20.2085 C   0  0  0  0  0  0  0  0  0  0  0  0
   23.1355   20.0003   20.8443 O   0  5  0  0  0  0  0  0  0  0  0  0
   22.0032   19.4914   19.0990 O   0  0  0  0  0  0  0  0  0  0  0  0
   20.8573   20.6018   20.8297 C   0  0  0  0  0  0  0  0  0  0  0  0
   20.3384   21.1654   20.0457 H   0  0  0  0  0  0  0  0  0  0  0  0
   21.1792   21.3271   21.5867 H   0  0  0  0  0  0  0  0  0  0  0  0
   19.9256   19.5664   21.4302 C   0  0  0  0  0  0  0  0  0  0  0  0
   19.4424   18.9038   20.7128 H   0  0  0  0  0  0  0  0  0  0  0  0
   19.6916   19.4360   22.7396 C   0  0  0  0  0  0  0  0  0  0  0  0
   20.1790   20.0955   23.4569 H   0  0  0  0  0  0  0  0  0  0  0  0
   18.7644   18.4009   23.3366 C   0  0  0  0  0  0  0  0  0  0  0  0
   18.0890   18.8801   24.0582 H   0  0  0  0  0  0  0  0  0  0  0  0
   18.1298   17.9579   22.5567 H   0  0  0  0  0  0  0  0  0  0  0  0
   19.5608   17.2851   24.0406 C   0  0  0  0  0  0  0  0  0  0  0  0
   20.1760   17.6953   24.8522 H   0  0  0  0  0  0  0  0  0  0  0  0
   18.8832   16.5366   24.4716 H   0  0  0  0  0  0  0  0  0  0  0  0
   20.2262   16.7747   23.3319 H   0  0  0  0  0  0  0  0  0  0  0  0
  1  2  1  0  0  0  0
  1  3  2  0  0  0  0
  1  4  1  0  0  0  0
  4  5  1  0  0  0  0
  4  6  1  0  0  0  0
  4  7  1  0  0  0  0
  7  8  1  0  0  0  0
  7  9  2  0  0  0  0
  9 10  1  0  0  0  0
  9 11  1  0  0  0  0
 11 12  1  0  0  0  0
 11 13  1  0  0  0  0
 11 14  1  0  0  0  0
 14 15  1  0  0  0  0
 14 16  1  0  0  0  0
 14 17  1  0  0  0  0
M  END
> <VConfSearch Rank>
829

> <Conf_Id>
7

> <Delta U+W>
-0.041

> <U+W>
-49.468

> <U>
14.121

> <W>
-63.589

> <W(PB)>
-65.660

> <W(SA)>
2.071

> <Valence>
15.230

> <Coulomb>
-1.333

> <VdW>
0.224

> <VdW6>
-4.212

> <VdW12>
4.436

> <Bond>
0.044

> <Angle>
2.230

> <Pdih>
12.956

> <Idih>
0.000

> <Tether>
0.000

$$$$
VeraChem MOL file


 17 16  0  0  0  0  0  0  0  0999 V2000     
   20.3137   19.8845   19.5794 C   0  0  0  0  0  0  0  0  0  0  0  0
   19.1504   20.1176   19.3161 O   0  5  0  0  0  0  0  0  0  0  0  0
   20.9913   19.0794   18.9712 O   0  0  0  0  0  0  0  0  0  0  0  0
   20.9668   20.6643   20.7165 C   0  0  0  0  0  0  0  0  0  0  0  0
   20.5069   21.6589   20.7497 H   0  0  0  0  0  0  0  0  0  0  0  0
   22.0180   20.8271   20.4516 H   0  0  0  0  0  0  0  0  0  0  0  0
   20.8814   20.0167   22.0913 C   0  0  0  0  0  0  0  0  0  0  0  0
   21.3538   20.5897   22.8882 H   0  0  0  0  0  0  0  0  0  0  0  0
   20.2925   18.8490   22.3756 C   0  0  0  0  0  0  0  0  0  0  0  0
   19.8122   18.2568   21.5976 H   0  0  0  0  0  0  0  0  0  0  0  0
   20.2366   18.2473   23.7623 C   0  0  0  0  0  0  0  0  0  0  0  0
   20.5365   17.1915   23.7203 H   0  0  0  0  0  0  0  0  0  0  0  0
   20.9493   18.7510   24.4298 H   0  0  0  0  0  0  0  0  0  0  0  0
   18.8184   18.3553   24.3558 C   0  0  0  0  0  0  0  0  0  0  0  0
   18.7834   17.9160   25.3612 H   0  0  0  0  0  0  0  0  0  0  0  0
   18.5065   19.4053   24.4314 H   0  0  0  0  0  0  0  0  0  0  0  0
   18.0897   17.8267   23.7272 H   0  0  0  0  0  0  0  0  0  0  0  0
  1  2  1  0  0  0  0
  1  3  2  0  0  0  0
  1  4  1  0  0  0  0
  4  5  1  0  0  0  0
  4  6  1  0  0  0  0
  4  7  1  0  0  0  0
  7  8  1  0  0  0  0
  7  9  2  0  0  0  0
  9 10  1  0  0  0  0
  9 11  1  0  0  0  0
 11 12  1  0  0  0  0
 11 13  1  0  0  0  0
 11 14  1  0  0  0  0
 14 15  1  0  0  0  0
 14 16  1  0  0  0  0
 14 17  1  0  0  0  0
M  END
> <VConfSearch Rank>
830

> <Conf_Id>
39

> <Delta U+W>
-0.422

> <U+W>
-49.849

> <U>
14.465

> <W>
-64.314

> <W(PB)>
-66.406

> <W(SA)>
2.093

> <Valence>
14.072

> <Coulomb>
-0.199

> <VdW>
0.592

> <VdW6>
-5.019

> <VdW12>
5.611

> <Bond>
0.085

> <Angle>
2.748

> <Pdih>
11.238

> <Idih>
0.001

> <Tether>
0.000

$$$$
VeraChem MOL file


 17 16  0  0  0  0  0  0  0  0999 V2000     
   19.7920   16.8489   24.1145 C   0  0  0  0  0  0  0  0  0  0  0  0
   20.1587   15.7613   23.7150 O   0  5  0  0  0  0  0  0  0  0  0  0
   18.7923   17.0163   24.7849 O   0  0  0  0  0  0  0  0  0  0  0  0
   20.6354   18.0661   23.7590 C   0  0  0  0  0  0  0  0  0  0  0  0
   21.6899   17.7835   23.8582 H   0  0  0  0  0  0  0  0  0  0  0  0
   20.4413   18.8474   24.5037 H   0  0  0  0  0  0  0  0  0  0  0  0
   20.3618   18.5726   22.3557 C   0  0  0  0  0  0  0  0  0  0  0  0
   20.6812   17.9103   21.5517 H   0  0  0  0  0  0  0  0  0  0  0  0
   19.7717   19.7397   22.0802 C   0  0  0  0  0  0  0  0  0  0  0  0
   19.4499   20.4002   22.8847 H   0  0  0  0  0  0  0  0  0  0  0  0
   19.4963   20.2414   20.6803 C   0  0  0  0  0  0  0  0  0  0  0  0
   19.6076   19.4270   19.9512 H   0  0  0  0  0  0  0  0  0  0  0  0
   18.4566   20.5886   20.6088 H   0  0  0  0  0  0  0  0  0  0  0  0
   20.4494   21.3936   20.3073 C   0  0  0  0  0  0  0  0  0  0  0  0
   21.4955   21.0625   20.3469 H   0  0  0  0  0  0  0  0  0  0  0  0
   20.2443   21.7539   19.2908 H   0  0  0  0  0  0  0  0  0  0  0  0
   20.3317   22.2386   20.9984 H   0  0  0  0  0  0  0  0  0  0  0  0
  1  2  1  0  0  0  0
  1  3  2  0  0  0  0
  1  4  1  0  0  0  0
  4  5  1  0  0  0  0
  4  6  1  0  0  0  0
  4  7  1  0  0  0  0
  7  8  1  0  0  0  0
  7  9  2  0  0  0  0
  9 10  1  0  0  0  0
  9 11  1  0  0  0  0
 11 12  1  0  0  0  0
 11 13  1  0  0  0  0
 11 14  1  0  0  0  0
 14 15  1  0  0  0  0
 14 16  1  0  0  0  0
 14 17  1  0  0  0  0
M  END
> <VConfSearch Rank>
831

> <Conf_Id>
38

> <Delta U+W>
0.000

> <U+W>
-49.427

> <U>
13.666

> <W>
-63.093

> <W(PB)>
-65.225

> <W(SA)>
2.132

> <Valence>
15.226

> <Coulomb>
-1.822

> <VdW>
0.261

> <VdW6>
-4.165

> <VdW12>
4.426

> <Bond>
0.044

> <Angle>
2.229

> <Pdih>
12.953

> <Idih>
0.000

> <Tether>
0.000

$$$$
VeraChem MOL file


 17 16  0  0  0  0  0  0  0  0999 V2000     
   18.6716   21.7729   23.4242 C   0  0  0  0  0  0  0  0  0  0  0  0
   19.4752   22.3630   24.1189 O   0  5  0  0  0  0  0  0  0  0  0  0
   17.4989   21.6430   23.7156 O   0  0  0  0  0  0  0  0  0  0  0  0
   19.1571   21.1670   22.1140 C   0  0  0  0  0  0  0  0  0  0  0  0
   20.0582   21.7070   21.7993 H   0  0  0  0  0  0  0  0  0  0  0  0
   18.3897   21.3537   21.3539 H   0  0  0  0  0  0  0  0  0  0  0  0
   19.4269   19.6786   22.2270 C   0  0  0  0  0  0  0  0  0  0  0  0
   18.5454   19.0565   22.3795 H   0  0  0  0  0  0  0  0  0  0  0  0
   20.6424   19.1278   22.1534 C   0  0  0  0  0  0  0  0  0  0  0  0
   21.5237   19.7508   22.0041 H   0  0  0  0  0  0  0  0  0  0  0  0
   20.9099   17.6439   22.2703 C   0  0  0  0  0  0  0  0  0  0  0  0
   21.7280   17.4697   22.9823 H   0  0  0  0  0  0  0  0  0  0  0  0
   20.0280   17.1247   22.6703 H   0  0  0  0  0  0  0  0  0  0  0  0
   21.2814   17.0386   20.9026 C   0  0  0  0  0  0  0  0  0  0  0  0
   22.1839   17.5138   20.4961 H   0  0  0  0  0  0  0  0  0  0  0  0
   21.4750   15.9620   20.9939 H   0  0  0  0  0  0  0  0  0  0  0  0
   20.4664   17.1782   20.1802 H   0  0  0  0  0  0  0  0  0  0  0  0
  1  2  1  0  0  0  0
  1  3  2  0  0  0  0
  1  4  1  0  0  0  0
  4  5  1  0  0  0  0
  4  6  1  0  0  0  0
  4  7  1  0  0  0  0
  7  8  1  0  0  0  0
  7  9  2  0  0  0  0
  9 10  1  0  0  0  0
  9 11  1  0  0  0  0
 11 12  1  0  0  0  0
 11 13  1  0  0  0  0
 11 14  1  0  0  0  0
 14 15  1  0  0  0  0
 14 16  1  0  0  0  0
 14 17  1  0  0  0  0
M  END
> <VConfSearch Rank>
832

> <Conf_Id>
35

> <Delta U+W>
-0.102

> <U+W>
-49.529

> <U>
13.666

> <W>
-63.195

> <W(PB)>
-65.299

> <W(SA)>
2.103

> <Valence>
15.226

> <Coulomb>
-1.822

> <VdW>
0.261

> <VdW6>
-4.165

> <VdW12>
4.426

> <Bond>
0.044

> <Angle>
2.229

> <Pdih>
12.953

> <Idih>
0.000

> <Tether>
0.000

$$$$
VeraChem MOL file


 17 16  0  0  0  0  0  0  0  0999 V2000     
   19.0192   16.4545   21.6898 C   0  0  0  0  0  0  0  0  0  0  0  0
   18.0410   16.3019   22.3947 O   0  5  0  0  0  0  0  0  0  0  0  0
   19.0445   16.1781   20.5067 O   0  0  0  0  0  0  0  0  0  0  0  0
   20.2839   17.0138   22.3280 C   0  0  0  0  0  0  0  0  0  0  0  0
   21.1424   16.6944   21.7250 H   0  0  0  0  0  0  0  0  0  0  0  0
   20.3947   16.5490   23.3145 H   0  0  0  0  0  0  0  0  0  0  0  0
   20.2457   18.5241   22.4655 C   0  0  0  0  0  0  0  0  0  0  0  0
   19.5125   18.8969   23.1786 H   0  0  0  0  0  0  0  0  0  0  0  0
   21.0337   19.3573   21.7746 C   0  0  0  0  0  0  0  0  0  0  0  0
   21.7529   18.9475   21.0662 H   0  0  0  0  0  0  0  0  0  0  0  0
   21.0461   20.8743   21.8595 C   0  0  0  0  0  0  0  0  0  0  0  0
   22.0563   21.2081   22.1325 H   0  0  0  0  0  0  0  0  0  0  0  0
   20.8586   21.2887   20.8596 H   0  0  0  0  0  0  0  0  0  0  0  0
   20.0304   21.4801   22.8531 C   0  0  0  0  0  0  0  0  0  0  0  0
   20.2221   21.1291   23.8756 H   0  0  0  0  0  0  0  0  0  0  0  0
   20.1006   22.5756   22.8552 H   0  0  0  0  0  0  0  0  0  0  0  0
   19.0021   21.2098   22.5791 H   0  0  0  0  0  0  0  0  0  0  0  0
  1  2  1  0  0  0  0
  1  3  2  0  0  0  0
  1  4  1  0  0  0  0
  4  5  1  0  0  0  0
  4  6  1  0  0  0  0
  4  7  1  0  0  0  0
  7  8  1  0  0  0  0
  7  9  2  0  0  0  0
  9 10  1  0  0  0  0
  9 11  1  0  0  0  0
 11 12  1  0  0  0  0
 11 13  1  0  0  0  0
 11 14  1  0  0  0  0
 14 15  1  0  0  0  0
 14 16  1  0  0  0  0
 14 17  1  0  0  0  0
M  END
> <VConfSearch Rank>
833

> <Conf_Id>
19

> <Delta U+W>
-0.496

> <U+W>
-49.923

> <U>
13.863

> <W>
-63.786

> <W(PB)>
-65.856

> <W(SA)>
2.070

> <Valence>
14.117

> <Coulomb>
-1.228

> <VdW>
0.974

> <VdW6>
-4.885

> <VdW12>
5.859

> <Bond>
0.094

> <Angle>
2.818

> <Pdih>
11.205

> <Idih>
0.000

> <Tether>
0.000

$$$$
VeraChem MOL file


 17 16  0  0  0  0  0  0  0  0999 V2000     
   18.6320   16.6014   21.7375 C   0  0  0  0  0  0  0  0  0  0  0  0
   18.4557   16.6342   20.5356 O   0  5  0  0  0  0  0  0  0  0  0  0
   19.0031   15.6106   22.3355 O   0  0  0  0  0  0  0  0  0  0  0  0
   18.3634   17.8666   22.5418 C   0  0  0  0  0  0  0  0  0  0  0  0
   17.8430   17.5745   23.4612 H   0  0  0  0  0  0  0  0  0  0  0  0
   17.6732   18.4975   21.9689 H   0  0  0  0  0  0  0  0  0  0  0  0
   19.6353   18.6206   22.8803 C   0  0  0  0  0  0  0  0  0  0  0  0
   20.3040   18.1155   23.5766 H   0  0  0  0  0  0  0  0  0  0  0  0
   19.9560   19.8166   22.3774 C   0  0  0  0  0  0  0  0  0  0  0  0
   19.2894   20.3190   21.6772 H   0  0  0  0  0  0  0  0  0  0  0  0
   21.2262   20.5654   22.7140 C   0  0  0  0  0  0  0  0  0  0  0  0
   20.9866   21.6067   22.9687 H   0  0  0  0  0  0  0  0  0  0  0  0
   21.7079   20.1270   23.5989 H   0  0  0  0  0  0  0  0  0  0  0  0
   22.2136   20.5399   21.5310 C   0  0  0  0  0  0  0  0  0  0  0  0
   21.7714   21.0080   20.6417 H   0  0  0  0  0  0  0  0  0  0  0  0
   23.1336   21.0843   21.7808 H   0  0  0  0  0  0  0  0  0  0  0  0
   22.4871   19.5081   21.2739 H   0  0  0  0  0  0  0  0  0  0  0  0
  1  2  1  0  0  0  0
  1  3  2  0  0  0  0
  1  4  1  0  0  0  0
  4  5  1  0  0  0  0
  4  6  1  0  0  0  0
  4  7  1  0  0  0  0
  7  8  1  0  0  0  0
  7  9  2  0  0  0  0
  9 10  1  0  0  0  0
  9 11  1  0  0  0  0
 11 12  1  0  0  0  0
 11 13  1  0  0  0  0
 11 14  1  0  0  0  0
 14 15  1  0  0  0  0
 14 16  1  0  0  0  0
 14 17  1  0  0  0  0
M  END
> <VConfSearch Rank>
834

> <Conf_Id>
7

> <Delta U+W>
-0.041

> <U+W>
-49.468

> <U>
14.121

> <W>
-63.589

> <W(PB)>
-65.660

> <W(SA)>
2.071

> <Valence>
15.230

> <Coulomb>
-1.333

> <VdW>
0.224

> <VdW6>
-4.212

> <VdW12>
4.436

> <Bond>
0.044

> <Angle>
2.230

> <Pdih>
12.956

> <Idih>
0.000

> <Tether>
0.000

$$$$
VeraChem MOL file


 17 16  0  0  0  0  0  0  0  0999 V2000     
   17.4499   18.6307   22.0857 C   0  0  0  0  0  0  0  0  0  0  0  0
   17.4799   17.4430   22.3412 O   0  5  0  0  0  0  0  0  0  0  0  0
   16.9350   19.0893   21.0849 O   0  0  0  0  0  0  0  0  0  0  0  0
   18.0672   19.6006   23.0886 C   0  0  0  0  0  0  0  0  0  0  0  0
   17.9396   19.1747   24.0907 H   0  0  0  0  0  0  0  0  0  0  0  0
   17.4726   20.5215   23.0747 H   0  0  0  0  0  0  0  0  0  0  0  0
   19.5341   19.9368   22.8602 C   0  0  0  0  0  0  0  0  0  0  0  0
   19.9546   20.6306   23.5871 H   0  0  0  0  0  0  0  0  0  0  0  0
   20.3064   19.4602   21.8767 C   0  0  0  0  0  0  0  0  0  0  0  0
   19.9110   18.7645   21.1375 H   0  0  0  0  0  0  0  0  0  0  0  0
   21.7620   19.8281   21.6929 C   0  0  0  0  0  0  0  0  0  0  0  0
   21.9461   20.0988   20.6444 H   0  0  0  0  0  0  0  0  0  0  0  0
   22.0152   20.7113   22.2954 H   0  0  0  0  0  0  0  0  0  0  0  0
   22.6832   18.6584   22.0906 C   0  0  0  0  0  0  0  0  0  0  0  0
   23.7379   18.9303   21.9539 H   0  0  0  0  0  0  0  0  0  0  0  0
   22.5350   18.3864   23.1440 H   0  0  0  0  0  0  0  0  0  0  0  0
   22.4775   17.7718   21.4765 H   0  0  0  0  0  0  0  0  0  0  0  0
  1  2  1  0  0  0  0
  1  3  2  0  0  0  0
  1  4  1  0  0  0  0
  4  5  1  0  0  0  0
  4  6  1  0  0  0  0
  4  7  1  0  0  0  0
  7  8  1  0  0  0  0
  7  9  2  0  0  0  0
  9 10  1  0  0  0  0
  9 11  1  0  0  0  0
 11 12  1  0  0  0  0
 11 13  1  0  0  0  0
 11 14  1  0  0  0  0
 14 15  1  0  0  0  0
 14 16  1  0  0  0  0
 14 17  1  0  0  0  0
M  END
> <VConfSearch Rank>
835

> <Conf_Id>
39

> <Delta U+W>
-0.422

> <U+W>
-49.849

> <U>
14.465

> <W>
-64.314

> <W(PB)>
-66.406

> <W(SA)>
2.093

> <Valence>
14.072

> <Coulomb>
-0.199

> <VdW>
0.592

> <VdW6>
-5.019

> <VdW12>
5.611

> <Bond>
0.085

> <Angle>
2.748

> <Pdih>
11.238

> <Idih>
0.001

> <Tether>
0.000

$$$$
VeraChem MOL file


 17 16  0  0  0  0  0  0  0  0999 V2000     
   20.1652   18.4037   25.1479 C   0  0  0  0  0  0  0  0  0  0  0  0
   21.1094   17.7250   25.5012 O   0  5  0  0  0  0  0  0  0  0  0  0
   19.0262   18.2214   25.5302 O   0  0  0  0  0  0  0  0  0  0  0  0
   20.4268   19.5480   24.1774 C   0  0  0  0  0  0  0  0  0  0  0  0
   21.3588   20.0384   24.4813 H   0  0  0  0  0  0  0  0  0  0  0  0
   19.6238   20.2859   24.2926 H   0  0  0  0  0  0  0  0  0  0  0  0
   20.5308   19.0776   22.7392 C   0  0  0  0  0  0  0  0  0  0  0  0
   21.4033   18.4659   22.5119 H   0  0  0  0  0  0  0  0  0  0  0  0
   19.6378   19.3670   21.7878 C   0  0  0  0  0  0  0  0  0  0  0  0
   18.7639   19.9762   22.0165 H   0  0  0  0  0  0  0  0  0  0  0  0
   19.7411   18.8939   20.3551 C   0  0  0  0  0  0  0  0  0  0  0  0
   20.4869   18.0917   20.2680 H   0  0  0  0  0  0  0  0  0  0  0  0
   18.7807   18.4674   20.0354 H   0  0  0  0  0  0  0  0  0  0  0  0
   20.1268   20.0530   19.4155 C   0  0  0  0  0  0  0  0  0  0  0  0
   21.0977   20.4793   19.7004 H   0  0  0  0  0  0  0  0  0  0  0  0
   20.1996   19.7037   18.3773 H   0  0  0  0  0  0  0  0  0  0  0  0
   19.3770   20.8541   19.4536 H   0  0  0  0  0  0  0  0  0  0  0  0
  1  2  1  0  0  0  0
  1  3  2  0  0  0  0
  1  4  1  0  0  0  0
  4  5  1  0  0  0  0
  4  6  1  0  0  0  0
  4  7  1  0  0  0  0
  7  8  1  0  0  0  0
  7  9  2  0  0  0  0
  9 10  1  0  0  0  0
  9 11  1  0  0  0  0
 11 12  1  0  0  0  0
 11 13  1  0  0  0  0
 11 14  1  0  0  0  0
 14 15  1  0  0  0  0
 14 16  1  0  0  0  0
 14 17  1  0  0  0  0
M  END
> <VConfSearch Rank>
836

> <Conf_Id>
38

> <Delta U+W>
0.000

> <U+W>
-49.427

> <U>
13.666

> <W>
-63.093

> <W(PB)>
-65.225

> <W(SA)>
2.132

> <Valence>
15.226

> <Coulomb>
-1.822

> <VdW>
0.261

> <VdW6>
-4.165

> <VdW12>
4.426

> <Bond>
0.044

> <Angle>
2.229

> <Pdih>
12.953

> <Idih>
0.000

> <Tether>
0.000

$$$$
VeraChem MOL file


 17 16  0  0  0  0  0  0  0  0999 V2000     
   20.9618   21.4759   20.0138 C   0  0  0  0  0  0  0  0  0  0  0  0
   21.4427   20.9320   19.0392 O   0  5  0  0  0  0  0  0  0  0  0  0
   21.3752   22.5231   20.4713 O   0  0  0  0  0  0  0  0  0  0  0  0
   19.7727   20.8136   20.6972 C   0  0  0  0  0  0  0  0  0  0  0  0
   19.2733   20.1667   19.9660 H   0  0  0  0  0  0  0  0  0  0  0  0
   19.0602   21.6015   20.9675 H   0  0  0  0  0  0  0  0  0  0  0  0
   20.1750   20.0294   21.9317 C   0  0  0  0  0  0  0  0  0  0  0  0
   20.5324   20.6295   22.7679 H   0  0  0  0  0  0  0  0  0  0  0  0
   20.1142   18.6978   22.0284 C   0  0  0  0  0  0  0  0  0  0  0  0
   19.7598   18.0981   21.1907 H   0  0  0  0  0  0  0  0  0  0  0  0
   20.5195   17.9172   23.2587 C   0  0  0  0  0  0  0  0  0  0  0  0
   21.1781   17.0867   22.9705 H   0  0  0  0  0  0  0  0  0  0  0  0
   21.0959   18.5531   23.9448 H   0  0  0  0  0  0  0  0  0  0  0  0
   19.2843   17.3620   23.9943 C   0  0  0  0  0  0  0  0  0  0  0  0
   18.7091   16.6912   23.3427 H   0  0  0  0  0  0  0  0  0  0  0  0
   19.5847   16.7960   24.8856 H   0  0  0  0  0  0  0  0  0  0  0  0
   18.6226   18.1773   24.3153 H   0  0  0  0  0  0  0  0  0  0  0  0
  1  2  1  0  0  0  0
  1  3  2  0  0  0  0
  1  4  1  0  0  0  0
  4  5  1  0  0  0  0
  4  6  1  0  0  0  0
  4  7  1  0  0  0  0
  7  8  1  0  0  0  0
  7  9  2  0  0  0  0
  9 10  1  0  0  0  0
  9 11  1  0  0  0  0
 11 12  1  0  0  0  0
 11 13  1  0  0  0  0
 11 14  1  0  0  0  0
 14 15  1  0  0  0  0
 14 16  1  0  0  0  0
 14 17  1  0  0  0  0
M  END
> <VConfSearch Rank>
837

> <Conf_Id>
35

> <Delta U+W>
-0.102

> <U+W>
-49.529

> <U>
13.666

> <W>
-63.195

> <W(PB)>
-65.299

> <W(SA)>
2.103

> <Valence>
15.226

> <Coulomb>
-1.822

> <VdW>
0.261

> <VdW6>
-4.165

> <VdW12>
4.426

> <Bond>
0.044

> <Angle>
2.229

> <Pdih>
12.953

> <Idih>
0.000

> <Tether>
0.000

$$$$
VeraChem MOL file


 17 16  0  0  0  0  0  0  0  0999 V2000     
   18.6720   16.5926   22.3425 C   0  0  0  0  0  0  0  0  0  0  0  0
   18.5934   16.0937   21.2371 O   0  5  0  0  0  0  0  0  0  0  0  0
   18.9376   15.9622   23.3469 O   0  0  0  0  0  0  0  0  0  0  0  0
   18.4142   18.0878   22.4754 C   0  0  0  0  0  0  0  0  0  0  0  0
   18.0997   18.2913   23.5060 H   0  0  0  0  0  0  0  0  0  0  0  0
   17.5677   18.3404   21.8263 H   0  0  0  0  0  0  0  0  0  0  0  0
   19.6249   18.9213   22.1000 C   0  0  0  0  0  0  0  0  0  0  0  0
   19.8922   18.8848   21.0453 H   0  0  0  0  0  0  0  0  0  0  0  0
   20.3312   19.6488   22.9743 C   0  0  0  0  0  0  0  0  0  0  0  0
   20.0361   19.6573   24.0231 H   0  0  0  0  0  0  0  0  0  0  0  0
   21.5519   20.5006   22.6692 C   0  0  0  0  0  0  0  0  0  0  0  0
   21.3529   21.5343   22.9827 H   0  0  0  0  0  0  0  0  0  0  0  0
   22.3894   20.1593   23.2926 H   0  0  0  0  0  0  0  0  0  0  0  0
   21.9941   20.4999   21.1892 C   0  0  0  0  0  0  0  0  0  0  0  0
   21.1981   20.8876   20.5400 H   0  0  0  0  0  0  0  0  0  0  0  0
   22.8790   21.1349   21.0517 H   0  0  0  0  0  0  0  0  0  0  0  0
   22.2526   19.4863   20.8558 H   0  0  0  0  0  0  0  0  0  0  0  0
  1  2  1  0  0  0  0
  1  3  2  0  0  0  0
  1  4  1  0  0  0  0
  4  5  1  0  0  0  0
  4  6  1  0  0  0  0
  4  7  1  0  0  0  0
  7  8  1  0  0  0  0
  7  9  2  0  0  0  0
  9 10  1  0  0  0  0
  9 11  1  0  0  0  0
 11 12  1  0  0  0  0
 11 13  1  0  0  0  0
 11 14  1  0  0  0  0
 14 15  1  0  0  0  0
 14 16  1  0  0  0  0
 14 17  1  0  0  0  0
M  END
> <VConfSearch Rank>
838

> <Conf_Id>
19

> <Delta U+W>
-0.496

> <U+W>
-49.923

> <U>
13.863

> <W>
-63.786

> <W(PB)>
-65.856

> <W(SA)>
2.070

> <Valence>
14.117

> <Coulomb>
-1.228

> <VdW>
0.974

> <VdW6>
-4.885

> <VdW12>
5.859

> <Bond>
0.094

> <Angle>
2.818

> <Pdih>
11.205

> <Idih>
0.000

> <Tether>
0.000

$$$$
VeraChem MOL file


 17 16  0  0  0  0  0  0  0  0999 V2000     
   21.9789   18.2063   20.0749 C   0  0  0  0  0  0  0  0  0  0  0  0
   21.2099   17.7821   19.2350 O   0  5  0  0  0  0  0  0  0  0  0  0
   22.9064   18.9500   19.8223 O   0  0  0  0  0  0  0  0  0  0  0  0
   21.7780   17.7753   21.5218 C   0  0  0  0  0  0  0  0  0  0  0  0
   22.7649   17.5574   21.9462 H   0  0  0  0  0  0  0  0  0  0  0  0
   21.2128   16.8355   21.5246 H   0  0  0  0  0  0  0  0  0  0  0  0
   21.0766   18.8341   22.3512 C   0  0  0  0  0  0  0  0  0  0  0  0
   21.6493   19.7449   22.5233 H   0  0  0  0  0  0  0  0  0  0  0  0
   19.8426   18.7038   22.8478 C   0  0  0  0  0  0  0  0  0  0  0  0
   19.2684   17.7949   22.6711 H   0  0  0  0  0  0  0  0  0  0  0  0
   19.1439   19.7619   23.6721 C   0  0  0  0  0  0  0  0  0  0  0  0
   18.7114   19.3051   24.5725 H   0  0  0  0  0  0  0  0  0  0  0  0
   19.8630   20.5180   24.0163 H   0  0  0  0  0  0  0  0  0  0  0  0
   18.0301   20.4504   22.8594 C   0  0  0  0  0  0  0  0  0  0  0  0
   17.2751   19.7225   22.5347 H   0  0  0  0  0  0  0  0  0  0  0  0
   17.5268   21.2176   23.4621 H   0  0  0  0  0  0  0  0  0  0  0  0
   18.4434   20.9361   21.9656 H   0  0  0  0  0  0  0  0  0  0  0  0
  1  2  1  0  0  0  0
  1  3  2  0  0  0  0
  1  4  1  0  0  0  0
  4  5  1  0  0  0  0
  4  6  1  0  0  0  0
  4  7  1  0  0  0  0
  7  8  1  0  0  0  0
  7  9  2  0  0  0  0
  9 10  1  0  0  0  0
  9 11  1  0  0  0  0
 11 12  1  0  0  0  0
 11 13  1  0  0  0  0
 11 14  1  0  0  0  0
 14 15  1  0  0  0  0
 14 16  1  0  0  0  0
 14 17  1  0  0  0  0
M  END
> <VConfSearch Rank>
839

> <Conf_Id>
7

> <Delta U+W>
-0.041

> <U+W>
-49.468

> <U>
14.121

> <W>
-63.589

> <W(PB)>
-65.660

> <W(SA)>
2.071

> <Valence>
15.230

> <Coulomb>
-1.333

> <VdW>
0.224

> <VdW6>
-4.212

> <VdW12>
4.436

> <Bond>
0.044

> <Angle>
2.230

> <Pdih>
12.956

> <Idih>
0.000

> <Tether>
0.000

$$$$
VeraChem MOL file


 17 16  0  0  0  0  0  0  0  0999 V2000     
   19.2422   19.9890   19.7510 C   0  0  0  0  0  0  0  0  0  0  0  0
   18.0718   19.6690   19.8200 O   0  5  0  0  0  0  0  0  0  0  0  0
   19.9921   19.6069   18.8742 O   0  0  0  0  0  0  0  0  0  0  0  0
   19.7930   20.9438   20.8059 C   0  0  0  0  0  0  0  0  0  0  0  0
   18.9802   21.6133   21.1106 H   0  0  0  0  0  0  0  0  0  0  0  0
   20.5432   21.5809   20.3231 H   0  0  0  0  0  0  0  0  0  0  0  0
   20.3992   20.2844   22.0365 C   0  0  0  0  0  0  0  0  0  0  0  0
   20.7863   20.9839   22.7765 H   0  0  0  0  0  0  0  0  0  0  0  0
   20.4836   18.9681   22.2626 C   0  0  0  0  0  0  0  0  0  0  0  0
   20.1035   18.2474   21.5396 H   0  0  0  0  0  0  0  0  0  0  0  0
   21.0986   18.3627   23.5049 C   0  0  0  0  0  0  0  0  0  0  0  0
   21.7987   17.5654   23.2208 H   0  0  0  0  0  0  0  0  0  0  0  0
   21.6833   19.1154   24.0514 H   0  0  0  0  0  0  0  0  0  0  0  0
   20.0135   17.7860   24.4350 C   0  0  0  0  0  0  0  0  0  0  0  0
   20.4654   17.3469   25.3339 H   0  0  0  0  0  0  0  0  0  0  0  0
   19.3154   18.5714   24.7533 H   0  0  0  0  0  0  0  0  0  0  0  0
   19.4373   17.0025   23.9257 H   0  0  0  0  0  0  0  0  0  0  0  0
  1  2  1  0  0  0  0
  1  3  2  0  0  0  0
  1  4  1  0  0  0  0
  4  5  1  0  0  0  0
  4  6  1  0  0  0  0
  4  7  1  0  0  0  0
  7  8  1  0  0  0  0
  7  9  2  0  0  0  0
  9 10  1  0  0  0  0
  9 11  1  0  0  0  0
 11 12  1  0  0  0  0
 11 13  1  0  0  0  0
 11 14  1  0  0  0  0
 14 15  1  0  0  0  0
 14 16  1  0  0  0  0
 14 17  1  0  0  0  0
M  END
> <VConfSearch Rank>
840

> <Conf_Id>
39

> <Delta U+W>
-0.422

> <U+W>
-49.849

> <U>
14.465

> <W>
-64.314

> <W(PB)>
-66.406

> <W(SA)>
2.093

> <Valence>
14.072

> <Coulomb>
-0.199

> <VdW>
0.592

> <VdW6>
-5.019

> <VdW12>
5.611

> <Bond>
0.085

> <Angle>
2.748

> <Pdih>
11.238

> <Idih>
0.001

> <Tether>
0.000

$$$$
VeraChem MOL file


 17 16  0  0  0  0  0  0  0  0999 V2000     
   20.5736   17.5093   19.5192 C   0  0  0  0  0  0  0  0  0  0  0  0
   19.8147   17.6991   18.5891 O   0  5  0  0  0  0  0  0  0  0  0  0
   20.9640   16.4083   19.8540 O   0  0  0  0  0  0  0  0  0  0  0  0
   21.0651   18.7191   20.3030 C   0  0  0  0  0  0  0  0  0  0  0  0
   21.2829   19.5178   19.5846 H   0  0  0  0  0  0  0  0  0  0  0  0
   22.0138   18.4535   20.7848 H   0  0  0  0  0  0  0  0  0  0  0  0
   20.0523   19.1997   21.3248 C   0  0  0  0  0  0  0  0  0  0  0  0
   19.1418   19.6310   20.9099 H   0  0  0  0  0  0  0  0  0  0  0  0
   20.2229   19.1170   22.6478 C   0  0  0  0  0  0  0  0  0  0  0  0
   21.1323   18.6830   23.0621 H   0  0  0  0  0  0  0  0  0  0  0  0
   19.2103   19.5934   23.6652 C   0  0  0  0  0  0  0  0  0  0  0  0
   18.2381   19.7716   23.1855 H   0  0  0  0  0  0  0  0  0  0  0  0
   19.0501   18.8135   24.4219 H   0  0  0  0  0  0  0  0  0  0  0  0
   19.6842   20.8880   24.3540 C   0  0  0  0  0  0  0  0  0  0  0  0
   19.8266   21.6911   23.6189 H   0  0  0  0  0  0  0  0  0  0  0  0
   18.9457   21.2284   25.0915 H   0  0  0  0  0  0  0  0  0  0  0  0
   20.6373   20.7283   24.8751 H   0  0  0  0  0  0  0  0  0  0  0  0
  1  2  1  0  0  0  0
  1  3  2  0  0  0  0
  1  4  1  0  0  0  0
  4  5  1  0  0  0  0
  4  6  1  0  0  0  0
  4  7  1  0  0  0  0
  7  8  1  0  0  0  0
  7  9  2  0  0  0  0
  9 10  1  0  0  0  0
  9 11  1  0  0  0  0
 11 12  1  0  0  0  0
 11 13  1  0  0  0  0
 11 14  1  0  0  0  0
 14 15  1  0  0  0  0
 14 16  1  0  0  0  0
 14 17  1  0  0  0  0
M  END
> <VConfSearch Rank>
841

> <Conf_Id>
38

> <Delta U+W>
0.000

> <U+W>
-49.427

> <U>
13.666

> <W>
-63.093

> <W(PB)>
-65.225

> <W(SA)>
2.132

> <Valence>
15.226

> <Coulomb>
-1.822

> <VdW>
0.261

> <VdW6>
-4.165

> <VdW12>
4.426

> <Bond>
0.044

> <Angle>
2.229

> <Pdih>
12.953

> <Idih>
0.000

> <Tether>
0.000

$$$$
VeraChem MOL file


 17 16  0  0  0  0  0  0  0  0999 V2000     
   21.0308   21.8097   23.7367 C   0  0  0  0  0  0  0  0  0  0  0  0
   20.1600   22.1227   24.5244 O   0  5  0  0  0  0  0  0  0  0  0  0
   21.7163   22.6150   23.1379 O   0  0  0  0  0  0  0  0  0  0  0  0
   21.2820   20.3281   23.4889 C   0  0  0  0  0  0  0  0  0  0  0  0
   20.9237   19.7687   24.3614 H   0  0  0  0  0  0  0  0  0  0  0  0
   22.3663   20.1768   23.4342 H   0  0  0  0  0  0  0  0  0  0  0  0
   20.6221   19.8319   22.2165 C   0  0  0  0  0  0  0  0  0  0  0  0
   21.0404   20.2269   21.2912 H   0  0  0  0  0  0  0  0  0  0  0  0
   19.5974   18.9744   22.1870 C   0  0  0  0  0  0  0  0  0  0  0  0
   19.1775   18.5823   23.1128 H   0  0  0  0  0  0  0  0  0  0  0  0
   18.9380   18.4838   20.9174 C   0  0  0  0  0  0  0  0  0  0  0  0
   17.8470   18.5739   21.0075 H   0  0  0  0  0  0  0  0  0  0  0  0
   19.2364   19.1075   20.0635 H   0  0  0  0  0  0  0  0  0  0  0  0
   19.3104   17.0159   20.6315 C   0  0  0  0  0  0  0  0  0  0  0  0
   18.9887   16.3630   21.4535 H   0  0  0  0  0  0  0  0  0  0  0  0
   18.8285   16.6653   19.7096 H   0  0  0  0  0  0  0  0  0  0  0  0
   20.3962   16.9053   20.5117 H   0  0  0  0  0  0  0  0  0  0  0  0
  1  2  1  0  0  0  0
  1  3  2  0  0  0  0
  1  4  1  0  0  0  0
  4  5  1  0  0  0  0
  4  6  1  0  0  0  0
  4  7  1  0  0  0  0
  7  8  1  0  0  0  0
  7  9  2  0  0  0  0
  9 10  1  0  0  0  0
  9 11  1  0  0  0  0
 11 12  1  0  0  0  0
 11 13  1  0  0  0  0
 11 14  1  0  0  0  0
 14 15  1  0  0  0  0
 14 16  1  0  0  0  0
 14 17  1  0  0  0  0
M  END
> <VConfSearch Rank>
842

> <Conf_Id>
35

> <Delta U+W>
-0.102

> <U+W>
-49.529

> <U>
13.666

> <W>
-63.195

> <W(PB)>
-65.299

> <W(SA)>
2.103

> <Valence>
15.226

> <Coulomb>
-1.822

> <VdW>
0.261

> <VdW6>
-4.165

> <VdW12>
4.426

> <Bond>
0.044

> <Angle>
2.229

> <Pdih>
12.953

> <Idih>
0.000

> <Tether>
0.000

$$$$
VeraChem MOL file


 17 16  0  0  0  0  0  0  0  0999 V2000     
   18.2681   20.3554   20.3849 C   0  0  0  0  0  0  0  0  0  0  0  0
   18.5690   20.1229   19.2307 O   0  5  0  0  0  0  0  0  0  0  0  0
   17.1361   20.2600   20.8166 O   0  0  0  0  0  0  0  0  0  0  0  0
   19.3695   20.7994   21.3386 C   0  0  0  0  0  0  0  0  0  0  0  0
   18.9071   21.3626   22.1581 H   0  0  0  0  0  0  0  0  0  0  0  0
   20.0196   21.4967   20.7976 H   0  0  0  0  0  0  0  0  0  0  0  0
   20.1831   19.6339   21.8687 C   0  0  0  0  0  0  0  0  0  0  0  0
   20.7937   19.1292   21.1220 H   0  0  0  0  0  0  0  0  0  0  0  0
   20.1675   19.2315   23.1456 C   0  0  0  0  0  0  0  0  0  0  0  0
   19.5404   19.7587   23.8638 H   0  0  0  0  0  0  0  0  0  0  0  0
   20.9512   18.0745   23.7422 C   0  0  0  0  0  0  0  0  0  0  0  0
   21.5764   18.4524   24.5625 H   0  0  0  0  0  0  0  0  0  0  0  0
   20.2482   17.3702   24.2073 H   0  0  0  0  0  0  0  0  0  0  0  0
   21.8437   17.3070   22.7420 C   0  0  0  0  0  0  0  0  0  0  0  0
   22.5965   17.9702   22.2962 H   0  0  0  0  0  0  0  0  0  0  0  0
   22.3735   16.4894   23.2478 H   0  0  0  0  0  0  0  0  0  0  0  0
   21.2431   16.8691   21.9338 H   0  0  0  0  0  0  0  0  0  0  0  0
  1  2  1  0  0  0  0
  1  3  2  0  0  0  0
  1  4  1  0  0  0  0
  4  5  1  0  0  0  0
  4  6  1  0  0  0  0
  4  7  1  0  0  0  0
  7  8  1  0  0  0  0
  7  9  2  0  0  0  0
  9 10  1  0  0  0  0
  9 11  1  0  0  0  0
 11 12  1  0  0  0  0
 11 13  1  0  0  0  0
 11 14  1  0  0  0  0
 14 15  1  0  0  0  0
 14 16  1  0  0  0  0
 14 17  1  0  0  0  0
M  END
> <VConfSearch Rank>
843

> <Conf_Id>
19

> <Delta U+W>
-0.496

> <U+W>
-49.923

> <U>
13.863

> <W>
-63.786

> <W(PB)>
-65.856

> <W(SA)>
2.070

> <Valence>
14.117

> <Coulomb>
-1.228

> <VdW>
0.974

> <VdW6>
-4.885

> <VdW12>
5.859

> <Bond>
0.094

> <Angle>
2.818

> <Pdih>
11.205

> <Idih>
0.000

> <Tether>
0.000

$$$$
VeraChem MOL file


 17 16  0  0  0  0  0  0  0  0999 V2000     
   22.4930   17.5063   21.3525 C   0  0  0  0  0  0  0  0  0  0  0  0
   23.0021   17.1984   22.4121 O   0  5  0  0  0  0  0  0  0  0  0  0
   22.3160   16.7239   20.4395 O   0  0  0  0  0  0  0  0  0  0  0  0
   22.0621   18.9532   21.1515 C   0  0  0  0  0  0  0  0  0  0  0  0
   22.3469   19.2491   20.1352 H   0  0  0  0  0  0  0  0  0  0  0  0
   22.6375   19.5817   21.8418 H   0  0  0  0  0  0  0  0  0  0  0  0
   20.5714   19.1486   21.3524 C   0  0  0  0  0  0  0  0  0  0  0  0
   19.9355   18.6765   20.6041 H   0  0  0  0  0  0  0  0  0  0  0  0
   20.0335   19.8359   22.3646 C   0  0  0  0  0  0  0  0  0  0  0  0
   20.6697   20.3034   23.1155 H   0  0  0  0  0  0  0  0  0  0  0  0
   18.5467   20.0271   22.5648 C   0  0  0  0  0  0  0  0  0  0  0  0
   18.3317   21.0866   22.7590 H   0  0  0  0  0  0  0  0  0  0  0  0
   17.9980   19.7560   21.6522 H   0  0  0  0  0  0  0  0  0  0  0  0
   18.0325   19.1743   23.7409 C   0  0  0  0  0  0  0  0  0  0  0  0
   18.5372   19.4515   24.6757 H   0  0  0  0  0  0  0  0  0  0  0  0
   16.9531   19.3165   23.8814 H   0  0  0  0  0  0  0  0  0  0  0  0
   18.2148   18.1072   23.5574 H   0  0  0  0  0  0  0  0  0  0  0  0
  1  2  1  0  0  0  0
  1  3  2  0  0  0  0
  1  4  1  0  0  0  0
  4  5  1  0  0  0  0
  4  6  1  0  0  0  0
  4  7  1  0  0  0  0
  7  8  1  0  0  0  0
  7  9  2  0  0  0  0
  9 10  1  0  0  0  0
  9 11  1  0  0  0  0
 11 12  1  0  0  0  0
 11 13  1  0  0  0  0
 11 14  1  0  0  0  0
 14 15  1  0  0  0  0
 14 16  1  0  0  0  0
 14 17  1  0  0  0  0
M  END
> <VConfSearch Rank>
844

> <Conf_Id>
7

> <Delta U+W>
-0.041

> <U+W>
-49.468

> <U>
14.121

> <W>
-63.589

> <W(PB)>
-65.660

> <W(SA)>
2.071

> <Valence>
15.230

> <Coulomb>
-1.333

> <VdW>
0.224

> <VdW6>
-4.212

> <VdW12>
4.436

> <Bond>
0.044

> <Angle>
2.230

> <Pdih>
12.956

> <Idih>
0.000

> <Tether>
0.000

$$$$
VeraChem MOL file


 17 16  0  0  0  0  0  0  0  0999 V2000     
   18.0629   17.6130   23.0406 C   0  0  0  0  0  0  0  0  0  0  0  0
   17.7090   18.1513   24.0712 O   0  5  0  0  0  0  0  0  0  0  0  0
   18.3657   16.4384   22.9665 O   0  0  0  0  0  0  0  0  0  0  0  0
   18.1022   18.4501   21.7657 C   0  0  0  0  0  0  0  0  0  0  0  0
   17.3112   19.2058   21.8350 H   0  0  0  0  0  0  0  0  0  0  0  0
   17.8249   17.7994   20.9282 H   0  0  0  0  0  0  0  0  0  0  0  0
   19.4313   19.1289   21.4661 C   0  0  0  0  0  0  0  0  0  0  0  0
   19.4375   19.7210   20.5518 H   0  0  0  0  0  0  0  0  0  0  0  0
   20.5389   19.0540   22.2135 C   0  0  0  0  0  0  0  0  0  0  0  0
   20.5592   18.4697   23.1326 H   0  0  0  0  0  0  0  0  0  0  0  0
   21.8379   19.7485   21.8695 C   0  0  0  0  0  0  0  0  0  0  0  0
   22.6721   19.0395   21.9595 H   0  0  0  0  0  0  0  0  0  0  0  0
   21.8269   20.0911   20.8257 H   0  0  0  0  0  0  0  0  0  0  0  0
   22.0848   20.9528   22.7989 C   0  0  0  0  0  0  0  0  0  0  0  0
   23.0291   21.4520   22.5457 H   0  0  0  0  0  0  0  0  0  0  0  0
   21.2749   21.6885   22.7069 H   0  0  0  0  0  0  0  0  0  0  0  0
   22.1387   20.6332   23.8479 H   0  0  0  0  0  0  0  0  0  0  0  0
  1  2  1  0  0  0  0
  1  3  2  0  0  0  0
  1  4  1  0  0  0  0
  4  5  1  0  0  0  0
  4  6  1  0  0  0  0
  4  7  1  0  0  0  0
  7  8  1  0  0  0  0
  7  9  2  0  0  0  0
  9 10  1  0  0  0  0
  9 11  1  0  0  0  0
 11 12  1  0  0  0  0
 11 13  1  0  0  0  0
 11 14  1  0  0  0  0
 14 15  1  0  0  0  0
 14 16  1  0  0  0  0
 14 17  1  0  0  0  0
M  END
> <VConfSearch Rank>
845

> <Conf_Id>
39

> <Delta U+W>
-0.422

> <U+W>
-49.849

> <U>
14.465

> <W>
-64.314

> <W(PB)>
-66.406

> <W(SA)>
2.093

> <Valence>
14.072

> <Coulomb>
-0.199

> <VdW>
0.592

> <VdW6>
-5.019

> <VdW12>
5.611

> <Bond>
0.085

> <Angle>
2.748

> <Pdih>
11.238

> <Idih>
0.001

> <Tether>
0.000

$$$$
VeraChem MOL file


 17 16  0  0  0  0  0  0  0  0999 V2000     
   23.1878   19.1481   22.8286 C   0  0  0  0  0  0  0  0  0  0  0  0
   23.9584   19.0061   21.8996 O   0  5  0  0  0  0  0  0  0  0  0  0
   23.3215   18.5961   23.9030 O   0  0  0  0  0  0  0  0  0  0  0  0
   21.9932   20.0730   22.6356 C   0  0  0  0  0  0  0  0  0  0  0  0
   22.3378   20.9542   22.0822 H   0  0  0  0  0  0  0  0  0  0  0  0
   21.6662   20.4216   23.6226 H   0  0  0  0  0  0  0  0  0  0  0  0
   20.8543   19.4029   21.8909 C   0  0  0  0  0  0  0  0  0  0  0  0
   21.0546   19.1719   20.8451 H   0  0  0  0  0  0  0  0  0  0  0  0
   19.6746   19.0976   22.4399 C   0  0  0  0  0  0  0  0  0  0  0  0
   19.4760   19.3261   23.4865 H   0  0  0  0  0  0  0  0  0  0  0  0
   18.5415   18.4260   21.6968 C   0  0  0  0  0  0  0  0  0  0  0  0
   18.9011   18.0024   20.7489 H   0  0  0  0  0  0  0  0  0  0  0  0
   18.1548   17.5866   22.2905 H   0  0  0  0  0  0  0  0  0  0  0  0
   17.4003   19.4213   21.4102 C   0  0  0  0  0  0  0  0  0  0  0  0
   17.7577   20.2577   20.7952 H   0  0  0  0  0  0  0  0  0  0  0  0
   16.5808   18.9282   20.8715 H   0  0  0  0  0  0  0  0  0  0  0  0
   16.9952   19.8323   22.3443 H   0  0  0  0  0  0  0  0  0  0  0  0
  1  2  1  0  0  0  0
  1  3  2  0  0  0  0
  1  4  1  0  0  0  0
  4  5  1  0  0  0  0
  4  6  1  0  0  0  0
  4  7  1  0  0  0  0
  7  8  1  0  0  0  0
  7  9  2  0  0  0  0
  9 10  1  0  0  0  0
  9 11  1  0  0  0  0
 11 12  1  0  0  0  0
 11 13  1  0  0  0  0
 11 14  1  0  0  0  0
 14 15  1  0  0  0  0
 14 16  1  0  0  0  0
 14 17  1  0  0  0  0
M  END
> <VConfSearch Rank>
846

> <Conf_Id>
38

> <Delta U+W>
0.000

> <U+W>
-49.427

> <U>
13.666

> <W>
-63.093

> <W(PB)>
-65.225

> <W(SA)>
2.132

> <Valence>
15.226

> <Coulomb>
-1.822

> <VdW>
0.261

> <VdW6>
-4.165

> <VdW12>
4.426

> <Bond>
0.044

> <Angle>
2.229

> <Pdih>
12.953

> <Idih>
0.000

> <Tether>
0.000

$$$$
VeraChem MOL file


 17 16  0  0  0  0  0  0  0  0999 V2000     
   19.4611   16.1799   21.8019 C   0  0  0  0  0  0  0  0  0  0  0  0
   20.4670   15.5446   22.0497 O   0  5  0  0  0  0  0  0  0  0  0  0
   18.6664   15.8694   20.9365 O   0  0  0  0  0  0  0  0  0  0  0  0
   19.1763   17.4307   22.6228 C   0  0  0  0  0  0  0  0  0  0  0  0
   19.7021   17.3394   23.5809 H   0  0  0  0  0  0  0  0  0  0  0  0
   18.1034   17.4476   22.8462 H   0  0  0  0  0  0  0  0  0  0  0  0
   19.5782   18.7031   21.9014 C   0  0  0  0  0  0  0  0  0  0  0  0
   18.9845   18.9455   21.0205 H   0  0  0  0  0  0  0  0  0  0  0  0
   20.5831   19.4973   22.2827 C   0  0  0  0  0  0  0  0  0  0  0  0
   21.1784   19.2526   23.1618 H   0  0  0  0  0  0  0  0  0  0  0  0
   20.9849   20.7636   21.5598 C   0  0  0  0  0  0  0  0  0  0  0  0
   22.0719   20.7711   21.4017 H   0  0  0  0  0  0  0  0  0  0  0  0
   20.5212   20.8016   20.5645 H   0  0  0  0  0  0  0  0  0  0  0  0
   20.5738   22.0135   22.3621 C   0  0  0  0  0  0  0  0  0  0  0  0
   21.0543   22.0210   23.3493 H   0  0  0  0  0  0  0  0  0  0  0  0
   20.8686   22.9291   21.8329 H   0  0  0  0  0  0  0  0  0  0  0  0
   19.4863   22.0411   22.5108 H   0  0  0  0  0  0  0  0  0  0  0  0
  1  2  1  0  0  0  0
  1  3  2  0  0  0  0
  1  4  1  0  0  0  0
  4  5  1  0  0  0  0
  4  6  1  0  0  0  0
  4  7  1  0  0  0  0
  7  8  1  0  0  0  0
  7  9  2  0  0  0  0
  9 10  1  0  0  0  0
  9 11  1  0  0  0  0
 11 12  1  0  0  0  0
 11 13  1  0  0  0  0
 11 14  1  0  0  0  0
 14 15  1  0  0  0  0
 14 16  1  0  0  0  0
 14 17  1  0  0  0  0
M  END
> <VConfSearch Rank>
847

> <Conf_Id>
35

> <Delta U+W>
-0.102

> <U+W>
-49.529

> <U>
13.666

> <W>
-63.195

> <W(PB)>
-65.299

> <W(SA)>
2.103

> <Valence>
15.226

> <Coulomb>
-1.822

> <VdW>
0.261

> <VdW6>
-4.165

> <VdW12>
4.426

> <Bond>
0.044

> <Angle>
2.229

> <Pdih>
12.953

> <Idih>
0.000

> <Tether>
0.000

$$$$
VeraChem MOL file


 17 16  0  0  0  0  0  0  0  0999 V2000     
   19.4725   17.3993   19.9113 C   0  0  0  0  0  0  0  0  0  0  0  0
   19.3656   16.2435   20.2716 O   0  5  0  0  0  0  0  0  0  0  0  0
   18.6670   17.9560   19.1914 O   0  0  0  0  0  0  0  0  0  0  0  0
   20.6877   18.1882   20.3808 C   0  0  0  0  0  0  0  0  0  0  0  0
   20.8655   19.0014   19.6669 H   0  0  0  0  0  0  0  0  0  0  0  0
   21.5577   17.5233   20.3322 H   0  0  0  0  0  0  0  0  0  0  0  0
   20.5217   18.7260   21.7896 C   0  0  0  0  0  0  0  0  0  0  0  0
   20.4990   17.9642   22.5669 H   0  0  0  0  0  0  0  0  0  0  0  0
   20.4043   20.0269   22.0837 C   0  0  0  0  0  0  0  0  0  0  0  0
   20.4271   20.7604   21.2784 H   0  0  0  0  0  0  0  0  0  0  0  0
   20.2322   20.6329   23.4664 C   0  0  0  0  0  0  0  0  0  0  0  0
   21.0476   21.3464   23.6472 H   0  0  0  0  0  0  0  0  0  0  0  0
   19.3097   21.2290   23.4819 H   0  0  0  0  0  0  0  0  0  0  0  0
   20.1907   19.6123   24.6251 C   0  0  0  0  0  0  0  0  0  0  0  0
   21.1224   19.0336   24.6740 H   0  0  0  0  0  0  0  0  0  0  0  0
   20.0636   20.1265   25.5865 H   0  0  0  0  0  0  0  0  0  0  0  0
   19.3525   18.9134   24.5044 H   0  0  0  0  0  0  0  0  0  0  0  0
  1  2  1  0  0  0  0
  1  3  2  0  0  0  0
  1  4  1  0  0  0  0
  4  5  1  0  0  0  0
  4  6  1  0  0  0  0
  4  7  1  0  0  0  0
  7  8  1  0  0  0  0
  7  9  2  0  0  0  0
  9 10  1  0  0  0  0
  9 11  1  0  0  0  0
 11 12  1  0  0  0  0
 11 13  1  0  0  0  0
 11 14  1  0  0  0  0
 14 15  1  0  0  0  0
 14 16  1  0  0  0  0
 14 17  1  0  0  0  0
M  END
> <VConfSearch Rank>
848

> <Conf_Id>
19

> <Delta U+W>
-0.496

> <U+W>
-49.923

> <U>
13.863

> <W>
-63.786

> <W(PB)>
-65.856

> <W(SA)>
2.070

> <Valence>
14.117

> <Coulomb>
-1.228

> <VdW>
0.974

> <VdW6>
-4.885

> <VdW12>
5.859

> <Bond>
0.094

> <Angle>
2.818

> <Pdih>
11.205

> <Idih>
0.000

> <Tether>
0.000

$$$$
VeraChem MOL file


 17 16  0  0  0  0  0  0  0  0999 V2000     
   17.9015   17.8560   20.7735 C   0  0  0  0  0  0  0  0  0  0  0  0
   17.2894   17.3066   21.6681 O   0  5  0  0  0  0  0  0  0  0  0  0
   17.3733   18.5415   19.9202 O   0  0  0  0  0  0  0  0  0  0  0  0
   19.4116   17.6678   20.7099 C   0  0  0  0  0  0  0  0  0  0  0  0
   19.6857   17.5143   19.6597 H   0  0  0  0  0  0  0  0  0  0  0  0
   19.6654   16.7454   21.2459 H   0  0  0  0  0  0  0  0  0  0  0  0
   20.1691   18.8528   21.2781 C   0  0  0  0  0  0  0  0  0  0  0  0
   20.0885   19.7751   20.7035 H   0  0  0  0  0  0  0  0  0  0  0  0
   20.8889   18.8146   22.4035 C   0  0  0  0  0  0  0  0  0  0  0  0
   20.9650   17.8934   22.9804 H   0  0  0  0  0  0  0  0  0  0  0  0
   21.6411   19.9981   22.9699 C   0  0  0  0  0  0  0  0  0  0  0  0
   22.6652   19.6973   23.2291 H   0  0  0  0  0  0  0  0  0  0  0  0
   21.7270   20.7946   22.2180 H   0  0  0  0  0  0  0  0  0  0  0  0
   20.9361   20.5537   24.2227 C   0  0  0  0  0  0  0  0  0  0  0  0
   20.8709   19.7883   25.0072 H   0  0  0  0  0  0  0  0  0  0  0  0
   21.4858   21.4125   24.6293 H   0  0  0  0  0  0  0  0  0  0  0  0
   19.9170   20.8841   23.9819 H   0  0  0  0  0  0  0  0  0  0  0  0
  1  2  1  0  0  0  0
  1  3  2  0  0  0  0
  1  4  1  0  0  0  0
  4  5  1  0  0  0  0
  4  6  1  0  0  0  0
  4  7  1  0  0  0  0
  7  8  1  0  0  0  0
  7  9  2  0  0  0  0
  9 10  1  0  0  0  0
  9 11  1  0  0  0  0
 11 12  1  0  0  0  0
 11 13  1  0  0  0  0
 11 14  1  0  0  0  0
 14 15  1  0  0  0  0
 14 16  1  0  0  0  0
 14 17  1  0  0  0  0
M  END
> <VConfSearch Rank>
849

> <Conf_Id>
7

> <Delta U+W>
-0.041

> <U+W>
-49.468

> <U>
14.121

> <W>
-63.589

> <W(PB)>
-65.660

> <W(SA)>
2.071

> <Valence>
15.230

> <Coulomb>
-1.333

> <VdW>
0.224

> <VdW6>
-4.212

> <VdW12>
4.436

> <Bond>
0.044

> <Angle>
2.230

> <Pdih>
12.956

> <Idih>
0.000

> <Tether>
0.000

$$$$
VeraChem MOL file


 17 16  0  0  0  0  0  0  0  0999 V2000     
   20.3241   20.5149   19.8073 C   0  0  0  0  0  0  0  0  0  0  0  0
   21.0300   19.7284   19.2071 O   0  5  0  0  0  0  0  0  0  0  0  0
   20.5759   21.6994   19.9106 O   0  0  0  0  0  0  0  0  0  0  0  0
   19.0386   19.9926   20.4415 C   0  0  0  0  0  0  0  0  0  0  0  0
   18.6671   19.1697   19.8198 H   0  0  0  0  0  0  0  0  0  0  0  0
   18.2847   20.7855   20.3739 H   0  0  0  0  0  0  0  0  0  0  0  0
   19.1606   19.5262   21.8853 C   0  0  0  0  0  0  0  0  0  0  0  0
   18.2316   19.1575   22.3185 H   0  0  0  0  0  0  0  0  0  0  0  0
   20.2770   19.5352   22.6232 C   0  0  0  0  0  0  0  0  0  0  0  0
   21.2192   19.8978   22.2140 H   0  0  0  0  0  0  0  0  0  0  0  0
   20.3445   19.0607   24.0579 C   0  0  0  0  0  0  0  0  0  0  0  0
   20.8690   19.8065   24.6704 H   0  0  0  0  0  0  0  0  0  0  0  0
   19.3344   18.9615   24.4787 H   0  0  0  0  0  0  0  0  0  0  0  0
   21.0745   17.7073   24.1596 C   0  0  0  0  0  0  0  0  0  0  0  0
   21.1217   17.3686   25.2027 H   0  0  0  0  0  0  0  0  0  0  0  0
   20.5529   16.9382   23.5747 H   0  0  0  0  0  0  0  0  0  0  0  0
   22.1017   17.7871   23.7803 H   0  0  0  0  0  0  0  0  0  0  0  0
  1  2  1  0  0  0  0
  1  3  2  0  0  0  0
  1  4  1  0  0  0  0
  4  5  1  0  0  0  0
  4  6  1  0  0  0  0
  4  7  1  0  0  0  0
  7  8  1  0  0  0  0
  7  9  2  0  0  0  0
  9 10  1  0  0  0  0
  9 11  1  0  0  0  0
 11 12  1  0  0  0  0
 11 13  1  0  0  0  0
 11 14  1  0  0  0  0
 14 15  1  0  0  0  0
 14 16  1  0  0  0  0
 14 17  1  0  0  0  0
M  END
> <VConfSearch Rank>
850

> <Conf_Id>
39

> <Delta U+W>
-0.422

> <U+W>
-49.849

> <U>
14.465

> <W>
-64.314

> <W(PB)>
-66.406

> <W(SA)>
2.093

> <Valence>
14.072

> <Coulomb>
-0.199

> <VdW>
0.592

> <VdW6>
-5.019

> <VdW12>
5.611

> <Bond>
0.085

> <Angle>
2.748

> <Pdih>
11.238

> <Idih>
0.001

> <Tether>
0.000

$$$$
VeraChem MOL file


 17 16  0  0  0  0  0  0  0  0999 V2000     
   18.3954   17.4239   20.1927 C   0  0  0  0  0  0  0  0  0  0  0  0
   18.7433   16.2627   20.1057 O   0  5  0  0  0  0  0  0  0  0  0  0
   18.0064   18.0814   19.2477 O   0  0  0  0  0  0  0  0  0  0  0  0
   18.4454   18.0875   21.5626 C   0  0  0  0  0  0  0  0  0  0  0  0
   18.0856   17.3609   22.3002 H   0  0  0  0  0  0  0  0  0  0  0  0
   17.7365   18.9243   21.5645 H   0  0  0  0  0  0  0  0  0  0  0  0
   19.8403   18.5559   21.9306 C   0  0  0  0  0  0  0  0  0  0  0  0
   20.5664   17.7625   22.1052 H   0  0  0  0  0  0  0  0  0  0  0  0
   20.1970   19.8392   22.0411 C   0  0  0  0  0  0  0  0  0  0  0  0
   19.4712   20.6322   21.8634 H   0  0  0  0  0  0  0  0  0  0  0  0
   21.5894   20.3045   22.4044 C   0  0  0  0  0  0  0  0  0  0  0  0
   22.3071   19.4776   22.3129 H   0  0  0  0  0  0  0  0  0  0  0  0
   21.9150   21.0836   21.7019 H   0  0  0  0  0  0  0  0  0  0  0  0
   21.6307   20.8589   23.8417 C   0  0  0  0  0  0  0  0  0  0  0  0
   21.3332   20.0886   24.5654 H   0  0  0  0  0  0  0  0  0  0  0  0
   22.6433   21.1955   24.0994 H   0  0  0  0  0  0  0  0  0  0  0  0
   20.9495   21.7129   23.9519 H   0  0  0  0  0  0  0  0  0  0  0  0
  1  2  1  0  0  0  0
  1  3  2  0  0  0  0
  1  4  1  0  0  0  0
  4  5  1  0  0  0  0
  4  6  1  0  0  0  0
  4  7  1  0  0  0  0
  7  8  1  0  0  0  0
  7  9  2  0  0  0  0
  9 10  1  0  0  0  0
  9 11  1  0  0  0  0
 11 12  1  0  0  0  0
 11 13  1  0  0  0  0
 11 14  1  0  0  0  0
 14 15  1  0  0  0  0
 14 16  1  0  0  0  0
 14 17  1  0  0  0  0
M  END
> <VConfSearch Rank>
851

> <Conf_Id>
38

> <Delta U+W>
0.000

> <U+W>
-49.427

> <U>
13.666

> <W>
-63.093

> <W(PB)>
-65.225

> <W(SA)>
2.132

> <Valence>
15.226

> <Coulomb>
-1.822

> <VdW>
0.261

> <VdW6>
-4.165

> <VdW12>
4.426

> <Bond>
0.044

> <Angle>
2.229

> <Pdih>
12.953

> <Idih>
0.000

> <Tether>
0.000

$$$$
VeraChem MOL file


 17 16  0  0  0  0  0  0  0  0999 V2000     
   19.5232   20.7552   24.8413 C   0  0  0  0  0  0  0  0  0  0  0  0
   20.2746   20.3208   25.6919 O   0  5  0  0  0  0  0  0  0  0  0  0
   18.3701   21.0701   25.0608 O   0  0  0  0  0  0  0  0  0  0  0  0
   20.0550   20.9200   23.4237 C   0  0  0  0  0  0  0  0  0  0  0  0
   21.1466   21.0117   23.4753 H   0  0  0  0  0  0  0  0  0  0  0  0
   19.6719   21.8687   23.0304 H   0  0  0  0  0  0  0  0  0  0  0  0
   19.6479   19.7766   22.5140 C   0  0  0  0  0  0  0  0  0  0  0  0
   18.5841   19.7205   22.2852 H   0  0  0  0  0  0  0  0  0  0  0  0
   20.4994   18.8786   22.0093 C   0  0  0  0  0  0  0  0  0  0  0  0
   21.5626   18.9334   22.2410 H   0  0  0  0  0  0  0  0  0  0  0  0
   20.0910   17.7368   21.1055 C   0  0  0  0  0  0  0  0  0  0  0  0
   20.5366   16.8002   21.4671 H   0  0  0  0  0  0  0  0  0  0  0  0
   19.0014   17.5977   21.1302 H   0  0  0  0  0  0  0  0  0  0  0  0
   20.5397   17.9921   19.6534 C   0  0  0  0  0  0  0  0  0  0  0  0
   21.6309   18.0971   19.5933 H   0  0  0  0  0  0  0  0  0  0  0  0
   20.2412   17.1600   19.0025 H   0  0  0  0  0  0  0  0  0  0  0  0
   20.0855   18.9115   19.2609 H   0  0  0  0  0  0  0  0  0  0  0  0
  1  2  1  0  0  0  0
  1  3  2  0  0  0  0
  1  4  1  0  0  0  0
  4  5  1  0  0  0  0
  4  6  1  0  0  0  0
  4  7  1  0  0  0  0
  7  8  1  0  0  0  0
  7  9  2  0  0  0  0
  9 10  1  0  0  0  0
  9 11  1  0  0  0  0
 11 12  1  0  0  0  0
 11 13  1  0  0  0  0
 11 14  1  0  0  0  0
 14 15  1  0  0  0  0
 14 16  1  0  0  0  0
 14 17  1  0  0  0  0
M  END
> <VConfSearch Rank>
852

> <Conf_Id>
35

> <Delta U+W>
-0.102

> <U+W>
-49.529

> <U>
13.666

> <W>
-63.195

> <W(PB)>
-65.299

> <W(SA)>
2.103

> <Valence>
15.226

> <Coulomb>
-1.822

> <VdW>
0.261

> <VdW6>
-4.165

> <VdW12>
4.426

> <Bond>
0.044

> <Angle>
2.229

> <Pdih>
12.953

> <Idih>
0.000

> <Tether>
0.000

$$$$
VeraChem MOL file


 17 16  0  0  0  0  0  0  0  0999 V2000     
   19.5369   18.1785   19.4853 C   0  0  0  0  0  0  0  0  0  0  0  0
   19.3675   19.1355   18.7556 O   0  5  0  0  0  0  0  0  0  0  0  0
   20.1866   17.2007   19.1712 O   0  0  0  0  0  0  0  0  0  0  0  0
   18.8911   18.2040   20.8644 C   0  0  0  0  0  0  0  0  0  0  0  0
   18.7638   17.1686   21.2026 H   0  0  0  0  0  0  0  0  0  0  0  0
   17.8875   18.6314   20.7562 H   0  0  0  0  0  0  0  0  0  0  0  0
   19.6949   19.0103   21.8670 C   0  0  0  0  0  0  0  0  0  0  0  0
   19.7245   20.0805   21.6699 H   0  0  0  0  0  0  0  0  0  0  0  0
   20.3322   18.4759   22.9162 C   0  0  0  0  0  0  0  0  0  0  0  0
   20.2835   17.3997   23.0788 H   0  0  0  0  0  0  0  0  0  0  0  0
   21.1552   19.2207   23.9538 C   0  0  0  0  0  0  0  0  0  0  0  0
   20.7378   19.0218   24.9501 H   0  0  0  0  0  0  0  0  0  0  0  0
   22.1707   18.8022   23.9704 H   0  0  0  0  0  0  0  0  0  0  0  0
   21.2445   20.7481   23.7414 C   0  0  0  0  0  0  0  0  0  0  0  0
   20.2487   21.2092   23.7731 H   0  0  0  0  0  0  0  0  0  0  0  0
   21.8543   21.2110   24.5281 H   0  0  0  0  0  0  0  0  0  0  0  0
   21.7073   20.9849   22.7743 H   0  0  0  0  0  0  0  0  0  0  0  0
  1  2  1  0  0  0  0
  1  3  2  0  0  0  0
  1  4  1  0  0  0  0
  4  5  1  0  0  0  0
  4  6  1  0  0  0  0
  4  7  1  0  0  0  0
  7  8  1  0  0  0  0
  7  9  2  0  0  0  0
  9 10  1  0  0  0  0
  9 11  1  0  0  0  0
 11 12  1  0  0  0  0
 11 13  1  0  0  0  0
 11 14  1  0  0  0  0
 14 15  1  0  0  0  0
 14 16  1  0  0  0  0
 14 17  1  0  0  0  0
M  END
> <VConfSearch Rank>
853

> <Conf_Id>
19

> <Delta U+W>
-0.496

> <U+W>
-49.923

> <U>
13.863

> <W>
-63.786

> <W(PB)>
-65.856

> <W(SA)>
2.070

> <Valence>
14.117

> <Coulomb>
-1.228

> <VdW>
0.974

> <VdW6>
-4.885

> <VdW12>
5.859

> <Bond>
0.094

> <Angle>
2.818

> <Pdih>
11.205

> <Idih>
0.000

> <Tether>
0.000

$$$$
VeraChem MOL file


 17 16  0  0  0  0  0  0  0  0999 V2000     
   22.8077   18.5725   23.3760 C   0  0  0  0  0  0  0  0  0  0  0  0
   23.5060   19.3622   22.7715 O   0  5  0  0  0  0  0  0  0  0  0  0
   22.8506   18.4231   24.5814 O   0  0  0  0  0  0  0  0  0  0  0  0
   21.8324   17.7145   22.5807 C   0  0  0  0  0  0  0  0  0  0  0  0
   21.8708   16.6981   22.9894 H   0  0  0  0  0  0  0  0  0  0  0  0
   22.1903   17.6579   21.5457 H   0  0  0  0  0  0  0  0  0  0  0  0
   20.4126   18.2452   22.6369 C   0  0  0  0  0  0  0  0  0  0  0  0
   19.9327   18.1871   23.6133 H   0  0  0  0  0  0  0  0  0  0  0  0
   19.7622   18.7627   21.5903 C   0  0  0  0  0  0  0  0  0  0  0  0
   20.2444   18.8253   20.6153 H   0  0  0  0  0  0  0  0  0  0  0  0
   18.3474   19.2941   21.6491 C   0  0  0  0  0  0  0  0  0  0  0  0
   17.7618   18.8830   20.8157 H   0  0  0  0  0  0  0  0  0  0  0  0
   17.8522   18.9675   22.5739 H   0  0  0  0  0  0  0  0  0  0  0  0
   18.3312   20.8335   21.5785 C   0  0  0  0  0  0  0  0  0  0  0  0
   18.7861   21.1876   20.6441 H   0  0  0  0  0  0  0  0  0  0  0  0
   17.3023   21.2138   21.6220 H   0  0  0  0  0  0  0  0  0  0  0  0
   18.8909   21.2679   22.4173 H   0  0  0  0  0  0  0  0  0  0  0  0
  1  2  1  0  0  0  0
  1  3  2  0  0  0  0
  1  4  1  0  0  0  0
  4  5  1  0  0  0  0
  4  6  1  0  0  0  0
  4  7  1  0  0  0  0
  7  8  1  0  0  0  0
  7  9  2  0  0  0  0
  9 10  1  0  0  0  0
  9 11  1  0  0  0  0
 11 12  1  0  0  0  0
 11 13  1  0  0  0  0
 11 14  1  0  0  0  0
 14 15  1  0  0  0  0
 14 16  1  0  0  0  0
 14 17  1  0  0  0  0
M  END
> <VConfSearch Rank>
854

> <Conf_Id>
7

> <Delta U+W>
-0.041

> <U+W>
-49.468

> <U>
14.121

> <W>
-63.589

> <W(PB)>
-65.660

> <W(SA)>
2.071

> <Valence>
15.230

> <Coulomb>
-1.333

> <VdW>
0.224

> <VdW6>
-4.212

> <VdW12>
4.436

> <Bond>
0.044

> <Angle>
2.230

> <Pdih>
12.956

> <Idih>
0.000

> <Tether>
0.000

$$$$
VeraChem MOL file


 17 16  0  0  0  0  0  0  0  0999 V2000     
   17.5027   20.1159   22.3854 C   0  0  0  0  0  0  0  0  0  0  0  0
   17.6452   21.3217   22.3330 O   0  5  0  0  0  0  0  0  0  0  0  0
   16.8793   19.5510   23.2626 O   0  0  0  0  0  0  0  0  0  0  0  0
   18.1157   19.2676   21.2753 C   0  0  0  0  0  0  0  0  0  0  0  0
   18.0980   19.8583   20.3520 H   0  0  0  0  0  0  0  0  0  0  0  0
   17.4513   18.4136   21.0996 H   0  0  0  0  0  0  0  0  0  0  0  0
   19.5302   18.7688   21.5346 C   0  0  0  0  0  0  0  0  0  0  0  0
   19.9486   18.1654   20.7299 H   0  0  0  0  0  0  0  0  0  0  0  0
   20.2613   19.0103   22.6292 C   0  0  0  0  0  0  0  0  0  0  0  0
   19.8672   19.6112   23.4479 H   0  0  0  0  0  0  0  0  0  0  0  0
   21.6654   18.4883   22.8387 C   0  0  0  0  0  0  0  0  0  0  0  0
   21.7480   18.0377   23.8370 H   0  0  0  0  0  0  0  0  0  0  0  0
   21.8931   17.6940   22.1146 H   0  0  0  0  0  0  0  0  0  0  0  0
   22.7031   19.6191   22.6982 C   0  0  0  0  0  0  0  0  0  0  0  0
   23.7198   19.2351   22.8525 H   0  0  0  0  0  0  0  0  0  0  0  0
   22.6566   20.0685   21.6974 H   0  0  0  0  0  0  0  0  0  0  0  0
   22.5219   20.4107   23.4371 H   0  0  0  0  0  0  0  0  0  0  0  0
  1  2  1  0  0  0  0
  1  3  2  0  0  0  0
  1  4  1  0  0  0  0
  4  5  1  0  0  0  0
  4  6  1  0  0  0  0
  4  7  1  0  0  0  0
  7  8  1  0  0  0  0
  7  9  2  0  0  0  0
  9 10  1  0  0  0  0
  9 11  1  0  0  0  0
 11 12  1  0  0  0  0
 11 13  1  0  0  0  0
 11 14  1  0  0  0  0
 14 15  1  0  0  0  0
 14 16  1  0  0  0  0
 14 17  1  0  0  0  0
M  END
> <VConfSearch Rank>
855

> <Conf_Id>
39

> <Delta U+W>
-0.422

> <U+W>
-49.849

> <U>
14.465

> <W>
-64.314

> <W(PB)>
-66.406

> <W(SA)>
2.093

> <Valence>
14.072

> <Coulomb>
-0.199

> <VdW>
0.592

> <VdW6>
-5.019

> <VdW12>
5.611

> <Bond>
0.085

> <Angle>
2.748

> <Pdih>
11.238

> <Idih>
0.001

> <Tether>
0.000

$$$$
VeraChem MOL file


 17 16  0  0  0  0  0  0  0  0999 V2000     
   20.4894   16.9395   20.0021 C   0  0  0  0  0  0  0  0  0  0  0  0
   21.0739   17.2239   18.9752 O   0  5  0  0  0  0  0  0  0  0  0  0
   19.5214   16.2058   20.0431 O   0  0  0  0  0  0  0  0  0  0  0  0
   21.0029   17.5315   21.3080 C   0  0  0  0  0  0  0  0  0  0  0  0
   22.0981   17.4957   21.2842 H   0  0  0  0  0  0  0  0  0  0  0  0
   20.6785   16.8821   22.1300 H   0  0  0  0  0  0  0  0  0  0  0  0
   20.5330   18.9575   21.5237 C   0  0  0  0  0  0  0  0  0  0  0  0
   20.9476   19.6930   20.8350 H   0  0  0  0  0  0  0  0  0  0  0  0
   19.6716   19.3285   22.4759 C   0  0  0  0  0  0  0  0  0  0  0  0
   19.2551   18.5921   23.1623 H   0  0  0  0  0  0  0  0  0  0  0  0
   19.2013   20.7503   22.6871 C   0  0  0  0  0  0  0  0  0  0  0  0
   19.4540   21.3720   21.8171 H   0  0  0  0  0  0  0  0  0  0  0  0
   18.1070   20.7688   22.7804 H   0  0  0  0  0  0  0  0  0  0  0  0
   19.8352   21.3613   23.9520 C   0  0  0  0  0  0  0  0  0  0  0  0
   20.9301   21.3771   23.8706 H   0  0  0  0  0  0  0  0  0  0  0  0
   19.4897   22.3926   24.1003 H   0  0  0  0  0  0  0  0  0  0  0  0
   19.5669   20.7805   24.8442 H   0  0  0  0  0  0  0  0  0  0  0  0
  1  2  1  0  0  0  0
  1  3  2  0  0  0  0
  1  4  1  0  0  0  0
  4  5  1  0  0  0  0
  4  6  1  0  0  0  0
  4  7  1  0  0  0  0
  7  8  1  0  0  0  0
  7  9  2  0  0  0  0
  9 10  1  0  0  0  0
  9 11  1  0  0  0  0
 11 12  1  0  0  0  0
 11 13  1  0  0  0  0
 11 14  1  0  0  0  0
 14 15  1  0  0  0  0
 14 16  1  0  0  0  0
 14 17  1  0  0  0  0
M  END
> <VConfSearch Rank>
856

> <Conf_Id>
38

> <Delta U+W>
0.000

> <U+W>
-49.427

> <U>
13.666

> <W>
-63.093

> <W(PB)>
-65.225

> <W(SA)>
2.132

> <Valence>
15.226

> <Coulomb>
-1.822

> <VdW>
0.261

> <VdW6>
-4.165

> <VdW12>
4.426

> <Bond>
0.044

> <Angle>
2.229

> <Pdih>
12.953

> <Idih>
0.000

> <Tether>
0.000

$$$$
VeraChem MOL file


 17 16  0  0  0  0  0  0  0  0999 V2000     
   21.5817   20.5197   19.6127 C   0  0  0  0  0  0  0  0  0  0  0  0
   21.1071   21.6123   19.3719 O   0  5  0  0  0  0  0  0  0  0  0  0
   21.9491   19.7426   18.7536 O   0  0  0  0  0  0  0  0  0  0  0  0
   21.7298   20.1018   21.0697 C   0  0  0  0  0  0  0  0  0  0  0  0
   21.7697   21.0091   21.6845 H   0  0  0  0  0  0  0  0  0  0  0  0
   22.6979   19.5990   21.1772 H   0  0  0  0  0  0  0  0  0  0  0  0
   20.6125   19.1837   21.5272 C   0  0  0  0  0  0  0  0  0  0  0  0
   20.6079   18.1940   21.0716 H   0  0  0  0  0  0  0  0  0  0  0  0
   19.6784   19.5246   22.4202 C   0  0  0  0  0  0  0  0  0  0  0  0
   19.6817   20.5156   22.8730 H   0  0  0  0  0  0  0  0  0  0  0  0
   18.5626   18.6092   22.8723 C   0  0  0  0  0  0  0  0  0  0  0  0
   17.6039   19.1434   22.8279 H   0  0  0  0  0  0  0  0  0  0  0  0
   18.4749   17.7474   22.1964 H   0  0  0  0  0  0  0  0  0  0  0  0
   18.8054   18.1079   24.3092 C   0  0  0  0  0  0  0  0  0  0  0  0
   18.8592   18.9484   25.0135 H   0  0  0  0  0  0  0  0  0  0  0  0
   17.9922   17.4447   24.6319 H   0  0  0  0  0  0  0  0  0  0  0  0
   19.7475   17.5476   24.3727 H   0  0  0  0  0  0  0  0  0  0  0  0
  1  2  1  0  0  0  0
  1  3  2  0  0  0  0
  1  4  1  0  0  0  0
  4  5  1  0  0  0  0
  4  6  1  0  0  0  0
  4  7  1  0  0  0  0
  7  8  1  0  0  0  0
  7  9  2  0  0  0  0
  9 10  1  0  0  0  0
  9 11  1  0  0  0  0
 11 12  1  0  0  0  0
 11 13  1  0  0  0  0
 11 14  1  0  0  0  0
 14 15  1  0  0  0  0
 14 16  1  0  0  0  0
 14 17  1  0  0  0  0
M  END
> <VConfSearch Rank>
857

> <Conf_Id>
35

> <Delta U+W>
-0.102

> <U+W>
-49.529

> <U>
13.666

> <W>
-63.195

> <W(PB)>
-65.299

> <W(SA)>
2.103

> <Valence>
15.226

> <Coulomb>
-1.822

> <VdW>
0.261

> <VdW6>
-4.165

> <VdW12>
4.426

> <Bond>
0.044

> <Angle>
2.229

> <Pdih>
12.953

> <Idih>
0.000

> <Tether>
0.000

$$$$
VeraChem MOL file


 17 16  0  0  0  0  0  0  0  0999 V2000     
   18.8138   19.8551   24.6832 C   0  0  0  0  0  0  0  0  0  0  0  0
   19.3824   19.3752   25.6441 O   0  5  0  0  0  0  0  0  0  0  0  0
   18.4240   21.0053   24.6385 O   0  0  0  0  0  0  0  0  0  0  0  0
   18.5691   18.9622   23.4739 C   0  0  0  0  0  0  0  0  0  0  0  0
   17.7171   19.3677   22.9150 H   0  0  0  0  0  0  0  0  0  0  0  0
   18.2695   17.9743   23.8424 H   0  0  0  0  0  0  0  0  0  0  0  0
   19.7935   18.8375   22.5870 C   0  0  0  0  0  0  0  0  0  0  0  0
   20.6260   18.2978   23.0351 H   0  0  0  0  0  0  0  0  0  0  0  0
   19.8753   19.3450   21.3507 C   0  0  0  0  0  0  0  0  0  0  0  0
   19.0230   19.8832   20.9371 H   0  0  0  0  0  0  0  0  0  0  0  0
   21.0673   19.2610   20.4122 C   0  0  0  0  0  0  0  0  0  0  0  0
   20.7517   18.7789   19.4771 H   0  0  0  0  0  0  0  0  0  0  0  0
   21.3722   20.2782   20.1315 H   0  0  0  0  0  0  0  0  0  0  0  0
   22.2912   18.5077   20.9784 C   0  0  0  0  0  0  0  0  0  0  0  0
   22.0365   17.4676   21.2203 H   0  0  0  0  0  0  0  0  0  0  0  0
   23.1069   18.4918   20.2439 H   0  0  0  0  0  0  0  0  0  0  0  0
   22.6673   18.9947   21.8878 H   0  0  0  0  0  0  0  0  0  0  0  0
  1  2  1  0  0  0  0
  1  3  2  0  0  0  0
  1  4  1  0  0  0  0
  4  5  1  0  0  0  0
  4  6  1  0  0  0  0
  4  7  1  0  0  0  0
  7  8  1  0  0  0  0
  7  9  2  0  0  0  0
  9 10  1  0  0  0  0
  9 11  1  0  0  0  0
 11 12  1  0  0  0  0
 11 13  1  0  0  0  0
 11 14  1  0  0  0  0
 14 15  1  0  0  0  0
 14 16  1  0  0  0  0
 14 17  1  0  0  0  0
M  END
> <VConfSearch Rank>
858

> <Conf_Id>
19

> <Delta U+W>
-0.496

> <U+W>
-49.923

> <U>
13.863

> <W>
-63.786

> <W(PB)>
-65.856

> <W(SA)>
2.070

> <Valence>
14.117

> <Coulomb>
-1.228

> <VdW>
0.974

> <VdW6>
-4.885

> <VdW12>
5.859

> <Bond>
0.094

> <Angle>
2.818

> <Pdih>
11.205

> <Idih>
0.000

> <Tether>
0.000

$$$$
VeraChem MOL file


 17 16  0  0  0  0  0  0  0  0999 V2000     
   17.5526   20.2972   22.7714 C   0  0  0  0  0  0  0  0  0  0  0  0
   16.8961   19.3500   23.1571 O   0  5  0  0  0  0  0  0  0  0  0  0
   17.5725   21.3744   23.3338 O   0  0  0  0  0  0  0  0  0  0  0  0
   18.3881   20.1310   21.5089 C   0  0  0  0  0  0  0  0  0  0  0  0
   18.2784   21.0441   20.9125 H   0  0  0  0  0  0  0  0  0  0  0  0
   17.9611   19.3100   20.9203 H   0  0  0  0  0  0  0  0  0  0  0  0
   19.8530   19.8788   21.8108 C   0  0  0  0  0  0  0  0  0  0  0  0
   20.3865   20.7168   22.2584 H   0  0  0  0  0  0  0  0  0  0  0  0
   20.4820   18.7246   21.5690 C   0  0  0  0  0  0  0  0  0  0  0  0
   19.9468   17.8853   21.1262 H   0  0  0  0  0  0  0  0  0  0  0  0
   21.9421   18.4743   21.8736 C   0  0  0  0  0  0  0  0  0  0  0  0
   22.4311   18.0224   21.0000 H   0  0  0  0  0  0  0  0  0  0  0  0
   22.4617   19.4221   22.0707 H   0  0  0  0  0  0  0  0  0  0  0  0
   22.1016   17.5428   23.0909 C   0  0  0  0  0  0  0  0  0  0  0  0
   21.6240   16.5716   22.9061 H   0  0  0  0  0  0  0  0  0  0  0  0
   23.1629   17.3648   23.3077 H   0  0  0  0  0  0  0  0  0  0  0  0
   21.6409   17.9860   23.9836 H   0  0  0  0  0  0  0  0  0  0  0  0
  1  2  1  0  0  0  0
  1  3  2  0  0  0  0
  1  4  1  0  0  0  0
  4  5  1  0  0  0  0
  4  6  1  0  0  0  0
  4  7  1  0  0  0  0
  7  8  1  0  0  0  0
  7  9  2  0  0  0  0
  9 10  1  0  0  0  0
  9 11  1  0  0  0  0
 11 12  1  0  0  0  0
 11 13  1  0  0  0  0
 11 14  1  0  0  0  0
 14 15  1  0  0  0  0
 14 16  1  0  0  0  0
 14 17  1  0  0  0  0
M  END
> <VConfSearch Rank>
859

> <Conf_Id>
7

> <Delta U+W>
-0.041

> <U+W>
-49.468

> <U>
14.121

> <W>
-63.589

> <W(PB)>
-65.660

> <W(SA)>
2.071

> <Valence>
15.230

> <Coulomb>
-1.333

> <VdW>
0.224

> <VdW6>
-4.212

> <VdW12>
4.436

> <Bond>
0.044

> <Angle>
2.230

> <Pdih>
12.956

> <Idih>
0.000

> <Tether>
0.000

$$$$
VeraChem MOL file


 17 16  0  0  0  0  0  0  0  0999 V2000     
   17.7668   20.2008   21.1793 C   0  0  0  0  0  0  0  0  0  0  0  0
   16.9961   19.3260   21.5226 O   0  5  0  0  0  0  0  0  0  0  0  0
   17.9027   20.5612   20.0266 O   0  0  0  0  0  0  0  0  0  0  0  0
   18.5874   20.9035   22.2564 C   0  0  0  0  0  0  0  0  0  0  0  0
   17.9893   20.9243   23.1749 H   0  0  0  0  0  0  0  0  0  0  0  0
   18.7122   21.9498   21.9543 H   0  0  0  0  0  0  0  0  0  0  0  0
   19.9498   20.2909   22.5488 C   0  0  0  0  0  0  0  0  0  0  0  0
   20.5188   20.8078   23.3205 H   0  0  0  0  0  0  0  0  0  0  0  0
   20.4711   19.2116   21.9535 C   0  0  0  0  0  0  0  0  0  0  0  0
   19.9228   18.6757   21.1796 H   0  0  0  0  0  0  0  0  0  0  0  0
   21.8339   18.6427   22.2805 C   0  0  0  0  0  0  0  0  0  0  0  0
   22.3900   18.4559   21.3519 H   0  0  0  0  0  0  0  0  0  0  0  0
   22.4238   19.3653   22.8610 H   0  0  0  0  0  0  0  0  0  0  0  0
   21.7089   17.3295   23.0774 C   0  0  0  0  0  0  0  0  0  0  0  0
   22.7006   16.9205   23.3107 H   0  0  0  0  0  0  0  0  0  0  0  0
   21.1779   17.4969   24.0237 H   0  0  0  0  0  0  0  0  0  0  0  0
   21.1553   16.5746   22.5037 H   0  0  0  0  0  0  0  0  0  0  0  0
  1  2  1  0  0  0  0
  1  3  2  0  0  0  0
  1  4  1  0  0  0  0
  4  5  1  0  0  0  0
  4  6  1  0  0  0  0
  4  7  1  0  0  0  0
  7  8  1  0  0  0  0
  7  9  2  0  0  0  0
  9 10  1  0  0  0  0
  9 11  1  0  0  0  0
 11 12  1  0  0  0  0
 11 13  1  0  0  0  0
 11 14  1  0  0  0  0
 14 15  1  0  0  0  0
 14 16  1  0  0  0  0
 14 17  1  0  0  0  0
M  END
> <VConfSearch Rank>
860

> <Conf_Id>
39

> <Delta U+W>
-0.422

> <U+W>
-49.849

> <U>
14.465

> <W>
-64.314

> <W(PB)>
-66.406

> <W(SA)>
2.093

> <Valence>
14.072

> <Coulomb>
-0.199

> <VdW>
0.592

> <VdW6>
-5.019

> <VdW12>
5.611

> <Bond>
0.085

> <Angle>
2.748

> <Pdih>
11.238

> <Idih>
0.001

> <Tether>
0.000

$$$$
VeraChem MOL file


 17 16  0  0  0  0  0  0  0  0999 V2000     
   18.5184   16.6757   22.9641 C   0  0  0  0  0  0  0  0  0  0  0  0
   19.1298   15.8578   23.6230 O   0  5  0  0  0  0  0  0  0  0  0  0
   17.7360   16.3793   22.0827 O   0  0  0  0  0  0  0  0  0  0  0  0
   18.7425   18.1519   23.2645 C   0  0  0  0  0  0  0  0  0  0  0  0
   18.7948   18.2680   24.3532 H   0  0  0  0  0  0  0  0  0  0  0  0
   17.8610   18.7089   22.9246 H   0  0  0  0  0  0  0  0  0  0  0  0
   20.0067   18.6901   22.6220 C   0  0  0  0  0  0  0  0  0  0  0  0
   20.9383   18.2962   23.0271 H   0  0  0  0  0  0  0  0  0  0  0  0
   20.0224   19.5818   21.6266 C   0  0  0  0  0  0  0  0  0  0  0  0
   19.0904   19.9731   21.2199 H   0  0  0  0  0  0  0  0  0  0  0  0
   21.2839   20.1145   20.9846 C   0  0  0  0  0  0  0  0  0  0  0  0
   22.1476   19.4946   21.2619 H   0  0  0  0  0  0  0  0  0  0  0  0
   21.1949   20.0599   19.8911 H   0  0  0  0  0  0  0  0  0  0  0  0
   21.5467   21.5733   21.4065 C   0  0  0  0  0  0  0  0  0  0  0  0
   21.6650   21.6489   22.4955 H   0  0  0  0  0  0  0  0  0  0  0  0
   22.4629   21.9544   20.9371 H   0  0  0  0  0  0  0  0  0  0  0  0
   20.7144   22.2237   21.1069 H   0  0  0  0  0  0  0  0  0  0  0  0
  1  2  1  0  0  0  0
  1  3  2  0  0  0  0
  1  4  1  0  0  0  0
  4  5  1  0  0  0  0
  4  6  1  0  0  0  0
  4  7  1  0  0  0  0
  7  8  1  0  0  0  0
  7  9  2  0  0  0  0
  9 10  1  0  0  0  0
  9 11  1  0  0  0  0
 11 12  1  0  0  0  0
 11 13  1  0  0  0  0
 11 14  1  0  0  0  0
 14 15  1  0  0  0  0
 14 16  1  0  0  0  0
 14 17  1  0  0  0  0
M  END
> <VConfSearch Rank>
861

> <Conf_Id>
38

> <Delta U+W>
0.000

> <U+W>
-49.427

> <U>
13.666

> <W>
-63.093

> <W(PB)>
-65.225

> <W(SA)>
2.132

> <Valence>
15.226

> <Coulomb>
-1.822

> <VdW>
0.261

> <VdW6>
-4.165

> <VdW12>
4.426

> <Bond>
0.044

> <Angle>
2.229

> <Pdih>
12.953

> <Idih>
0.000

> <Tether>
0.000

$$$$
VeraChem MOL file


 17 16  0  0  0  0  0  0  0  0999 V2000     
   20.1180   21.7967   24.0076 C   0  0  0  0  0  0  0  0  0  0  0  0
   19.6256   22.7409   23.4220 O   0  5  0  0  0  0  0  0  0  0  0  0
   21.0637   21.8945   24.7646 O   0  0  0  0  0  0  0  0  0  0  0  0
   19.5153   20.4157   23.7863 C   0  0  0  0  0  0  0  0  0  0  0  0
   18.4770   20.5432   23.4572 H   0  0  0  0  0  0  0  0  0  0  0  0
   19.4840   19.9046   24.7555 H   0  0  0  0  0  0  0  0  0  0  0  0
   20.3046   19.5906   22.7877 C   0  0  0  0  0  0  0  0  0  0  0  0
   21.2974   19.2861   23.1177 H   0  0  0  0  0  0  0  0  0  0  0  0
   19.8542   19.2422   21.5786 C   0  0  0  0  0  0  0  0  0  0  0  0
   18.8626   19.5497   21.2481 H   0  0  0  0  0  0  0  0  0  0  0  0
   20.6442   18.4228   20.5827 C   0  0  0  0  0  0  0  0  0  0  0  0
   20.6122   18.9060   19.5969 H   0  0  0  0  0  0  0  0  0  0  0  0
   21.7018   18.3758   20.8767 H   0  0  0  0  0  0  0  0  0  0  0  0
   20.0815   16.9923   20.4722 C   0  0  0  0  0  0  0  0  0  0  0  0
   19.0344   17.0077   20.1422 H   0  0  0  0  0  0  0  0  0  0  0  0
   20.6582   16.4029   19.7477 H   0  0  0  0  0  0  0  0  0  0  0  0
   20.1270   16.4794   21.4420 H   0  0  0  0  0  0  0  0  0  0  0  0
  1  2  1  0  0  0  0
  1  3  2  0  0  0  0
  1  4  1  0  0  0  0
  4  5  1  0  0  0  0
  4  6  1  0  0  0  0
  4  7  1  0  0  0  0
  7  8  1  0  0  0  0
  7  9  2  0  0  0  0
  9 10  1  0  0  0  0
  9 11  1  0  0  0  0
 11 12  1  0  0  0  0
 11 13  1  0  0  0  0
 11 14  1  0  0  0  0
 14 15  1  0  0  0  0
 14 16  1  0  0  0  0
 14 17  1  0  0  0  0
M  END
> <VConfSearch Rank>
862

> <Conf_Id>
35

> <Delta U+W>
-0.102

> <U+W>
-49.529

> <U>
13.666

> <W>
-63.195

> <W(PB)>
-65.299

> <W(SA)>
2.103

> <Valence>
15.226

> <Coulomb>
-1.822

> <VdW>
0.261

> <VdW6>
-4.165

> <VdW12>
4.426

> <Bond>
0.044

> <Angle>
2.229

> <Pdih>
12.953

> <Idih>
0.000

> <Tether>
0.000

$$$$
VeraChem MOL file


 17 16  0  0  0  0  0  0  0  0999 V2000     
   22.6369   20.1240   23.5552 C   0  0  0  0  0  0  0  0  0  0  0  0
   23.0968   21.0576   22.9276 O   0  5  0  0  0  0  0  0  0  0  0  0
   22.5008   20.1281   24.7628 O   0  0  0  0  0  0  0  0  0  0  0  0
   22.2178   18.8784   22.7855 C   0  0  0  0  0  0  0  0  0  0  0  0
   22.2451   18.0248   23.4734 H   0  0  0  0  0  0  0  0  0  0  0  0
   22.9732   18.6920   22.0135 H   0  0  0  0  0  0  0  0  0  0  0  0
   20.8481   19.0226   22.1495 C   0  0  0  0  0  0  0  0  0  0  0  0
   20.7966   19.7506   21.3418 H   0  0  0  0  0  0  0  0  0  0  0  0
   19.7694   18.3282   22.5330 C   0  0  0  0  0  0  0  0  0  0  0  0
   19.8584   17.6111   23.3485 H   0  0  0  0  0  0  0  0  0  0  0  0
   18.3717   18.4246   21.9451 C   0  0  0  0  0  0  0  0  0  0  0  0
   18.0642   17.4313   21.5911 H   0  0  0  0  0  0  0  0  0  0  0  0
   17.6656   18.6842   22.7454 H   0  0  0  0  0  0  0  0  0  0  0  0
   18.2184   19.4396   20.7908 C   0  0  0  0  0  0  0  0  0  0  0  0
   18.8722   19.1796   19.9480 H   0  0  0  0  0  0  0  0  0  0  0  0
   17.1842   19.4507   20.4229 H   0  0  0  0  0  0  0  0  0  0  0  0
   18.4675   20.4557   21.1242 H   0  0  0  0  0  0  0  0  0  0  0  0
  1  2  1  0  0  0  0
  1  3  2  0  0  0  0
  1  4  1  0  0  0  0
  4  5  1  0  0  0  0
  4  6  1  0  0  0  0
  4  7  1  0  0  0  0
  7  8  1  0  0  0  0
  7  9  2  0  0  0  0
  9 10  1  0  0  0  0
  9 11  1  0  0  0  0
 11 12  1  0  0  0  0
 11 13  1  0  0  0  0
 11 14  1  0  0  0  0
 14 15  1  0  0  0  0
 14 16  1  0  0  0  0
 14 17  1  0  0  0  0
M  END
> <VConfSearch Rank>
863

> <Conf_Id>
19

> <Delta U+W>
-0.496

> <U+W>
-49.923

> <U>
13.863

> <W>
-63.786

> <W(PB)>
-65.856

> <W(SA)>
2.070

> <Valence>
14.117

> <Coulomb>
-1.228

> <VdW>
0.974

> <VdW6>
-4.885

> <VdW12>
5.859

> <Bond>
0.094

> <Angle>
2.818

> <Pdih>
11.205

> <Idih>
0.000

> <Tether>
0.000

$$$$
VeraChem MOL file


 17 16  0  0  0  0  0  0  0  0999 V2000     
   18.1195   17.8152   20.5076 C   0  0  0  0  0  0  0  0  0  0  0  0
   17.0859   18.2205   21.0017 O   0  5  0  0  0  0  0  0  0  0  0  0
   18.3383   17.8158   19.3121 O   0  0  0  0  0  0  0  0  0  0  0  0
   19.1964   17.2661   21.4341 C   0  0  0  0  0  0  0  0  0  0  0  0
   19.6098   16.3637   20.9689 H   0  0  0  0  0  0  0  0  0  0  0  0
   18.7175   16.9540   22.3700 H   0  0  0  0  0  0  0  0  0  0  0  0
   20.3027   18.2697   21.6979 C   0  0  0  0  0  0  0  0  0  0  0  0
   20.9260   18.5115   20.8375 H   0  0  0  0  0  0  0  0  0  0  0  0
   20.5271   18.8463   22.8825 C   0  0  0  0  0  0  0  0  0  0  0  0
   19.9003   18.6080   23.7412 H   0  0  0  0  0  0  0  0  0  0  0  0
   21.6290   19.8491   23.1427 C   0  0  0  0  0  0  0  0  0  0  0  0
   22.1771   19.5703   24.0528 H   0  0  0  0  0  0  0  0  0  0  0  0
   22.3579   19.8412   22.3206 H   0  0  0  0  0  0  0  0  0  0  0  0
   21.0566   21.2710   23.3027 C   0  0  0  0  0  0  0  0  0  0  0  0
   20.3526   21.3174   24.1439 H   0  0  0  0  0  0  0  0  0  0  0  0
   21.8604   21.9947   23.4908 H   0  0  0  0  0  0  0  0  0  0  0  0
   20.5243   21.5814   22.3939 H   0  0  0  0  0  0  0  0  0  0  0  0
  1  2  1  0  0  0  0
  1  3  2  0  0  0  0
  1  4  1  0  0  0  0
  4  5  1  0  0  0  0
  4  6  1  0  0  0  0
  4  7  1  0  0  0  0
  7  8  1  0  0  0  0
  7  9  2  0  0  0  0
  9 10  1  0  0  0  0
  9 11  1  0  0  0  0
 11 12  1  0  0  0  0
 11 13  1  0  0  0  0
 11 14  1  0  0  0  0
 14 15  1  0  0  0  0
 14 16  1  0  0  0  0
 14 17  1  0  0  0  0
M  END
> <VConfSearch Rank>
864

> <Conf_Id>
7

> <Delta U+W>
-0.041

> <U+W>
-49.468

> <U>
14.121

> <W>
-63.589

> <W(PB)>
-65.660

> <W(SA)>
2.071

> <Valence>
15.230

> <Coulomb>
-1.333

> <VdW>
0.224

> <VdW6>
-4.212

> <VdW12>
4.436

> <Bond>
0.044

> <Angle>
2.230

> <Pdih>
12.956

> <Idih>
0.000

> <Tether>
0.000

$$$$
VeraChem MOL file


 17 16  0  0  0  0  0  0  0  0999 V2000     
   22.4411   19.5378   23.7544 C   0  0  0  0  0  0  0  0  0  0  0  0
   23.2077   19.9671   22.9147 O   0  5  0  0  0  0  0  0  0  0  0  0
   22.6676   18.5525   24.4290 O   0  0  0  0  0  0  0  0  0  0  0  0
   21.1368   20.2921   23.9940 C   0  0  0  0  0  0  0  0  0  0  0  0
   21.3240   21.3557   23.8059 H   0  0  0  0  0  0  0  0  0  0  0  0
   20.8942   20.2127   25.0601 H   0  0  0  0  0  0  0  0  0  0  0  0
   19.9478   19.8288   23.1642 C   0  0  0  0  0  0  0  0  0  0  0  0
   19.0272   20.3803   23.3510 H   0  0  0  0  0  0  0  0  0  0  0  0
   19.9553   18.8397   22.2628 C   0  0  0  0  0  0  0  0  0  0  0  0
   20.8626   18.2732   22.0564 H   0  0  0  0  0  0  0  0  0  0  0  0
   18.7427   18.4167   21.4637 C   0  0  0  0  0  0  0  0  0  0  0  0
   18.6359   17.3242   21.5030 H   0  0  0  0  0  0  0  0  0  0  0  0
   17.8271   18.8387   21.9005 H   0  0  0  0  0  0  0  0  0  0  0  0
   18.8622   18.8686   19.9951 C   0  0  0  0  0  0  0  0  0  0  0  0
   17.9805   18.5578   19.4198 H   0  0  0  0  0  0  0  0  0  0  0  0
   18.9445   19.9615   19.9291 H   0  0  0  0  0  0  0  0  0  0  0  0
   19.7503   18.4297   19.5216 H   0  0  0  0  0  0  0  0  0  0  0  0
  1  2  1  0  0  0  0
  1  3  2  0  0  0  0
  1  4  1  0  0  0  0
  4  5  1  0  0  0  0
  4  6  1  0  0  0  0
  4  7  1  0  0  0  0
  7  8  1  0  0  0  0
  7  9  2  0  0  0  0
  9 10  1  0  0  0  0
  9 11  1  0  0  0  0
 11 12  1  0  0  0  0
 11 13  1  0  0  0  0
 11 14  1  0  0  0  0
 14 15  1  0  0  0  0
 14 16  1  0  0  0  0
 14 17  1  0  0  0  0
M  END
> <VConfSearch Rank>
865

> <Conf_Id>
39

> <Delta U+W>
-0.422

> <U+W>
-49.849

> <U>
14.465

> <W>
-64.314

> <W(PB)>
-66.406

> <W(SA)>
2.093

> <Valence>
14.072

> <Coulomb>
-0.199

> <VdW>
0.592

> <VdW6>
-5.019

> <VdW12>
5.611

> <Bond>
0.085

> <Angle>
2.748

> <Pdih>
11.238

> <Idih>
0.001

> <Tether>
0.000

$$$$
VeraChem MOL file


 17 16  0  0  0  0  0  0  0  0999 V2000     
   20.1614   22.4307   21.8883 C   0  0  0  0  0  0  0  0  0  0  0  0
   19.5491   22.9213   20.9602 O   0  5  0  0  0  0  0  0  0  0  0  0
   21.2406   22.8376   22.2713 O   0  0  0  0  0  0  0  0  0  0  0  0
   19.5381   21.2450   22.6129 C   0  0  0  0  0  0  0  0  0  0  0  0
   18.4657   21.4444   22.7207 H   0  0  0  0  0  0  0  0  0  0  0  0
   19.9595   21.2009   23.6244 H   0  0  0  0  0  0  0  0  0  0  0  0
   19.7531   19.9362   21.8769 C   0  0  0  0  0  0  0  0  0  0  0  0
   19.2264   19.8446   20.9275 H   0  0  0  0  0  0  0  0  0  0  0  0
   20.5263   18.9416   22.3233 C   0  0  0  0  0  0  0  0  0  0  0  0
   21.0550   19.0351   23.2714 H   0  0  0  0  0  0  0  0  0  0  0  0
   20.7424   17.6388   21.5863 C   0  0  0  0  0  0  0  0  0  0  0  0
   20.3970   17.7234   20.5467 H   0  0  0  0  0  0  0  0  0  0  0  0
   21.8160   17.4105   21.5441 H   0  0  0  0  0  0  0  0  0  0  0  0
   19.9977   16.4807   22.2785 C   0  0  0  0  0  0  0  0  0  0  0  0
   18.9175   16.6751   22.3096 H   0  0  0  0  0  0  0  0  0  0  0  0
   20.1588   15.5380   21.7396 H   0  0  0  0  0  0  0  0  0  0  0  0
   20.3511   16.3484   23.3095 H   0  0  0  0  0  0  0  0  0  0  0  0
  1  2  1  0  0  0  0
  1  3  2  0  0  0  0
  1  4  1  0  0  0  0
  4  5  1  0  0  0  0
  4  6  1  0  0  0  0
  4  7  1  0  0  0  0
  7  8  1  0  0  0  0
  7  9  2  0  0  0  0
  9 10  1  0  0  0  0
  9 11  1  0  0  0  0
 11 12  1  0  0  0  0
 11 13  1  0  0  0  0
 11 14  1  0  0  0  0
 14 15  1  0  0  0  0
 14 16  1  0  0  0  0
 14 17  1  0  0  0  0
M  END
> <VConfSearch Rank>
866

> <Conf_Id>
38

> <Delta U+W>
0.000

> <U+W>
-49.427

> <U>
13.666

> <W>
-63.093

> <W(PB)>
-65.225

> <W(SA)>
2.132

> <Valence>
15.226

> <Coulomb>
-1.822

> <VdW>
0.261

> <VdW6>
-4.165

> <VdW12>
4.426

> <Bond>
0.044

> <Angle>
2.229

> <Pdih>
12.953

> <Idih>
0.000

> <Tether>
0.000

$$$$
VeraChem MOL file


 17 16  0  0  0  0  0  0  0  0999 V2000     
   18.7336   16.8508   23.6368 C   0  0  0  0  0  0  0  0  0  0  0  0
   18.9635   16.9550   24.8256 O   0  5  0  0  0  0  0  0  0  0  0  0
   18.6991   15.7873   23.0497 O   0  0  0  0  0  0  0  0  0  0  0  0
   18.4686   18.1205   22.8385 C   0  0  0  0  0  0  0  0  0  0  0  0
   18.1188   18.8949   23.5317 H   0  0  0  0  0  0  0  0  0  0  0  0
   17.6446   17.9146   22.1456 H   0  0  0  0  0  0  0  0  0  0  0  0
   19.6898   18.5895   22.0708 C   0  0  0  0  0  0  0  0  0  0  0  0
   20.0012   17.9419   21.2517 H   0  0  0  0  0  0  0  0  0  0  0  0
   20.3669   19.7081   22.3471 C   0  0  0  0  0  0  0  0  0  0  0  0
   20.0569   20.3536   23.1683 H   0  0  0  0  0  0  0  0  0  0  0  0
   21.5868   20.1721   21.5830 C   0  0  0  0  0  0  0  0  0  0  0  0
   22.3847   20.4431   22.2876 H   0  0  0  0  0  0  0  0  0  0  0  0
   21.9809   19.3591   20.9578 H   0  0  0  0  0  0  0  0  0  0  0  0
   21.2542   21.3851   20.6924 C   0  0  0  0  0  0  0  0  0  0  0  0
   20.8933   22.2276   21.2968 H   0  0  0  0  0  0  0  0  0  0  0  0
   22.1433   21.7176   20.1410 H   0  0  0  0  0  0  0  0  0  0  0  0
   20.4755   21.1302   19.9614 H   0  0  0  0  0  0  0  0  0  0  0  0
  1  2  1  0  0  0  0
  1  3  2  0  0  0  0
  1  4  1  0  0  0  0
  4  5  1  0  0  0  0
  4  6  1  0  0  0  0
  4  7  1  0  0  0  0
  7  8  1  0  0  0  0
  7  9  2  0  0  0  0
  9 10  1  0  0  0  0
  9 11  1  0  0  0  0
 11 12  1  0  0  0  0
 11 13  1  0  0  0  0
 11 14  1  0  0  0  0
 14 15  1  0  0  0  0
 14 16  1  0  0  0  0
 14 17  1  0  0  0  0
M  END
> <VConfSearch Rank>
867

> <Conf_Id>
35

> <Delta U+W>
-0.102

> <U+W>
-49.529

> <U>
13.666

> <W>
-63.195

> <W(PB)>
-65.299

> <W(SA)>
2.103

> <Valence>
15.226

> <Coulomb>
-1.822

> <VdW>
0.261

> <VdW6>
-4.165

> <VdW12>
4.426

> <Bond>
0.044

> <Angle>
2.229

> <Pdih>
12.953

> <Idih>
0.000

> <Tether>
0.000

$$$$
VeraChem MOL file


 17 16  0  0  0  0  0  0  0  0999 V2000     
   21.6163   21.5298   21.2786 C   0  0  0  0  0  0  0  0  0  0  0  0
   20.8180   22.4353   21.1378 O   0  5  0  0  0  0  0  0  0  0  0  0
   22.6913   21.6614   21.8299 O   0  0  0  0  0  0  0  0  0  0  0  0
   21.2517   20.1586   20.7249 C   0  0  0  0  0  0  0  0  0  0  0  0
   22.1804   19.6056   20.5397 H   0  0  0  0  0  0  0  0  0  0  0  0
   20.7684   20.3080   19.7525 H   0  0  0  0  0  0  0  0  0  0  0  0
   20.3314   19.3850   21.6501 C   0  0  0  0  0  0  0  0  0  0  0  0
   19.3312   19.8030   21.7497 H   0  0  0  0  0  0  0  0  0  0  0  0
   20.6938   18.2772   22.3092 C   0  0  0  0  0  0  0  0  0  0  0  0
   21.7052   17.8908   22.1880 H   0  0  0  0  0  0  0  0  0  0  0  0
   19.8280   17.4575   23.2510 C   0  0  0  0  0  0  0  0  0  0  0  0
   19.7807   16.4236   22.8831 H   0  0  0  0  0  0  0  0  0  0  0  0
   20.3224   17.3999   24.2302 H   0  0  0  0  0  0  0  0  0  0  0  0
   18.3906   17.9889   23.4443 C   0  0  0  0  0  0  0  0  0  0  0  0
   17.8464   18.0090   22.4909 H   0  0  0  0  0  0  0  0  0  0  0  0
   17.8321   17.3453   24.1363 H   0  0  0  0  0  0  0  0  0  0  0  0
   18.3989   19.0042   23.8620 H   0  0  0  0  0  0  0  0  0  0  0  0
  1  2  1  0  0  0  0
  1  3  2  0  0  0  0
  1  4  1  0  0  0  0
  4  5  1  0  0  0  0
  4  6  1  0  0  0  0
  4  7  1  0  0  0  0
  7  8  1  0  0  0  0
  7  9  2  0  0  0  0
  9 10  1  0  0  0  0
  9 11  1  0  0  0  0
 11 12  1  0  0  0  0
 11 13  1  0  0  0  0
 11 14  1  0  0  0  0
 14 15  1  0  0  0  0
 14 16  1  0  0  0  0
 14 17  1  0  0  0  0
M  END
> <VConfSearch Rank>
868

> <Conf_Id>
19

> <Delta U+W>
-0.496

> <U+W>
-49.923

> <U>
13.863

> <W>
-63.786

> <W(PB)>
-65.856

> <W(SA)>
2.070

> <Valence>
14.117

> <Coulomb>
-1.228

> <VdW>
0.974

> <VdW6>
-4.885

> <VdW12>
5.859

> <Bond>
0.094

> <Angle>
2.818

> <Pdih>
11.205

> <Idih>
0.000

> <Tether>
0.000

$$$$
VeraChem MOL file


 17 16  0  0  0  0  0  0  0  0999 V2000     
   20.6652   16.4373   23.4201 C   0  0  0  0  0  0  0  0  0  0  0  0
   21.7348   16.1306   22.9315 O   0  5  0  0  0  0  0  0  0  0  0  0
   20.4106   16.3269   24.6033 O   0  0  0  0  0  0  0  0  0  0  0  0
   19.5796   16.9798   22.4998 C   0  0  0  0  0  0  0  0  0  0  0  0
   18.6289   16.5234   22.7986 H   0  0  0  0  0  0  0  0  0  0  0  0
   19.7926   16.6388   21.4795 H   0  0  0  0  0  0  0  0  0  0  0  0
   19.4722   18.4917   22.5565 C   0  0  0  0  0  0  0  0  0  0  0  0
   19.1120   18.8973   23.5015 H   0  0  0  0  0  0  0  0  0  0  0  0
   19.7933   19.3060   21.5465 C   0  0  0  0  0  0  0  0  0  0  0  0
   20.1583   18.9002   20.6035 H   0  0  0  0  0  0  0  0  0  0  0  0
   19.6882   20.8136   21.6060 C   0  0  0  0  0  0  0  0  0  0  0  0
   19.1710   21.1851   20.7110 H   0  0  0  0  0  0  0  0  0  0  0  0
   19.0846   21.1230   22.4704 H   0  0  0  0  0  0  0  0  0  0  0  0
   21.0830   21.4621   21.6999 C   0  0  0  0  0  0  0  0  0  0  0  0
   21.6961   21.2007   20.8274 H   0  0  0  0  0  0  0  0  0  0  0  0
   21.0009   22.5560   21.7433 H   0  0  0  0  0  0  0  0  0  0  0  0
   21.6101   21.1238   22.6018 H   0  0  0  0  0  0  0  0  0  0  0  0
  1  2  1  0  0  0  0
  1  3  2  0  0  0  0
  1  4  1  0  0  0  0
  4  5  1  0  0  0  0
  4  6  1  0  0  0  0
  4  7  1  0  0  0  0
  7  8  1  0  0  0  0
  7  9  2  0  0  0  0
  9 10  1  0  0  0  0
  9 11  1  0  0  0  0
 11 12  1  0  0  0  0
 11 13  1  0  0  0  0
 11 14  1  0  0  0  0
 14 15  1  0  0  0  0
 14 16  1  0  0  0  0
 14 17  1  0  0  0  0
M  END
> <VConfSearch Rank>
869

> <Conf_Id>
7

> <Delta U+W>
-0.041

> <U+W>
-49.468

> <U>
14.121

> <W>
-63.589

> <W(PB)>
-65.660

> <W(SA)>
2.071

> <Valence>
15.230

> <Coulomb>
-1.333

> <VdW>
0.224

> <VdW6>
-4.212

> <VdW12>
4.436

> <Bond>
0.044

> <Angle>
2.230

> <Pdih>
12.956

> <Idih>
0.000

> <Tether>
0.000

$$$$
VeraChem MOL file


 17 16  0  0  0  0  0  0  0  0999 V2000     
   20.4264   18.1842   19.7455 C   0  0  0  0  0  0  0  0  0  0  0  0
   20.6492   17.0217   20.0214 O   0  5  0  0  0  0  0  0  0  0  0  0
   21.1502   18.8568   19.0379 O   0  0  0  0  0  0  0  0  0  0  0  0
   19.1554   18.8255   20.2942 C   0  0  0  0  0  0  0  0  0  0  0  0
   18.3899   18.0443   20.3691 H   0  0  0  0  0  0  0  0  0  0  0  0
   18.7880   19.5367   19.5452 H   0  0  0  0  0  0  0  0  0  0  0  0
   19.3007   19.5278   21.6368 C   0  0  0  0  0  0  0  0  0  0  0  0
   18.3819   19.9786   22.0099 H   0  0  0  0  0  0  0  0  0  0  0  0
   20.4245   19.6234   22.3570 C   0  0  0  0  0  0  0  0  0  0  0  0
   21.3565   19.1808   22.0073 H   0  0  0  0  0  0  0  0  0  0  0  0
   20.5159   20.3356   23.6883 C   0  0  0  0  0  0  0  0  0  0  0  0
   21.3865   21.0055   23.6910 H   0  0  0  0  0  0  0  0  0  0  0  0
   19.6316   20.9676   23.8486 H   0  0  0  0  0  0  0  0  0  0  0  0
   20.6395   19.3281   24.8479 C   0  0  0  0  0  0  0  0  0  0  0  0
   20.7069   19.8503   25.8111 H   0  0  0  0  0  0  0  0  0  0  0  0
   19.7665   18.6630   24.8810 H   0  0  0  0  0  0  0  0  0  0  0  0
   21.5379   18.7074   24.7331 H   0  0  0  0  0  0  0  0  0  0  0  0
  1  2  1  0  0  0  0
  1  3  2  0  0  0  0
  1  4  1  0  0  0  0
  4  5  1  0  0  0  0
  4  6  1  0  0  0  0
  4  7  1  0  0  0  0
  7  8  1  0  0  0  0
  7  9  2  0  0  0  0
  9 10  1  0  0  0  0
  9 11  1  0  0  0  0
 11 12  1  0  0  0  0
 11 13  1  0  0  0  0
 11 14  1  0  0  0  0
 14 15  1  0  0  0  0
 14 16  1  0  0  0  0
 14 17  1  0  0  0  0
M  END
> <VConfSearch Rank>
870

> <Conf_Id>
39

> <Delta U+W>
-0.422

> <U+W>
-49.849

> <U>
14.465

> <W>
-64.314

> <W(PB)>
-66.406

> <W(SA)>
2.093

> <Valence>
14.072

> <Coulomb>
-0.199

> <VdW>
0.592

> <VdW6>
-5.019

> <VdW12>
5.611

> <Bond>
0.085

> <Angle>
2.748

> <Pdih>
11.238

> <Idih>
0.001

> <Tether>
0.000

$$$$
VeraChem MOL file


 17 16  0  0  0  0  0  0  0  0999 V2000     
   19.3115   19.2018   19.0434 C   0  0  0  0  0  0  0  0  0  0  0  0
   18.1225   19.1888   18.7923 O   0  5  0  0  0  0  0  0  0  0  0  0
   20.1342   18.5476   18.4336 O   0  0  0  0  0  0  0  0  0  0  0  0
   19.7953   20.0913   20.1811 C   0  0  0  0  0  0  0  0  0  0  0  0
   19.2470   21.0386   20.1221 H   0  0  0  0  0  0  0  0  0  0  0  0
   20.8537   20.3220   20.0100 H   0  0  0  0  0  0  0  0  0  0  0  0
   19.5909   19.4552   21.5429 C   0  0  0  0  0  0  0  0  0  0  0  0
   18.5523   19.3422   21.8522 H   0  0  0  0  0  0  0  0  0  0  0  0
   20.5846   19.0460   22.3375 C   0  0  0  0  0  0  0  0  0  0  0  0
   21.6228   19.1566   22.0263 H   0  0  0  0  0  0  0  0  0  0  0  0
   20.3787   18.4085   23.6935 C   0  0  0  0  0  0  0  0  0  0  0  0
   19.3314   18.1007   23.8185 H   0  0  0  0  0  0  0  0  0  0  0  0
   20.9866   17.4969   23.7706 H   0  0  0  0  0  0  0  0  0  0  0  0
   20.7635   19.3799   24.8263 C   0  0  0  0  0  0  0  0  0  0  0  0
   20.1500   20.2896   24.7850 H   0  0  0  0  0  0  0  0  0  0  0  0
   20.6126   18.9116   25.8077 H   0  0  0  0  0  0  0  0  0  0  0  0
   21.8181   19.6748   24.7482 H   0  0  0  0  0  0  0  0  0  0  0  0
  1  2  1  0  0  0  0
  1  3  2  0  0  0  0
  1  4  1  0  0  0  0
  4  5  1  0  0  0  0
  4  6  1  0  0  0  0
  4  7  1  0  0  0  0
  7  8  1  0  0  0  0
  7  9  2  0  0  0  0
  9 10  1  0  0  0  0
  9 11  1  0  0  0  0
 11 12  1  0  0  0  0
 11 13  1  0  0  0  0
 11 14  1  0  0  0  0
 14 15  1  0  0  0  0
 14 16  1  0  0  0  0
 14 17  1  0  0  0  0
M  END
> <VConfSearch Rank>
871

> <Conf_Id>
38

> <Delta U+W>
0.000

> <U+W>
-49.427

> <U>
13.666

> <W>
-63.093

> <W(PB)>
-65.225

> <W(SA)>
2.132

> <Valence>
15.226

> <Coulomb>
-1.822

> <VdW>
0.261

> <VdW6>
-4.165

> <VdW12>
4.426

> <Bond>
0.044

> <Angle>
2.229

> <Pdih>
12.953

> <Idih>
0.000

> <Tether>
0.000

$$$$
VeraChem MOL file


 17 16  0  0  0  0  0  0  0  0999 V2000     
   18.5597   17.3239   24.0821 C   0  0  0  0  0  0  0  0  0  0  0  0
   17.9023   17.9853   24.8613 O   0  5  0  0  0  0  0  0  0  0  0  0
   19.1375   16.3002   24.3905 O   0  0  0  0  0  0  0  0  0  0  0  0
   18.6619   17.7990   22.6387 C   0  0  0  0  0  0  0  0  0  0  0  0
   17.7948   18.4355   22.4248 H   0  0  0  0  0  0  0  0  0  0  0  0
   18.5814   16.9191   21.9899 H   0  0  0  0  0  0  0  0  0  0  0  0
   19.9585   18.5349   22.3597 C   0  0  0  0  0  0  0  0  0  0  0  0
   20.8583   17.9214   22.3953 H   0  0  0  0  0  0  0  0  0  0  0  0
   20.0375   19.8412   22.0884 C   0  0  0  0  0  0  0  0  0  0  0  0
   19.1376   20.4546   22.0561 H   0  0  0  0  0  0  0  0  0  0  0  0
   21.3317   20.5741   21.8144 C   0  0  0  0  0  0  0  0  0  0  0  0
   21.3730   21.4914   22.4172 H   0  0  0  0  0  0  0  0  0  0  0  0
   22.1921   19.9603   22.1150 H   0  0  0  0  0  0  0  0  0  0  0  0
   21.4589   20.9342   20.3214 C   0  0  0  0  0  0  0  0  0  0  0  0
   20.6306   21.5803   20.0023 H   0  0  0  0  0  0  0  0  0  0  0  0
   22.3996   21.4664   20.1289 H   0  0  0  0  0  0  0  0  0  0  0  0
   21.4460   20.0293   19.6996 H   0  0  0  0  0  0  0  0  0  0  0  0
  1  2  1  0  0  0  0
  1  3  2  0  0  0  0
  1  4  1  0  0  0  0
  4  5  1  0  0  0  0
  4  6  1  0  0  0  0
  4  7  1  0  0  0  0
  7  8  1  0  0  0  0
  7  9  2  0  0  0  0
  9 10  1  0  0  0  0
  9 11  1  0  0  0  0
 11 12  1  0  0  0  0
 11 13  1  0  0  0  0
 11 14  1  0  0  0  0
 14 15  1  0  0  0  0
 14 16  1  0  0  0  0
 14 17  1  0  0  0  0
M  END
> <VConfSearch Rank>
872

> <Conf_Id>
35

> <Delta U+W>
-0.102

> <U+W>
-49.529

> <U>
13.666

> <W>
-63.195

> <W(PB)>
-65.299

> <W(SA)>
2.103

> <Valence>
15.226

> <Coulomb>
-1.822

> <VdW>
0.261

> <VdW6>
-4.165

> <VdW12>
4.426

> <Bond>
0.044

> <Angle>
2.229

> <Pdih>
12.953

> <Idih>
0.000

> <Tether>
0.000

$$$$
VeraChem MOL file


 17 16  0  0  0  0  0  0  0  0999 V2000     
   18.5102   16.7331   22.6228 C   0  0  0  0  0  0  0  0  0  0  0  0
   18.8272   16.1711   23.6527 O   0  5  0  0  0  0  0  0  0  0  0  0
   17.3584   16.9580   22.3071 O   0  0  0  0  0  0  0  0  0  0  0  0
   19.6178   17.1702   21.6731 C   0  0  0  0  0  0  0  0  0  0  0  0
   19.1943   17.2468   20.6645 H   0  0  0  0  0  0  0  0  0  0  0  0
   20.3691   16.3725   21.6454 H   0  0  0  0  0  0  0  0  0  0  0  0
   20.2619   18.4774   22.0949 C   0  0  0  0  0  0  0  0  0  0  0  0
   20.8365   18.4236   23.0180 H   0  0  0  0  0  0  0  0  0  0  0  0
   20.1459   19.6223   21.4106 C   0  0  0  0  0  0  0  0  0  0  0  0
   19.5587   19.6387   20.4930 H   0  0  0  0  0  0  0  0  0  0  0  0
   20.7586   20.9639   21.7758 C   0  0  0  0  0  0  0  0  0  0  0  0
   21.3912   21.3051   20.9451 H   0  0  0  0  0  0  0  0  0  0  0  0
   19.9572   21.7101   21.8620 H   0  0  0  0  0  0  0  0  0  0  0  0
   21.5912   20.9680   23.0768 C   0  0  0  0  0  0  0  0  0  0  0  0
   22.4364   20.2709   23.0060 H   0  0  0  0  0  0  0  0  0  0  0  0
   21.9970   21.9694   23.2709 H   0  0  0  0  0  0  0  0  0  0  0  0
   20.9752   20.6821   23.9395 H   0  0  0  0  0  0  0  0  0  0  0  0
  1  2  1  0  0  0  0
  1  3  2  0  0  0  0
  1  4  1  0  0  0  0
  4  5  1  0  0  0  0
  4  6  1  0  0  0  0
  4  7  1  0  0  0  0
  7  8  1  0  0  0  0
  7  9  2  0  0  0  0
  9 10  1  0  0  0  0
  9 11  1  0  0  0  0
 11 12  1  0  0  0  0
 11 13  1  0  0  0  0
 11 14  1  0  0  0  0
 14 15  1  0  0  0  0
 14 16  1  0  0  0  0
 14 17  1  0  0  0  0
M  END
> <VConfSearch Rank>
873

> <Conf_Id>
19

> <Delta U+W>
-0.496

> <U+W>
-49.923

> <U>
13.863

> <W>
-63.786

> <W(PB)>
-65.856

> <W(SA)>
2.070

> <Valence>
14.117

> <Coulomb>
-1.228

> <VdW>
0.974

> <VdW6>
-4.885

> <VdW12>
5.859

> <Bond>
0.094

> <Angle>
2.818

> <Pdih>
11.205

> <Idih>
0.000

> <Tether>
0.000

$$$$
VeraChem MOL file


 17 16  0  0  0  0  0  0  0  0999 V2000     
   22.8870   18.0139   21.9529 C   0  0  0  0  0  0  0  0  0  0  0  0
   22.8872   17.0964   22.7498 O   0  5  0  0  0  0  0  0  0  0  0  0
   23.3279   17.9236   20.8240 O   0  0  0  0  0  0  0  0  0  0  0  0
   22.3132   19.3539   22.3944 C   0  0  0  0  0  0  0  0  0  0  0  0
   22.9756   20.1419   22.0178 H   0  0  0  0  0  0  0  0  0  0  0  0
   22.3507   19.3993   23.4894 H   0  0  0  0  0  0  0  0  0  0  0  0
   20.9003   19.5756   21.8891 C   0  0  0  0  0  0  0  0  0  0  0  0
   20.8059   19.6974   20.8104 H   0  0  0  0  0  0  0  0  0  0  0  0
   19.8196   19.6173   22.6743 C   0  0  0  0  0  0  0  0  0  0  0  0
   19.9140   19.4903   23.7522 H   0  0  0  0  0  0  0  0  0  0  0  0
   18.4112   19.8355   22.1681 C   0  0  0  0  0  0  0  0  0  0  0  0
   17.9161   20.6091   22.7706 H   0  0  0  0  0  0  0  0  0  0  0  0
   18.4275   20.2041   21.1331 H   0  0  0  0  0  0  0  0  0  0  0  0
   17.5921   18.5317   22.2321 C   0  0  0  0  0  0  0  0  0  0  0  0
   17.5264   18.1607   23.2633 H   0  0  0  0  0  0  0  0  0  0  0  0
   16.5712   18.6956   21.8632 H   0  0  0  0  0  0  0  0  0  0  0  0
   18.0556   17.7497   21.6162 H   0  0  0  0  0  0  0  0  0  0  0  0
  1  2  1  0  0  0  0
  1  3  2  0  0  0  0
  1  4  1  0  0  0  0
  4  5  1  0  0  0  0
  4  6  1  0  0  0  0
  4  7  1  0  0  0  0
  7  8  1  0  0  0  0
  7  9  2  0  0  0  0
  9 10  1  0  0  0  0
  9 11  1  0  0  0  0
 11 12  1  0  0  0  0
 11 13  1  0  0  0  0
 11 14  1  0  0  0  0
 14 15  1  0  0  0  0
 14 16  1  0  0  0  0
 14 17  1  0  0  0  0
M  END
> <VConfSearch Rank>
874

> <Conf_Id>
7

> <Delta U+W>
-0.041

> <U+W>
-49.468

> <U>
14.121

> <W>
-63.589

> <W(PB)>
-65.660

> <W(SA)>
2.071

> <Valence>
15.230

> <Coulomb>
-1.333

> <VdW>
0.224

> <VdW6>
-4.212

> <VdW12>
4.436

> <Bond>
0.044

> <Angle>
2.230

> <Pdih>
12.956

> <Idih>
0.000

> <Tether>
0.000

$$$$
VeraChem MOL file


 17 16  0  0  0  0  0  0  0  0999 V2000     
   17.6343   18.6870   21.2386 C   0  0  0  0  0  0  0  0  0  0  0  0
   17.2081   19.8035   21.0181 O   0  5  0  0  0  0  0  0  0  0  0  0
   17.0439   17.8634   21.9097 O   0  0  0  0  0  0  0  0  0  0  0  0
   18.9691   18.2879   20.6166 C   0  0  0  0  0  0  0  0  0  0  0  0
   19.0652   18.8147   19.6600 H   0  0  0  0  0  0  0  0  0  0  0  0
   18.9187   17.2211   20.3695 H   0  0  0  0  0  0  0  0  0  0  0  0
   20.1990   18.5559   21.4724 C   0  0  0  0  0  0  0  0  0  0  0  0
   21.1408   18.2637   21.0097 H   0  0  0  0  0  0  0  0  0  0  0  0
   20.2034   19.1016   22.6943 C   0  0  0  0  0  0  0  0  0  0  0  0
   19.2758   19.4036   23.1792 H   0  0  0  0  0  0  0  0  0  0  0  0
   21.4567   19.3458   23.5053 C   0  0  0  0  0  0  0  0  0  0  0  0
   21.3152   18.9707   24.5279 H   0  0  0  0  0  0  0  0  0  0  0  0
   22.3045   18.7908   23.0806 H   0  0  0  0  0  0  0  0  0  0  0  0
   21.8021   20.8470   23.5520 C   0  0  0  0  0  0  0  0  0  0  0  0
   22.7113   21.0185   24.1427 H   0  0  0  0  0  0  0  0  0  0  0  0
   21.9735   21.2392   22.5408 H   0  0  0  0  0  0  0  0  0  0  0  0
   20.9858   21.4225   24.0079 H   0  0  0  0  0  0  0  0  0  0  0  0
  1  2  1  0  0  0  0
  1  3  2  0  0  0  0
  1  4  1  0  0  0  0
  4  5  1  0  0  0  0
  4  6  1  0  0  0  0
  4  7  1  0  0  0  0
  7  8  1  0  0  0  0
  7  9  2  0  0  0  0
  9 10  1  0  0  0  0
  9 11  1  0  0  0  0
 11 12  1  0  0  0  0
 11 13  1  0  0  0  0
 11 14  1  0  0  0  0
 14 15  1  0  0  0  0
 14 16  1  0  0  0  0
 14 17  1  0  0  0  0
M  END
> <VConfSearch Rank>
875

> <Conf_Id>
39

> <Delta U+W>
-0.422

> <U+W>
-49.849

> <U>
14.465

> <W>
-64.314

> <W(PB)>
-66.406

> <W(SA)>
2.093

> <Valence>
14.072

> <Coulomb>
-0.199

> <VdW>
0.592

> <VdW6>
-5.019

> <VdW12>
5.611

> <Bond>
0.085

> <Angle>
2.748

> <Pdih>
11.238

> <Idih>
0.001

> <Tether>
0.000

$$$$
VeraChem MOL file


 17 16  0  0  0  0  0  0  0  0999 V2000     
   18.0895   18.5733   19.7714 C   0  0  0  0  0  0  0  0  0  0  0  0
   17.0662   19.2271   19.7245 O   0  5  0  0  0  0  0  0  0  0  0  0
   18.1344   17.3788   19.5521 O   0  0  0  0  0  0  0  0  0  0  0  0
   19.3861   19.2929   20.1188 C   0  0  0  0  0  0  0  0  0  0  0  0
   19.3857   20.2556   19.5946 H   0  0  0  0  0  0  0  0  0  0  0  0
   20.2217   18.7084   19.7154 H   0  0  0  0  0  0  0  0  0  0  0  0
   19.5466   19.5126   21.6110 C   0  0  0  0  0  0  0  0  0  0  0  0
   18.8433   20.2159   22.0559 H   0  0  0  0  0  0  0  0  0  0  0  0
   20.4688   18.9059   22.3646 C   0  0  0  0  0  0  0  0  0  0  0  0
   21.1698   18.2005   21.9196 H   0  0  0  0  0  0  0  0  0  0  0  0
   20.6249   19.1233   23.8531 C   0  0  0  0  0  0  0  0  0  0  0  0
   19.7409   19.6316   24.2622 H   0  0  0  0  0  0  0  0  0  0  0  0
   20.6955   18.1535   24.3640 H   0  0  0  0  0  0  0  0  0  0  0  0
   21.8823   19.9593   24.1618 C   0  0  0  0  0  0  0  0  0  0  0  0
   21.8227   20.9450   23.6817 H   0  0  0  0  0  0  0  0  0  0  0  0
   21.9906   20.1131   25.2433 H   0  0  0  0  0  0  0  0  0  0  0  0
   22.7870   19.4554   23.7972 H   0  0  0  0  0  0  0  0  0  0  0  0
  1  2  1  0  0  0  0
  1  3  2  0  0  0  0
  1  4  1  0  0  0  0
  4  5  1  0  0  0  0
  4  6  1  0  0  0  0
  4  7  1  0  0  0  0
  7  8  1  0  0  0  0
  7  9  2  0  0  0  0
  9 10  1  0  0  0  0
  9 11  1  0  0  0  0
 11 12  1  0  0  0  0
 11 13  1  0  0  0  0
 11 14  1  0  0  0  0
 14 15  1  0  0  0  0
 14 16  1  0  0  0  0
 14 17  1  0  0  0  0
M  END
> <VConfSearch Rank>
876

> <Conf_Id>
38

> <Delta U+W>
0.000

> <U+W>
-49.427

> <U>
13.666

> <W>
-63.093

> <W(PB)>
-65.225

> <W(SA)>
2.132

> <Valence>
15.226

> <Coulomb>
-1.822

> <VdW>
0.261

> <VdW6>
-4.165

> <VdW12>
4.426

> <Bond>
0.044

> <Angle>
2.229

> <Pdih>
12.953

> <Idih>
0.000

> <Tether>
0.000

$$$$
VeraChem MOL file


 17 16  0  0  0  0  0  0  0  0999 V2000     
   20.0435   22.1742   20.8533 C   0  0  0  0  0  0  0  0  0  0  0  0
   20.5663   22.1425   19.7567 O   0  5  0  0  0  0  0  0  0  0  0  0
   20.1658   23.1013   21.6295 O   0  0  0  0  0  0  0  0  0  0  0  0
   19.1832   20.9913   21.2777 C   0  0  0  0  0  0  0  0  0  0  0  0
   18.8316   20.4806   20.3731 H   0  0  0  0  0  0  0  0  0  0  0  0
   18.2972   21.3872   21.7873 H   0  0  0  0  0  0  0  0  0  0  0  0
   19.9238   20.0323   22.1902 C   0  0  0  0  0  0  0  0  0  0  0  0
   20.1652   20.4233   23.1782 H   0  0  0  0  0  0  0  0  0  0  0  0
   20.2767   18.7899   21.8467 C   0  0  0  0  0  0  0  0  0  0  0  0
   20.0378   18.4007   20.8575 H   0  0  0  0  0  0  0  0  0  0  0  0
   21.0187   17.8364   22.7565 C   0  0  0  0  0  0  0  0  0  0  0  0
   21.8646   17.3908   22.2158 H   0  0  0  0  0  0  0  0  0  0  0  0
   21.4421   18.3756   23.6151 H   0  0  0  0  0  0  0  0  0  0  0  0
   20.0876   16.7185   23.2649 C   0  0  0  0  0  0  0  0  0  0  0  0
   19.6792   16.1377   22.4275 H   0  0  0  0  0  0  0  0  0  0  0  0
   20.6317   16.0295   23.9240 H   0  0  0  0  0  0  0  0  0  0  0  0
   19.2465   17.1393   23.8316 H   0  0  0  0  0  0  0  0  0  0  0  0
  1  2  1  0  0  0  0
  1  3  2  0  0  0  0
  1  4  1  0  0  0  0
  4  5  1  0  0  0  0
  4  6  1  0  0  0  0
  4  7  1  0  0  0  0
  7  8  1  0  0  0  0
  7  9  2  0  0  0  0
  9 10  1  0  0  0  0
  9 11  1  0  0  0  0
 11 12  1  0  0  0  0
 11 13  1  0  0  0  0
 11 14  1  0  0  0  0
 14 15  1  0  0  0  0
 14 16  1  0  0  0  0
 14 17  1  0  0  0  0
M  END
> <VConfSearch Rank>
877

> <Conf_Id>
35

> <Delta U+W>
-0.102

> <U+W>
-49.529

> <U>
13.666

> <W>
-63.195

> <W(PB)>
-65.299

> <W(SA)>
2.103

> <Valence>
15.226

> <Coulomb>
-1.822

> <VdW>
0.261

> <VdW6>
-4.165

> <VdW12>
4.426

> <Bond>
0.044

> <Angle>
2.229

> <Pdih>
12.953

> <Idih>
0.000

> <Tether>
0.000

$$$$
VeraChem MOL file


 17 16  0  0  0  0  0  0  0  0999 V2000     
   22.2367   20.1053   24.1107 C   0  0  0  0  0  0  0  0  0  0  0  0
   22.1779   21.3176   24.1721 O   0  5  0  0  0  0  0  0  0  0  0  0
   22.3211   19.3862   25.0867 O   0  0  0  0  0  0  0  0  0  0  0  0
   22.2127   19.4542   22.7340 C   0  0  0  0  0  0  0  0  0  0  0  0
   22.6909   18.4704   22.8115 H   0  0  0  0  0  0  0  0  0  0  0  0
   22.8347   20.0610   22.0658 H   0  0  0  0  0  0  0  0  0  0  0  0
   20.8084   19.3353   22.1725 C   0  0  0  0  0  0  0  0  0  0  0  0
   20.3369   20.2843   21.9234 H   0  0  0  0  0  0  0  0  0  0  0  0
   20.1722   18.1711   21.9919 C   0  0  0  0  0  0  0  0  0  0  0  0
   20.6746   17.2414   22.2571 H   0  0  0  0  0  0  0  0  0  0  0  0
   18.7696   17.9795   21.4400 C   0  0  0  0  0  0  0  0  0  0  0  0
   18.8196   17.3283   20.5568 H   0  0  0  0  0  0  0  0  0  0  0  0
   18.1684   17.4306   22.1775 H   0  0  0  0  0  0  0  0  0  0  0  0
   18.0336   19.2839   21.0623 C   0  0  0  0  0  0  0  0  0  0  0  0
   18.5803   19.8339   20.2851 H   0  0  0  0  0  0  0  0  0  0  0  0
   17.0310   19.0617   20.6743 H   0  0  0  0  0  0  0  0  0  0  0  0
   17.9183   19.9384   21.9363 H   0  0  0  0  0  0  0  0  0  0  0  0
  1  2  1  0  0  0  0
  1  3  2  0  0  0  0
  1  4  1  0  0  0  0
  4  5  1  0  0  0  0
  4  6  1  0  0  0  0
  4  7  1  0  0  0  0
  7  8  1  0  0  0  0
  7  9  2  0  0  0  0
  9 10  1  0  0  0  0
  9 11  1  0  0  0  0
 11 12  1  0  0  0  0
 11 13  1  0  0  0  0
 11 14  1  0  0  0  0
 14 15  1  0  0  0  0
 14 16  1  0  0  0  0
 14 17  1  0  0  0  0
M  END
> <VConfSearch Rank>
878

> <Conf_Id>
19

> <Delta U+W>
-0.496

> <U+W>
-49.923

> <U>
13.863

> <W>
-63.786

> <W(PB)>
-65.856

> <W(SA)>
2.070

> <Valence>
14.117

> <Coulomb>
-1.228

> <VdW>
0.974

> <VdW6>
-4.885

> <VdW12>
5.859

> <Bond>
0.094

> <Angle>
2.818

> <Pdih>
11.205

> <Idih>
0.000

> <Tether>
0.000

$$$$
VeraChem MOL file


 17 16  0  0  0  0  0  0  0  0999 V2000     
   22.0226   17.2057   20.9130 C   0  0  0  0  0  0  0  0  0  0  0  0
   23.0709   17.4577   21.4737 O   0  5  0  0  0  0  0  0  0  0  0  0
   21.6170   16.0760   20.7227 O   0  0  0  0  0  0  0  0  0  0  0  0
   21.1745   18.3670   20.4110 C   0  0  0  0  0  0  0  0  0  0  0  0
   20.7940   18.0989   19.4186 H   0  0  0  0  0  0  0  0  0  0  0  0
   21.8281   19.2377   20.2797 H   0  0  0  0  0  0  0  0  0  0  0  0
   20.0209   18.6887   21.3419 C   0  0  0  0  0  0  0  0  0  0  0  0
   19.2454   17.9256   21.4022 H   0  0  0  0  0  0  0  0  0  0  0  0
   19.9265   19.8112   22.0610 C   0  0  0  0  0  0  0  0  0  0  0  0
   20.7047   20.5716   22.0042 H   0  0  0  0  0  0  0  0  0  0  0  0
   18.7767   20.1287   22.9909 C   0  0  0  0  0  0  0  0  0  0  0  0
   18.4151   21.1480   22.7990 H   0  0  0  0  0  0  0  0  0  0  0  0
   17.9312   19.4531   22.8013 H   0  0  0  0  0  0  0  0  0  0  0  0
   19.2073   20.0052   24.4654 C   0  0  0  0  0  0  0  0  0  0  0  0
   20.0272   20.6988   24.6935 H   0  0  0  0  0  0  0  0  0  0  0  0
   18.3692   20.2362   25.1357 H   0  0  0  0  0  0  0  0  0  0  0  0
   19.5502   18.9859   24.6871 H   0  0  0  0  0  0  0  0  0  0  0  0
  1  2  1  0  0  0  0
  1  3  2  0  0  0  0
  1  4  1  0  0  0  0
  4  5  1  0  0  0  0
  4  6  1  0  0  0  0
  4  7  1  0  0  0  0
  7  8  1  0  0  0  0
  7  9  2  0  0  0  0
  9 10  1  0  0  0  0
  9 11  1  0  0  0  0
 11 12  1  0  0  0  0
 11 13  1  0  0  0  0
 11 14  1  0  0  0  0
 14 15  1  0  0  0  0
 14 16  1  0  0  0  0
 14 17  1  0  0  0  0
M  END
> <VConfSearch Rank>
879

> <Conf_Id>
7

> <Delta U+W>
-0.041

> <U+W>
-49.468

> <U>
14.121

> <W>
-63.589

> <W(PB)>
-65.660

> <W(SA)>
2.071

> <Valence>
15.230

> <Coulomb>
-1.333

> <VdW>
0.224

> <VdW6>
-4.212

> <VdW12>
4.436

> <Bond>
0.044

> <Angle>
2.230

> <Pdih>
12.956

> <Idih>
0.000

> <Tether>
0.000

$$$$
VeraChem MOL file


 17 16  0  0  0  0  0  0  0  0999 V2000     
   22.2103   20.9170   23.0375 C   0  0  0  0  0  0  0  0  0  0  0  0
   22.4466   21.4942   21.9944 O   0  5  0  0  0  0  0  0  0  0  0  0
   23.0519   20.3207   23.6803 O   0  0  0  0  0  0  0  0  0  0  0  0
   20.7867   20.9671   23.5838 C   0  0  0  0  0  0  0  0  0  0  0  0
   20.3467   21.9267   23.2883 H   0  0  0  0  0  0  0  0  0  0  0  0
   20.8476   20.9877   24.6781 H   0  0  0  0  0  0  0  0  0  0  0  0
   19.8741   19.8308   23.1448 C   0  0  0  0  0  0  0  0  0  0  0  0
   18.8629   19.8858   23.5461 H   0  0  0  0  0  0  0  0  0  0  0  0
   20.2111   18.8185   22.3370 C   0  0  0  0  0  0  0  0  0  0  0  0
   21.2151   18.7403   21.9214 H   0  0  0  0  0  0  0  0  0  0  0  0
   19.2643   17.7107   21.9316 C   0  0  0  0  0  0  0  0  0  0  0  0
   19.7551   16.7370   22.0638 H   0  0  0  0  0  0  0  0  0  0  0  0
   18.3766   17.7066   22.5790 H   0  0  0  0  0  0  0  0  0  0  0  0
   18.8237   17.8687   20.4633 C   0  0  0  0  0  0  0  0  0  0  0  0
   18.1380   17.0616   20.1742 H   0  0  0  0  0  0  0  0  0  0  0  0
   18.3069   18.8256   20.3122 H   0  0  0  0  0  0  0  0  0  0  0  0
   19.6898   17.8379   19.7892 H   0  0  0  0  0  0  0  0  0  0  0  0
  1  2  1  0  0  0  0
  1  3  2  0  0  0  0
  1  4  1  0  0  0  0
  4  5  1  0  0  0  0
  4  6  1  0  0  0  0
  4  7  1  0  0  0  0
  7  8  1  0  0  0  0
  7  9  2  0  0  0  0
  9 10  1  0  0  0  0
  9 11  1  0  0  0  0
 11 12  1  0  0  0  0
 11 13  1  0  0  0  0
 11 14  1  0  0  0  0
 14 15  1  0  0  0  0
 14 16  1  0  0  0  0
 14 17  1  0  0  0  0
M  END
> <VConfSearch Rank>
880

> <Conf_Id>
39

> <Delta U+W>
-0.422

> <U+W>
-49.849

> <U>
14.465

> <W>
-64.314

> <W(PB)>
-66.406

> <W(SA)>
2.093

> <Valence>
14.072

> <Coulomb>
-0.199

> <VdW>
0.592

> <VdW6>
-5.019

> <VdW12>
5.611

> <Bond>
0.085

> <Angle>
2.748

> <Pdih>
11.238

> <Idih>
0.001

> <Tether>
0.000

$$$$
VeraChem MOL file


 17 16  0  0  0  0  0  0  0  0999 V2000     
   21.6905   17.3312   24.0400 C   0  0  0  0  0  0  0  0  0  0  0  0
   21.6002   16.1417   23.8077 O   0  5  0  0  0  0  0  0  0  0  0  0
   21.6881   17.7988   25.1617 O   0  0  0  0  0  0  0  0  0  0  0  0
   21.8190   18.2855   22.8600 C   0  0  0  0  0  0  0  0  0  0  0  0
   22.4959   17.8265   22.1302 H   0  0  0  0  0  0  0  0  0  0  0  0
   22.3030   19.2041   23.2129 H   0  0  0  0  0  0  0  0  0  0  0  0
   20.4823   18.5899   22.2110 C   0  0  0  0  0  0  0  0  0  0  0  0
   20.0142   17.7520   21.6952 H   0  0  0  0  0  0  0  0  0  0  0  0
   19.8846   19.7847   22.2471 C   0  0  0  0  0  0  0  0  0  0  0  0
   20.3518   20.6214   22.7656 H   0  0  0  0  0  0  0  0  0  0  0  0
   18.5499   20.0855   21.6025 C   0  0  0  0  0  0  0  0  0  0  0  0
   18.0343   19.1533   21.3334 H   0  0  0  0  0  0  0  0  0  0  0  0
   17.9019   20.6087   22.3187 H   0  0  0  0  0  0  0  0  0  0  0  0
   18.7270   20.9528   20.3410 C   0  0  0  0  0  0  0  0  0  0  0  0
   19.3514   20.4384   19.5987 H   0  0  0  0  0  0  0  0  0  0  0  0
   17.7552   21.1683   19.8781 H   0  0  0  0  0  0  0  0  0  0  0  0
   19.2064   21.9093   20.5874 H   0  0  0  0  0  0  0  0  0  0  0  0
  1  2  1  0  0  0  0
  1  3  2  0  0  0  0
  1  4  1  0  0  0  0
  4  5  1  0  0  0  0
  4  6  1  0  0  0  0
  4  7  1  0  0  0  0
  7  8  1  0  0  0  0
  7  9  2  0  0  0  0
  9 10  1  0  0  0  0
  9 11  1  0  0  0  0
 11 12  1  0  0  0  0
 11 13  1  0  0  0  0
 11 14  1  0  0  0  0
 14 15  1  0  0  0  0
 14 16  1  0  0  0  0
 14 17  1  0  0  0  0
M  END
> <VConfSearch Rank>
881

> <Conf_Id>
38

> <Delta U+W>
0.000

> <U+W>
-49.427

> <U>
13.666

> <W>
-63.093

> <W(PB)>
-65.225

> <W(SA)>
2.132

> <Valence>
15.226

> <Coulomb>
-1.822

> <VdW>
0.261

> <VdW6>
-4.165

> <VdW12>
4.426

> <Bond>
0.044

> <Angle>
2.229

> <Pdih>
12.953

> <Idih>
0.000

> <Tether>
0.000

$$$$
VeraChem MOL file


 17 16  0  0  0  0  0  0  0  0999 V2000     
   19.3108   21.1550   19.6856 C   0  0  0  0  0  0  0  0  0  0  0  0
   19.6867   22.2852   19.9267 O   0  5  0  0  0  0  0  0  0  0  0  0
   18.2705   20.9011   19.1109 O   0  0  0  0  0  0  0  0  0  0  0  0
   20.1924   19.9922   20.1217 C   0  0  0  0  0  0  0  0  0  0  0  0
   21.2215   20.3588   20.2172 H   0  0  0  0  0  0  0  0  0  0  0  0
   20.1902   19.2495   19.3155 H   0  0  0  0  0  0  0  0  0  0  0  0
   19.7190   19.3577   21.4155 C   0  0  0  0  0  0  0  0  0  0  0  0
   18.7682   18.8293   21.3538 H   0  0  0  0  0  0  0  0  0  0  0  0
   20.3874   19.4203   22.5713 C   0  0  0  0  0  0  0  0  0  0  0  0
   21.3366   19.9516   22.6331 H   0  0  0  0  0  0  0  0  0  0  0  0
   19.9119   18.7905   23.8614 C   0  0  0  0  0  0  0  0  0  0  0  0
   19.9832   19.5208   24.6788 H   0  0  0  0  0  0  0  0  0  0  0  0
   18.8532   18.5069   23.7834 H   0  0  0  0  0  0  0  0  0  0  0  0
   20.7491   17.5447   24.2110 C   0  0  0  0  0  0  0  0  0  0  0  0
   21.8084   17.8063   24.3329 H   0  0  0  0  0  0  0  0  0  0  0  0
   20.3999   17.0925   25.1484 H   0  0  0  0  0  0  0  0  0  0  0  0
   20.6725   16.7885   23.4186 H   0  0  0  0  0  0  0  0  0  0  0  0
  1  2  1  0  0  0  0
  1  3  2  0  0  0  0
  1  4  1  0  0  0  0
  4  5  1  0  0  0  0
  4  6  1  0  0  0  0
  4  7  1  0  0  0  0
  7  8  1  0  0  0  0
  7  9  2  0  0  0  0
  9 10  1  0  0  0  0
  9 11  1  0  0  0  0
 11 12  1  0  0  0  0
 11 13  1  0  0  0  0
 11 14  1  0  0  0  0
 14 15  1  0  0  0  0
 14 16  1  0  0  0  0
 14 17  1  0  0  0  0
M  END
> <VConfSearch Rank>
882

> <Conf_Id>
35

> <Delta U+W>
-0.102

> <U+W>
-49.529

> <U>
13.666

> <W>
-63.195

> <W(PB)>
-65.299

> <W(SA)>
2.103

> <Valence>
15.226

> <Coulomb>
-1.822

> <VdW>
0.261

> <VdW6>
-4.165

> <VdW12>
4.426

> <Bond>
0.044

> <Angle>
2.229

> <Pdih>
12.953

> <Idih>
0.000

> <Tether>
0.000

$$$$
VeraChem MOL file


 17 16  0  0  0  0  0  0  0  0999 V2000     
   17.3533   19.2524   22.8733 C   0  0  0  0  0  0  0  0  0  0  0  0
   17.1864   20.0176   23.8026 O   0  5  0  0  0  0  0  0  0  0  0  0
   16.6637   19.2500   21.8727 O   0  0  0  0  0  0  0  0  0  0  0  0
   18.4827   18.2356   22.9744 C   0  0  0  0  0  0  0  0  0  0  0  0
   18.2424   17.3898   22.3192 H   0  0  0  0  0  0  0  0  0  0  0  0
   18.4966   17.8517   24.0010 H   0  0  0  0  0  0  0  0  0  0  0  0
   19.8331   18.8311   22.6231 C   0  0  0  0  0  0  0  0  0  0  0  0
   20.2018   19.5705   23.3320 H   0  0  0  0  0  0  0  0  0  0  0  0
   20.5356   18.4982   21.5330 C   0  0  0  0  0  0  0  0  0  0  0  0
   20.1322   17.7570   20.8438 H   0  0  0  0  0  0  0  0  0  0  0  0
   21.8873   19.0553   21.1192 C   0  0  0  0  0  0  0  0  0  0  0  0
   22.5999   18.2254   21.0195 H   0  0  0  0  0  0  0  0  0  0  0  0
   21.8004   19.4919   20.1150 H   0  0  0  0  0  0  0  0  0  0  0  0
   22.4777   20.1130   22.0777 C   0  0  0  0  0  0  0  0  0  0  0  0
   22.6295   19.6943   23.0812 H   0  0  0  0  0  0  0  0  0  0  0  0
   23.4502   20.4654   21.7100 H   0  0  0  0  0  0  0  0  0  0  0  0
   21.8141   20.9838   22.1604 H   0  0  0  0  0  0  0  0  0  0  0  0
  1  2  1  0  0  0  0
  1  3  2  0  0  0  0
  1  4  1  0  0  0  0
  4  5  1  0  0  0  0
  4  6  1  0  0  0  0
  4  7  1  0  0  0  0
  7  8  1  0  0  0  0
  7  9  2  0  0  0  0
  9 10  1  0  0  0  0
  9 11  1  0  0  0  0
 11 12  1  0  0  0  0
 11 13  1  0  0  0  0
 11 14  1  0  0  0  0
 14 15  1  0  0  0  0
 14 16  1  0  0  0  0
 14 17  1  0  0  0  0
M  END
> <VConfSearch Rank>
883

> <Conf_Id>
19

> <Delta U+W>
-0.496

> <U+W>
-49.923

> <U>
13.863

> <W>
-63.786

> <W(PB)>
-65.856

> <W(SA)>
2.070

> <Valence>
14.117

> <Coulomb>
-1.228

> <VdW>
0.974

> <VdW6>
-4.885

> <VdW12>
5.859

> <Bond>
0.094

> <Angle>
2.818

> <Pdih>
11.205

> <Idih>
0.000

> <Tether>
0.000

$$$$
VeraChem MOL file


 17 16  0  0  0  0  0  0  0  0999 V2000     
   17.3781   18.2633   21.7105 C   0  0  0  0  0  0  0  0  0  0  0  0
   17.0560   17.7694   22.7731 O   0  5  0  0  0  0  0  0  0  0  0  0
   16.6873   19.0561   21.1011 O   0  0  0  0  0  0  0  0  0  0  0  0
   18.7149   17.8602   21.1021 C   0  0  0  0  0  0  0  0  0  0  0  0
   18.5630   17.7157   20.0263 H   0  0  0  0  0  0  0  0  0  0  0  0
   19.0024   16.8876   21.5192 H   0  0  0  0  0  0  0  0  0  0  0  0
   19.7975   18.8955   21.3409 C   0  0  0  0  0  0  0  0  0  0  0  0
   19.6553   19.8446   20.8248 H   0  0  0  0  0  0  0  0  0  0  0  0
   20.8616   18.7024   22.1262 C   0  0  0  0  0  0  0  0  0  0  0  0
   21.0006   17.7550   22.6461 H   0  0  0  0  0  0  0  0  0  0  0  0
   21.9384   19.7371   22.3652 C   0  0  0  0  0  0  0  0  0  0  0  0
   22.9283   19.2790   22.2361 H   0  0  0  0  0  0  0  0  0  0  0  0
   21.8659   20.5455   21.6247 H   0  0  0  0  0  0  0  0  0  0  0  0
   21.8287   20.3326   23.7824 C   0  0  0  0  0  0  0  0  0  0  0  0
   21.9368   19.5505   24.5453 H   0  0  0  0  0  0  0  0  0  0  0  0
   22.6121   21.0831   23.9503 H   0  0  0  0  0  0  0  0  0  0  0  0
   20.8546   20.8184   23.9265 H   0  0  0  0  0  0  0  0  0  0  0  0
  1  2  1  0  0  0  0
  1  3  2  0  0  0  0
  1  4  1  0  0  0  0
  4  5  1  0  0  0  0
  4  6  1  0  0  0  0
  4  7  1  0  0  0  0
  7  8  1  0  0  0  0
  7  9  2  0  0  0  0
  9 10  1  0  0  0  0
  9 11  1  0  0  0  0
 11 12  1  0  0  0  0
 11 13  1  0  0  0  0
 11 14  1  0  0  0  0
 14 15  1  0  0  0  0
 14 16  1  0  0  0  0
 14 17  1  0  0  0  0
M  END
> <VConfSearch Rank>
884

> <Conf_Id>
7

> <Delta U+W>
-0.041

> <U+W>
-49.468

> <U>
14.121

> <W>
-63.589

> <W(PB)>
-65.660

> <W(SA)>
2.071

> <Valence>
15.230

> <Coulomb>
-1.333

> <VdW>
0.224

> <VdW6>
-4.212

> <VdW12>
4.436

> <Bond>
0.044

> <Angle>
2.230

> <Pdih>
12.956

> <Idih>
0.000

> <Tether>
0.000

$$$$
VeraChem MOL file


 17 16  0  0  0  0  0  0  0  0999 V2000     
   18.5371   17.7796   20.5749 C   0  0  0  0  0  0  0  0  0  0  0  0
   18.1295   18.6418   19.8215 O   0  5  0  0  0  0  0  0  0  0  0  0
   17.8086   17.0202   21.1828 O   0  0  0  0  0  0  0  0  0  0  0  0
   20.0452   17.6240   20.7454 C   0  0  0  0  0  0  0  0  0  0  0  0
   20.5210   17.8996   19.7970 H   0  0  0  0  0  0  0  0  0  0  0  0
   20.2584   16.5586   20.8912 H   0  0  0  0  0  0  0  0  0  0  0  0
   20.6647   18.4282   21.8796 C   0  0  0  0  0  0  0  0  0  0  0  0
   21.7416   18.3025   21.9836 H   0  0  0  0  0  0  0  0  0  0  0  0
   20.0096   19.2417   22.7163 C   0  0  0  0  0  0  0  0  0  0  0  0
   18.9330   19.3859   22.6334 H   0  0  0  0  0  0  0  0  0  0  0  0
   20.6740   20.0191   23.8308 C   0  0  0  0  0  0  0  0  0  0  0  0
   20.1073   19.8881   24.7627 H   0  0  0  0  0  0  0  0  0  0  0  0
   21.6851   19.6331   24.0201 H   0  0  0  0  0  0  0  0  0  0  0  0
   20.7569   21.5190   23.4866 C   0  0  0  0  0  0  0  0  0  0  0  0
   21.2385   22.0782   24.2992 H   0  0  0  0  0  0  0  0  0  0  0  0
   21.3417   21.6769   22.5708 H   0  0  0  0  0  0  0  0  0  0  0  0
   19.7554   21.9405   23.3295 H   0  0  0  0  0  0  0  0  0  0  0  0
  1  2  1  0  0  0  0
  1  3  2  0  0  0  0
  1  4  1  0  0  0  0
  4  5  1  0  0  0  0
  4  6  1  0  0  0  0
  4  7  1  0  0  0  0
  7  8  1  0  0  0  0
  7  9  2  0  0  0  0
  9 10  1  0  0  0  0
  9 11  1  0  0  0  0
 11 12  1  0  0  0  0
 11 13  1  0  0  0  0
 11 14  1  0  0  0  0
 14 15  1  0  0  0  0
 14 16  1  0  0  0  0
 14 17  1  0  0  0  0
M  END
> <VConfSearch Rank>
885

> <Conf_Id>
39

> <Delta U+W>
-0.422

> <U+W>
-49.849

> <U>
14.465

> <W>
-64.314

> <W(PB)>
-66.406

> <W(SA)>
2.093

> <Valence>
14.072

> <Coulomb>
-0.199

> <VdW>
0.592

> <VdW6>
-5.019

> <VdW12>
5.611

> <Bond>
0.085

> <Angle>
2.748

> <Pdih>
11.238

> <Idih>
0.001

> <Tether>
0.000

$$$$
VeraChem MOL file


 17 16  0  0  0  0  0  0  0  0999 V2000     
   23.0663   18.6454   21.1685 C   0  0  0  0  0  0  0  0  0  0  0  0
   23.9113   19.4733   21.4467 O   0  5  0  0  0  0  0  0  0  0  0  0
   23.0298   18.0523   20.1085 O   0  0  0  0  0  0  0  0  0  0  0  0
   21.9990   18.3315   22.2087 C   0  0  0  0  0  0  0  0  0  0  0  0
   22.4876   18.2939   23.1892 H   0  0  0  0  0  0  0  0  0  0  0  0
   21.6077   17.3272   22.0066 H   0  0  0  0  0  0  0  0  0  0  0  0
   20.8819   19.3576   22.2226 C   0  0  0  0  0  0  0  0  0  0  0  0
   21.1660   20.3497   22.5721 H   0  0  0  0  0  0  0  0  0  0  0  0
   19.6263   19.1061   21.8398 C   0  0  0  0  0  0  0  0  0  0  0  0
   19.3436   18.1146   21.4876 H   0  0  0  0  0  0  0  0  0  0  0  0
   18.5146   20.1315   21.8507 C   0  0  0  0  0  0  0  0  0  0  0  0
   18.9264   21.1437   21.9650 H   0  0  0  0  0  0  0  0  0  0  0  0
   17.9844   20.1136   20.8889 H   0  0  0  0  0  0  0  0  0  0  0  0
   17.5171   19.8548   22.9924 C   0  0  0  0  0  0  0  0  0  0  0  0
   18.0203   19.8929   23.9676 H   0  0  0  0  0  0  0  0  0  0  0  0
   16.7125   20.6015   22.9948 H   0  0  0  0  0  0  0  0  0  0  0  0
   17.0605   18.8624   22.8817 H   0  0  0  0  0  0  0  0  0  0  0  0
  1  2  1  0  0  0  0
  1  3  2  0  0  0  0
  1  4  1  0  0  0  0
  4  5  1  0  0  0  0
  4  6  1  0  0  0  0
  4  7  1  0  0  0  0
  7  8  1  0  0  0  0
  7  9  2  0  0  0  0
  9 10  1  0  0  0  0
  9 11  1  0  0  0  0
 11 12  1  0  0  0  0
 11 13  1  0  0  0  0
 11 14  1  0  0  0  0
 14 15  1  0  0  0  0
 14 16  1  0  0  0  0
 14 17  1  0  0  0  0
M  END
> <VConfSearch Rank>
886

> <Conf_Id>
38

> <Delta U+W>
0.000

> <U+W>
-49.427

> <U>
13.666

> <W>
-63.093

> <W(PB)>
-65.225

> <W(SA)>
2.132

> <Valence>
15.226

> <Coulomb>
-1.822

> <VdW>
0.261

> <VdW6>
-4.165

> <VdW12>
4.426

> <Bond>
0.044

> <Angle>
2.229

> <Pdih>
12.953

> <Idih>
0.000

> <Tether>
0.000

$$$$
VeraChem MOL file


 17 16  0  0  0  0  0  0  0  0999 V2000     
   22.7977   17.7824   21.4289 C   0  0  0  0  0  0  0  0  0  0  0  0
   23.4302   18.4512   20.6355 O   0  5  0  0  0  0  0  0  0  0  0  0
   22.7598   16.5679   21.4042 O   0  0  0  0  0  0  0  0  0  0  0  0
   22.0135   18.5032   22.5176 C   0  0  0  0  0  0  0  0  0  0  0  0
   22.4679   19.4892   22.6721 H   0  0  0  0  0  0  0  0  0  0  0  0
   22.1414   17.9415   23.4501 H   0  0  0  0  0  0  0  0  0  0  0  0
   20.5392   18.6302   22.1841 C   0  0  0  0  0  0  0  0  0  0  0  0
   19.9826   17.6936   22.1729 H   0  0  0  0  0  0  0  0  0  0  0  0
   19.9271   19.7872   21.9144 C   0  0  0  0  0  0  0  0  0  0  0  0
   20.4850   20.7231   21.9227 H   0  0  0  0  0  0  0  0  0  0  0  0
   18.4578   19.9115   21.5783 C   0  0  0  0  0  0  0  0  0  0  0  0
   18.3340   20.5342   20.6819 H   0  0  0  0  0  0  0  0  0  0  0  0
   18.0336   18.9266   21.3391 H   0  0  0  0  0  0  0  0  0  0  0  0
   17.6726   20.5344   22.7489 C   0  0  0  0  0  0  0  0  0  0  0  0
   18.0513   21.5376   22.9849 H   0  0  0  0  0  0  0  0  0  0  0  0
   16.6073   20.6227   22.4989 H   0  0  0  0  0  0  0  0  0  0  0  0
   17.7606   19.9146   23.6510 H   0  0  0  0  0  0  0  0  0  0  0  0
  1  2  1  0  0  0  0
  1  3  2  0  0  0  0
  1  4  1  0  0  0  0
  4  5  1  0  0  0  0
  4  6  1  0  0  0  0
  4  7  1  0  0  0  0
  7  8  1  0  0  0  0
  7  9  2  0  0  0  0
  9 10  1  0  0  0  0
  9 11  1  0  0  0  0
 11 12  1  0  0  0  0
 11 13  1  0  0  0  0
 11 14  1  0  0  0  0
 14 15  1  0  0  0  0
 14 16  1  0  0  0  0
 14 17  1  0  0  0  0
M  END
> <VConfSearch Rank>
887

> <Conf_Id>
35

> <Delta U+W>
-0.102

> <U+W>
-49.529

> <U>
13.666

> <W>
-63.195

> <W(PB)>
-65.299

> <W(SA)>
2.103

> <Valence>
15.226

> <Coulomb>
-1.822

> <VdW>
0.261

> <VdW6>
-4.165

> <VdW12>
4.426

> <Bond>
0.044

> <Angle>
2.229

> <Pdih>
12.953

> <Idih>
0.000

> <Tether>
0.000

$$$$
VeraChem MOL file


 17 16  0  0  0  0  0  0  0  0999 V2000     
   21.8893   16.6880   22.5433 C   0  0  0  0  0  0  0  0  0  0  0  0
   22.8166   16.7128   21.7581 O   0  5  0  0  0  0  0  0  0  0  0  0
   22.0097   16.3940   23.7163 O   0  0  0  0  0  0  0  0  0  0  0  0
   20.5000   17.0353   22.0248 C   0  0  0  0  0  0  0  0  0  0  0  0
   19.7604   16.5671   22.6854 H   0  0  0  0  0  0  0  0  0  0  0  0
   20.3859   16.5730   21.0375 H   0  0  0  0  0  0  0  0  0  0  0  0
   20.2741   18.5323   21.9278 C   0  0  0  0  0  0  0  0  0  0  0  0
   20.8724   19.0338   21.1690 H   0  0  0  0  0  0  0  0  0  0  0  0
   19.4189   19.2106   22.7031 C   0  0  0  0  0  0  0  0  0  0  0  0
   18.8401   18.6751   23.4550 H   0  0  0  0  0  0  0  0  0  0  0  0
   19.1467   20.7049   22.6628 C   0  0  0  0  0  0  0  0  0  0  0  0
   18.0756   20.8676   22.4813 H   0  0  0  0  0  0  0  0  0  0  0  0
   19.3456   21.1303   23.6558 H   0  0  0  0  0  0  0  0  0  0  0  0
   19.9601   21.4877   21.6085 C   0  0  0  0  0  0  0  0  0  0  0  0
   19.7446   21.1244   20.5951 H   0  0  0  0  0  0  0  0  0  0  0  0
   19.7083   22.5556   21.6433 H   0  0  0  0  0  0  0  0  0  0  0  0
   21.0384   21.3906   21.7913 H   0  0  0  0  0  0  0  0  0  0  0  0
  1  2  1  0  0  0  0
  1  3  2  0  0  0  0
  1  4  1  0  0  0  0
  4  5  1  0  0  0  0
  4  6  1  0  0  0  0
  4  7  1  0  0  0  0
  7  8  1  0  0  0  0
  7  9  2  0  0  0  0
  9 10  1  0  0  0  0
  9 11  1  0  0  0  0
 11 12  1  0  0  0  0
 11 13  1  0  0  0  0
 11 14  1  0  0  0  0
 14 15  1  0  0  0  0
 14 16  1  0  0  0  0
 14 17  1  0  0  0  0
M  END
> <VConfSearch Rank>
888

> <Conf_Id>
19

> <Delta U+W>
-0.496

> <U+W>
-49.923

> <U>
13.863

> <W>
-63.786

> <W(PB)>
-65.856

> <W(SA)>
2.070

> <Valence>
14.117

> <Coulomb>
-1.228

> <VdW>
0.974

> <VdW6>
-4.885

> <VdW12>
5.859

> <Bond>
0.094

> <Angle>
2.818

> <Pdih>
11.205

> <Idih>
0.000

> <Tether>
0.000

$$$$
VeraChem MOL file


 17 16  0  0  0  0  0  0  0  0999 V2000     
   22.3181   17.1140   21.8269 C   0  0  0  0  0  0  0  0  0  0  0  0
   23.2716   17.6841   22.3196 O   0  5  0  0  0  0  0  0  0  0  0  0
   22.0434   15.9508   22.0469 O   0  0  0  0  0  0  0  0  0  0  0  0
   21.4236   17.8948   20.8729 C   0  0  0  0  0  0  0  0  0  0  0  0
   21.1790   17.2378   20.0303 H   0  0  0  0  0  0  0  0  0  0  0  0
   22.0028   18.7335   20.4683 H   0  0  0  0  0  0  0  0  0  0  0  0
   20.1513   18.3836   21.5386 C   0  0  0  0  0  0  0  0  0  0  0  0
   19.4491   17.6029   21.8293 H   0  0  0  0  0  0  0  0  0  0  0  0
   19.8749   19.6691   21.7779 C   0  0  0  0  0  0  0  0  0  0  0  0
   20.5798   20.4490   21.4917 H   0  0  0  0  0  0  0  0  0  0  0  0
   18.6069   20.1542   22.4446 C   0  0  0  0  0  0  0  0  0  0  0  0
   18.1738   20.9788   21.8623 H   0  0  0  0  0  0  0  0  0  0  0  0
   17.8541   19.3543   22.4668 H   0  0  0  0  0  0  0  0  0  0  0  0
   18.8859   20.6318   23.8830 C   0  0  0  0  0  0  0  0  0  0  0  0
   19.6076   21.4592   23.8879 H   0  0  0  0  0  0  0  0  0  0  0  0
   17.9625   20.9823   24.3621 H   0  0  0  0  0  0  0  0  0  0  0  0
   19.2973   19.8157   24.4916 H   0  0  0  0  0  0  0  0  0  0  0  0
  1  2  1  0  0  0  0
  1  3  2  0  0  0  0
  1  4  1  0  0  0  0
  4  5  1  0  0  0  0
  4  6  1  0  0  0  0
  4  7  1  0  0  0  0
  7  8  1  0  0  0  0
  7  9  2  0  0  0  0
  9 10  1  0  0  0  0
  9 11  1  0  0  0  0
 11 12  1  0  0  0  0
 11 13  1  0  0  0  0
 11 14  1  0  0  0  0
 14 15  1  0  0  0  0
 14 16  1  0  0  0  0
 14 17  1  0  0  0  0
M  END
> <VConfSearch Rank>
889

> <Conf_Id>
7

> <Delta U+W>
-0.041

> <U+W>
-49.468

> <U>
14.121

> <W>
-63.589

> <W(PB)>
-65.660

> <W(SA)>
2.071

> <Valence>
15.230

> <Coulomb>
-1.333

> <VdW>
0.224

> <VdW6>
-4.212

> <VdW12>
4.436

> <Bond>
0.044

> <Angle>
2.230

> <Pdih>
12.956

> <Idih>
0.000

> <Tether>
0.000

$$$$
VeraChem MOL file


 17 16  0  0  0  0  0  0  0  0999 V2000     
   19.1914   18.5565   19.7696 C   0  0  0  0  0  0  0  0  0  0  0  0
   18.4244   19.4710   19.5407 O   0  5  0  0  0  0  0  0  0  0  0  0
   18.8732   17.3847   19.7182 O   0  0  0  0  0  0  0  0  0  0  0  0
   20.6386   18.8968   20.1125 C   0  0  0  0  0  0  0  0  0  0  0  0
   20.9047   19.8145   19.5752 H   0  0  0  0  0  0  0  0  0  0  0  0
   21.2765   18.1082   19.6966 H   0  0  0  0  0  0  0  0  0  0  0  0
   20.9398   19.0680   21.5947 C   0  0  0  0  0  0  0  0  0  0  0  0
   21.9782   19.3103   21.8173 H   0  0  0  0  0  0  0  0  0  0  0  0
   20.0590   18.9492   22.5953 C   0  0  0  0  0  0  0  0  0  0  0  0
   19.0146   18.7085   22.4001 H   0  0  0  0  0  0  0  0  0  0  0  0
   20.4109   19.1283   24.0554 C   0  0  0  0  0  0  0  0  0  0  0  0
   20.0020   18.2932   24.6401 H   0  0  0  0  0  0  0  0  0  0  0  0
   21.5005   19.1066   24.1945 H   0  0  0  0  0  0  0  0  0  0  0  0
   19.8537   20.4580   24.6001 C   0  0  0  0  0  0  0  0  0  0  0  0
   20.1108   20.5820   25.6601 H   0  0  0  0  0  0  0  0  0  0  0  0
   20.2691   21.3104   24.0465 H   0  0  0  0  0  0  0  0  0  0  0  0
   18.7601   20.4910   24.5084 H   0  0  0  0  0  0  0  0  0  0  0  0
  1  2  1  0  0  0  0
  1  3  2  0  0  0  0
  1  4  1  0  0  0  0
  4  5  1  0  0  0  0
  4  6  1  0  0  0  0
  4  7  1  0  0  0  0
  7  8  1  0  0  0  0
  7  9  2  0  0  0  0
  9 10  1  0  0  0  0
  9 11  1  0  0  0  0
 11 12  1  0  0  0  0
 11 13  1  0  0  0  0
 11 14  1  0  0  0  0
 14 15  1  0  0  0  0
 14 16  1  0  0  0  0
 14 17  1  0  0  0  0
M  END
> <VConfSearch Rank>
890

> <Conf_Id>
39

> <Delta U+W>
-0.422

> <U+W>
-49.849

> <U>
14.465

> <W>
-64.314

> <W(PB)>
-66.406

> <W(SA)>
2.093

> <Valence>
14.072

> <Coulomb>
-0.199

> <VdW>
0.592

> <VdW6>
-5.019

> <VdW12>
5.611

> <Bond>
0.085

> <Angle>
2.748

> <Pdih>
11.238

> <Idih>
0.001

> <Tether>
0.000

$$$$
VeraChem MOL file


 17 16  0  0  0  0  0  0  0  0999 V2000     
   20.5703   16.9495   24.2036 C   0  0  0  0  0  0  0  0  0  0  0  0
   20.2179   17.1710   25.3453 O   0  5  0  0  0  0  0  0  0  0  0  0
   21.5905   16.3537   23.9189 O   0  0  0  0  0  0  0  0  0  0  0  0
   19.6809   17.4415   23.0694 C   0  0  0  0  0  0  0  0  0  0  0  0
   18.6392   17.2575   23.3567 H   0  0  0  0  0  0  0  0  0  0  0  0
   19.8827   16.8269   22.1838 H   0  0  0  0  0  0  0  0  0  0  0  0
   19.8856   18.9138   22.7675 C   0  0  0  0  0  0  0  0  0  0  0  0
   19.5531   19.5989   23.5468 H   0  0  0  0  0  0  0  0  0  0  0  0
   20.4326   19.3805   21.6409 C   0  0  0  0  0  0  0  0  0  0  0  0
   20.7675   18.6948   20.8634 H   0  0  0  0  0  0  0  0  0  0  0  0
   20.6394   20.8489   21.3433 C   0  0  0  0  0  0  0  0  0  0  0  0
   20.5218   21.4467   22.2576 H   0  0  0  0  0  0  0  0  0  0  0  0
   21.6657   21.0142   20.9884 H   0  0  0  0  0  0  0  0  0  0  0  0
   19.6415   21.3440   20.2783 C   0  0  0  0  0  0  0  0  0  0  0  0
   18.6071   21.2123   20.6222 H   0  0  0  0  0  0  0  0  0  0  0  0
   19.7968   22.4098   20.0661 H   0  0  0  0  0  0  0  0  0  0  0  0
   19.7631   20.7884   19.3392 H   0  0  0  0  0  0  0  0  0  0  0  0
  1  2  1  0  0  0  0
  1  3  2  0  0  0  0
  1  4  1  0  0  0  0
  4  5  1  0  0  0  0
  4  6  1  0  0  0  0
  4  7  1  0  0  0  0
  7  8  1  0  0  0  0
  7  9  2  0  0  0  0
  9 10  1  0  0  0  0
  9 11  1  0  0  0  0
 11 12  1  0  0  0  0
 11 13  1  0  0  0  0
 11 14  1  0  0  0  0
 14 15  1  0  0  0  0
 14 16  1  0  0  0  0
 14 17  1  0  0  0  0
M  END
> <VConfSearch Rank>
891

> <Conf_Id>
38

> <Delta U+W>
0.000

> <U+W>
-49.427

> <U>
13.666

> <W>
-63.093

> <W(PB)>
-65.225

> <W(SA)>
2.132

> <Valence>
15.226

> <Coulomb>
-1.822

> <VdW>
0.261

> <VdW6>
-4.165

> <VdW12>
4.426

> <Bond>
0.044

> <Angle>
2.229

> <Pdih>
12.953

> <Idih>
0.000

> <Tether>
0.000

$$$$
VeraChem MOL file


 17 16  0  0  0  0  0  0  0  0999 V2000     
   21.5518   21.9215   21.1964 C   0  0  0  0  0  0  0  0  0  0  0  0
   22.3030   22.2833   22.0804 O   0  5  0  0  0  0  0  0  0  0  0  0
   20.9090   22.6872   20.5054 O   0  0  0  0  0  0  0  0  0  0  0  0
   21.4108   20.4277   20.9348 C   0  0  0  0  0  0  0  0  0  0  0  0
   22.3145   19.9280   21.3038 H   0  0  0  0  0  0  0  0  0  0  0  0
   21.3827   20.2789   19.8492 H   0  0  0  0  0  0  0  0  0  0  0  0
   20.1661   19.8412   21.5732 C   0  0  0  0  0  0  0  0  0  0  0  0
   19.2219   20.1736   21.1427 H   0  0  0  0  0  0  0  0  0  0  0  0
   20.1807   18.9781   22.5935 C   0  0  0  0  0  0  0  0  0  0  0  0
   21.1251   18.6486   23.0256 H   0  0  0  0  0  0  0  0  0  0  0  0
   18.9385   18.3973   23.2314 C   0  0  0  0  0  0  0  0  0  0  0  0
   19.0061   18.4875   24.3240 H   0  0  0  0  0  0  0  0  0  0  0  0
   18.0480   18.9622   22.9229 H   0  0  0  0  0  0  0  0  0  0  0  0
   18.7603   16.9153   22.8482 C   0  0  0  0  0  0  0  0  0  0  0  0
   19.6206   16.3189   23.1794 H   0  0  0  0  0  0  0  0  0  0  0  0
   17.8578   16.4992   23.3145 H   0  0  0  0  0  0  0  0  0  0  0  0
   18.6645   16.8027   21.7602 H   0  0  0  0  0  0  0  0  0  0  0  0
  1  2  1  0  0  0  0
  1  3  2  0  0  0  0
  1  4  1  0  0  0  0
  4  5  1  0  0  0  0
  4  6  1  0  0  0  0
  4  7  1  0  0  0  0
  7  8  1  0  0  0  0
  7  9  2  0  0  0  0
  9 10  1  0  0  0  0
  9 11  1  0  0  0  0
 11 12  1  0  0  0  0
 11 13  1  0  0  0  0
 11 14  1  0  0  0  0
 14 15  1  0  0  0  0
 14 16  1  0  0  0  0
 14 17  1  0  0  0  0
M  END
> <VConfSearch Rank>
892

> <Conf_Id>
35

> <Delta U+W>
-0.102

> <U+W>
-49.529

> <U>
13.666

> <W>
-63.195

> <W(PB)>
-65.299

> <W(SA)>
2.103

> <Valence>
15.226

> <Coulomb>
-1.822

> <VdW>
0.261

> <VdW6>
-4.165

> <VdW12>
4.426

> <Bond>
0.044

> <Angle>
2.229

> <Pdih>
12.953

> <Idih>
0.000

> <Tether>
0.000

$$$$
VeraChem MOL file


 17 16  0  0  0  0  0  0  0  0999 V2000     
   20.4790   17.6569   24.7648 C   0  0  0  0  0  0  0  0  0  0  0  0
   20.8631   16.5217   24.5631 O   0  5  0  0  0  0  0  0  0  0  0  0
   20.9317   18.3750   25.6345 O   0  0  0  0  0  0  0  0  0  0  0  0
   19.3628   18.2043   23.8849 C   0  0  0  0  0  0  0  0  0  0  0  0
   18.8549   19.0060   24.4343 H   0  0  0  0  0  0  0  0  0  0  0  0
   18.6297   17.4029   23.7371 H   0  0  0  0  0  0  0  0  0  0  0  0
   19.8706   18.6991   22.5438 C   0  0  0  0  0  0  0  0  0  0  0  0
   20.2446   17.9185   21.8835 H   0  0  0  0  0  0  0  0  0  0  0  0
   19.8764   19.9865   22.1759 C   0  0  0  0  0  0  0  0  0  0  0  0
   19.4980   20.7404   22.8655 H   0  0  0  0  0  0  0  0  0  0  0  0
   20.3718   20.5507   20.8550 C   0  0  0  0  0  0  0  0  0  0  0  0
   19.5541   21.1051   20.3748 H   0  0  0  0  0  0  0  0  0  0  0  0
   21.1544   21.2947   21.0564 H   0  0  0  0  0  0  0  0  0  0  0  0
   20.9193   19.5016   19.8621 C   0  0  0  0  0  0  0  0  0  0  0  0
   20.1452   18.7702   19.5951 H   0  0  0  0  0  0  0  0  0  0  0  0
   21.2567   19.9866   18.9370 H   0  0  0  0  0  0  0  0  0  0  0  0
   21.7746   18.9627   20.2904 H   0  0  0  0  0  0  0  0  0  0  0  0
  1  2  1  0  0  0  0
  1  3  2  0  0  0  0
  1  4  1  0  0  0  0
  4  5  1  0  0  0  0
  4  6  1  0  0  0  0
  4  7  1  0  0  0  0
  7  8  1  0  0  0  0
  7  9  2  0  0  0  0
  9 10  1  0  0  0  0
  9 11  1  0  0  0  0
 11 12  1  0  0  0  0
 11 13  1  0  0  0  0
 11 14  1  0  0  0  0
 14 15  1  0  0  0  0
 14 16  1  0  0  0  0
 14 17  1  0  0  0  0
M  END
> <VConfSearch Rank>
893

> <Conf_Id>
19

> <Delta U+W>
-0.496

> <U+W>
-49.923

> <U>
13.863

> <W>
-63.786

> <W(PB)>
-65.856

> <W(SA)>
2.070

> <Valence>
14.117

> <Coulomb>
-1.228

> <VdW>
0.974

> <VdW6>
-4.885

> <VdW12>
5.859

> <Bond>
0.094

> <Angle>
2.818

> <Pdih>
11.205

> <Idih>
0.000

> <Tether>
0.000

$$$$
VeraChem MOL file


 17 16  0  0  0  0  0  0  0  0999 V2000     
   17.3932   18.2382   22.7542 C   0  0  0  0  0  0  0  0  0  0  0  0
   17.0699   18.9912   23.6515 O   0  5  0  0  0  0  0  0  0  0  0  0
   16.6962   18.0092   21.7852 O   0  0  0  0  0  0  0  0  0  0  0  0
   18.7400   17.5338   22.8522 C   0  0  0  0  0  0  0  0  0  0  0  0
   18.5981   16.4948   22.5330 H   0  0  0  0  0  0  0  0  0  0  0  0
   19.0376   17.5076   23.9074 H   0  0  0  0  0  0  0  0  0  0  0  0
   19.8064   18.1986   22.0028 C   0  0  0  0  0  0  0  0  0  0  0  0
   19.6552   18.1268   20.9262 H   0  0  0  0  0  0  0  0  0  0  0  0
   20.8671   18.8436   22.4980 C   0  0  0  0  0  0  0  0  0  0  0  0
   21.0151   18.9196   23.5747 H   0  0  0  0  0  0  0  0  0  0  0  0
   21.9278   19.5084   21.6493 C   0  0  0  0  0  0  0  0  0  0  0  0
   22.9249   19.2114   22.0017 H   0  0  0  0  0  0  0  0  0  0  0  0
   21.8498   19.1748   20.6054 H   0  0  0  0  0  0  0  0  0  0  0  0
   21.7993   21.0432   21.7049 C   0  0  0  0  0  0  0  0  0  0  0  0
   21.9123   21.4087   22.7340 H   0  0  0  0  0  0  0  0  0  0  0  0
   22.5710   21.5205   21.0870 H   0  0  0  0  0  0  0  0  0  0  0  0
   20.8176   21.3657   21.3335 H   0  0  0  0  0  0  0  0  0  0  0  0
  1  2  1  0  0  0  0
  1  3  2  0  0  0  0
  1  4  1  0  0  0  0
  4  5  1  0  0  0  0
  4  6  1  0  0  0  0
  4  7  1  0  0  0  0
  7  8  1  0  0  0  0
  7  9  2  0  0  0  0
  9 10  1  0  0  0  0
  9 11  1  0  0  0  0
 11 12  1  0  0  0  0
 11 13  1  0  0  0  0
 11 14  1  0  0  0  0
 14 15  1  0  0  0  0
 14 16  1  0  0  0  0
 14 17  1  0  0  0  0
M  END
> <VConfSearch Rank>
894

> <Conf_Id>
7

> <Delta U+W>
-0.041

> <U+W>
-49.468

> <U>
14.121

> <W>
-63.589

> <W(PB)>
-65.660

> <W(SA)>
2.071

> <Valence>
15.230

> <Coulomb>
-1.333

> <VdW>
0.224

> <VdW6>
-4.212

> <VdW12>
4.436

> <Bond>
0.044

> <Angle>
2.230

> <Pdih>
12.956

> <Idih>
0.000

> <Tether>
0.000

$$$$
VeraChem MOL file


 17 16  0  0  0  0  0  0  0  0999 V2000     
   20.1837   21.3229   20.4166 C   0  0  0  0  0  0  0  0  0  0  0  0
   19.9966   22.2856   21.1343 O   0  5  0  0  0  0  0  0  0  0  0  0
   19.5084   21.0745   19.4371 O   0  0  0  0  0  0  0  0  0  0  0  0
   21.3459   20.3913   20.7468 C   0  0  0  0  0  0  0  0  0  0  0  0
   22.1406   20.9934   21.2024 H   0  0  0  0  0  0  0  0  0  0  0  0
   21.7556   20.0175   19.8012 H   0  0  0  0  0  0  0  0  0  0  0  0
   21.0096   19.2181   21.6564 C   0  0  0  0  0  0  0  0  0  0  0  0
   21.8532   18.5660   21.8792 H   0  0  0  0  0  0  0  0  0  0  0  0
   19.8075   18.9466   22.1782 C   0  0  0  0  0  0  0  0  0  0  0  0
   18.9478   19.5830   21.9721 H   0  0  0  0  0  0  0  0  0  0  0  0
   19.5253   17.7638   23.0778 C   0  0  0  0  0  0  0  0  0  0  0  0
   18.6239   17.2410   22.7305 H   0  0  0  0  0  0  0  0  0  0  0  0
   20.3488   17.0380   23.0295 H   0  0  0  0  0  0  0  0  0  0  0  0
   19.3275   18.2139   24.5384 C   0  0  0  0  0  0  0  0  0  0  0  0
   19.1217   17.3519   25.1863 H   0  0  0  0  0  0  0  0  0  0  0  0
   20.2270   18.7174   24.9163 H   0  0  0  0  0  0  0  0  0  0  0  0
   18.4843   18.9122   24.6220 H   0  0  0  0  0  0  0  0  0  0  0  0
  1  2  1  0  0  0  0
  1  3  2  0  0  0  0
  1  4  1  0  0  0  0
  4  5  1  0  0  0  0
  4  6  1  0  0  0  0
  4  7  1  0  0  0  0
  7  8  1  0  0  0  0
  7  9  2  0  0  0  0
  9 10  1  0  0  0  0
  9 11  1  0  0  0  0
 11 12  1  0  0  0  0
 11 13  1  0  0  0  0
 11 14  1  0  0  0  0
 14 15  1  0  0  0  0
 14 16  1  0  0  0  0
 14 17  1  0  0  0  0
M  END
> <VConfSearch Rank>
895

> <Conf_Id>
39

> <Delta U+W>
-0.422

> <U+W>
-49.849

> <U>
14.465

> <W>
-64.314

> <W(PB)>
-66.406

> <W(SA)>
2.093

> <Valence>
14.072

> <Coulomb>
-0.199

> <VdW>
0.592

> <VdW6>
-5.019

> <VdW12>
5.611

> <Bond>
0.085

> <Angle>
2.748

> <Pdih>
11.238

> <Idih>
0.001

> <Tether>
0.000

$$$$
VeraChem MOL file


 17 16  0  0  0  0  0  0  0  0999 V2000     
   22.5835   19.0751   24.0688 C   0  0  0  0  0  0  0  0  0  0  0  0
   23.0786   17.9741   24.2087 O   0  5  0  0  0  0  0  0  0  0  0  0
   22.4320   19.8645   24.9803 O   0  0  0  0  0  0  0  0  0  0  0  0
   22.1342   19.4883   22.6734 C   0  0  0  0  0  0  0  0  0  0  0  0
   22.8938   19.1449   21.9616 H   0  0  0  0  0  0  0  0  0  0  0  0
   22.1230   20.5839   22.6269 H   0  0  0  0  0  0  0  0  0  0  0  0
   20.7790   18.9146   22.3059 C   0  0  0  0  0  0  0  0  0  0  0  0
   20.7519   17.8333   22.1745 H   0  0  0  0  0  0  0  0  0  0  0  0
   19.6717   19.6459   22.1474 C   0  0  0  0  0  0  0  0  0  0  0  0
   19.6989   20.7268   22.2819 H   0  0  0  0  0  0  0  0  0  0  0  0
   18.3204   19.0717   21.7847 C   0  0  0  0  0  0  0  0  0  0  0  0
   18.3171   17.9814   21.9204 H   0  0  0  0  0  0  0  0  0  0  0  0
   17.5530   19.4756   22.4588 H   0  0  0  0  0  0  0  0  0  0  0  0
   17.9503   19.4053   20.3263 C   0  0  0  0  0  0  0  0  0  0  0  0
   18.6911   18.9888   19.6310 H   0  0  0  0  0  0  0  0  0  0  0  0
   16.9686   18.9866   20.0692 H   0  0  0  0  0  0  0  0  0  0  0  0
   17.9085   20.4914   20.1714 H   0  0  0  0  0  0  0  0  0  0  0  0
  1  2  1  0  0  0  0
  1  3  2  0  0  0  0
  1  4  1  0  0  0  0
  4  5  1  0  0  0  0
  4  6  1  0  0  0  0
  4  7  1  0  0  0  0
  7  8  1  0  0  0  0
  7  9  2  0  0  0  0
  9 10  1  0  0  0  0
  9 11  1  0  0  0  0
 11 12  1  0  0  0  0
 11 13  1  0  0  0  0
 11 14  1  0  0  0  0
 14 15  1  0  0  0  0
 14 16  1  0  0  0  0
 14 17  1  0  0  0  0
M  END
> <VConfSearch Rank>
896

> <Conf_Id>
38

> <Delta U+W>
0.000

> <U+W>
-49.427

> <U>
13.666

> <W>
-63.093

> <W(PB)>
-65.225

> <W(SA)>
2.132

> <Valence>
15.226

> <Coulomb>
-1.822

> <VdW>
0.261

> <VdW6>
-4.165

> <VdW12>
4.426

> <Bond>
0.044

> <Angle>
2.229

> <Pdih>
12.953

> <Idih>
0.000

> <Tether>
0.000

$$$$
VeraChem MOL file


 17 16  0  0  0  0  0  0  0  0999 V2000     
   21.8342   18.1898   24.5131 C   0  0  0  0  0  0  0  0  0  0  0  0
   23.0108   18.3380   24.2477 O   0  5  0  0  0  0  0  0  0  0  0  0
   21.3967   17.2281   25.1135 O   0  0  0  0  0  0  0  0  0  0  0  0
   20.8535   19.2696   24.0750 C   0  0  0  0  0  0  0  0  0  0  0  0
   21.4082   20.2076   23.9523 H   0  0  0  0  0  0  0  0  0  0  0  0
   20.1389   19.4243   24.8917 H   0  0  0  0  0  0  0  0  0  0  0  0
   20.1168   18.9030   22.8009 C   0  0  0  0  0  0  0  0  0  0  0  0
   19.4176   18.0721   22.8906 H   0  0  0  0  0  0  0  0  0  0  0  0
   20.2849   19.5257   21.6303 C   0  0  0  0  0  0  0  0  0  0  0  0
   20.9865   20.3544   21.5406 H   0  0  0  0  0  0  0  0  0  0  0  0
   19.5523   19.1562   20.3599 C   0  0  0  0  0  0  0  0  0  0  0  0
   20.2677   19.0714   19.5307 H   0  0  0  0  0  0  0  0  0  0  0  0
   19.0731   18.1730   20.4646 H   0  0  0  0  0  0  0  0  0  0  0  0
   18.4834   20.2099   20.0104 C   0  0  0  0  0  0  0  0  0  0  0  0
   18.9403   21.1972   19.8621 H   0  0  0  0  0  0  0  0  0  0  0  0
   17.9557   19.9367   19.0873 H   0  0  0  0  0  0  0  0  0  0  0  0
   17.7410   20.2939   20.8151 H   0  0  0  0  0  0  0  0  0  0  0  0
  1  2  1  0  0  0  0
  1  3  2  0  0  0  0
  1  4  1  0  0  0  0
  4  5  1  0  0  0  0
  4  6  1  0  0  0  0
  4  7  1  0  0  0  0
  7  8  1  0  0  0  0
  7  9  2  0  0  0  0
  9 10  1  0  0  0  0
  9 11  1  0  0  0  0
 11 12  1  0  0  0  0
 11 13  1  0  0  0  0
 11 14  1  0  0  0  0
 14 15  1  0  0  0  0
 14 16  1  0  0  0  0
 14 17  1  0  0  0  0
M  END
> <VConfSearch Rank>
897

> <Conf_Id>
35

> <Delta U+W>
-0.102

> <U+W>
-49.529

> <U>
13.666

> <W>
-63.195

> <W(PB)>
-65.299

> <W(SA)>
2.103

> <Valence>
15.226

> <Coulomb>
-1.822

> <VdW>
0.261

> <VdW6>
-4.165

> <VdW12>
4.426

> <Bond>
0.044

> <Angle>
2.229

> <Pdih>
12.953

> <Idih>
0.000

> <Tether>
0.000

$$$$
VeraChem MOL file


 17 16  0  0  0  0  0  0  0  0999 V2000     
   19.1340   16.4131   22.7573 C   0  0  0  0  0  0  0  0  0  0  0  0
   19.4197   15.6565   21.8502 O   0  5  0  0  0  0  0  0  0  0  0  0
   19.2428   16.1244   23.9327 O   0  0  0  0  0  0  0  0  0  0  0  0
   18.6018   17.7946   22.3993 C   0  0  0  0  0  0  0  0  0  0  0  0
   18.0099   18.1639   23.2453 H   0  0  0  0  0  0  0  0  0  0  0  0
   17.9143   17.6795   21.5533 H   0  0  0  0  0  0  0  0  0  0  0  0
   19.7087   18.7683   22.0417 C   0  0  0  0  0  0  0  0  0  0  0  0
   20.2334   18.5396   21.1156 H   0  0  0  0  0  0  0  0  0  0  0  0
   20.0404   19.8293   22.7881 C   0  0  0  0  0  0  0  0  0  0  0  0
   19.4955   20.0238   23.7113 H   0  0  0  0  0  0  0  0  0  0  0  0
   21.1361   20.8396   22.4930 C   0  0  0  0  0  0  0  0  0  0  0  0
   20.6931   21.8438   22.4492 H   0  0  0  0  0  0  0  0  0  0  0  0
   21.8366   20.8629   23.3388 H   0  0  0  0  0  0  0  0  0  0  0  0
   21.9277   20.5818   21.1919 C   0  0  0  0  0  0  0  0  0  0  0  0
   21.2655   20.6056   20.3165 H   0  0  0  0  0  0  0  0  0  0  0  0
   22.6982   21.3510   21.0513 H   0  0  0  0  0  0  0  0  0  0  0  0
   22.4292   19.6055   21.2228 H   0  0  0  0  0  0  0  0  0  0  0  0
  1  2  1  0  0  0  0
  1  3  2  0  0  0  0
  1  4  1  0  0  0  0
  4  5  1  0  0  0  0
  4  6  1  0  0  0  0
  4  7  1  0  0  0  0
  7  8  1  0  0  0  0
  7  9  2  0  0  0  0
  9 10  1  0  0  0  0
  9 11  1  0  0  0  0
 11 12  1  0  0  0  0
 11 13  1  0  0  0  0
 11 14  1  0  0  0  0
 14 15  1  0  0  0  0
 14 16  1  0  0  0  0
 14 17  1  0  0  0  0
M  END
> <VConfSearch Rank>
898

> <Conf_Id>
19

> <Delta U+W>
-0.496

> <U+W>
-49.923

> <U>
13.863

> <W>
-63.786

> <W(PB)>
-65.856

> <W(SA)>
2.070

> <Valence>
14.117

> <Coulomb>
-1.228

> <VdW>
0.974

> <VdW6>
-4.885

> <VdW12>
5.859

> <Bond>
0.094

> <Angle>
2.818

> <Pdih>
11.205

> <Idih>
0.000

> <Tether>
0.000

$$$$
VeraChem MOL file


 17 16  0  0  0  0  0  0  0  0999 V2000     
   17.6362   19.5291   20.7816 C   0  0  0  0  0  0  0  0  0  0  0  0
   18.0131   20.0785   19.7654 O   0  5  0  0  0  0  0  0  0  0  0  0
   16.8305   18.6193   20.7945 O   0  0  0  0  0  0  0  0  0  0  0  0
   18.1943   20.0124   22.1138 C   0  0  0  0  0  0  0  0  0  0  0  0
   17.3662   20.0457   22.8312 H   0  0  0  0  0  0  0  0  0  0  0  0
   18.5483   21.0422   21.9842 H   0  0  0  0  0  0  0  0  0  0  0  0
   19.3021   19.1186   22.6380 C   0  0  0  0  0  0  0  0  0  0  0  0
   18.9901   18.1184   22.9374 H   0  0  0  0  0  0  0  0  0  0  0  0
   20.5828   19.4880   22.7351 C   0  0  0  0  0  0  0  0  0  0  0  0
   20.8950   20.4865   22.4307 H   0  0  0  0  0  0  0  0  0  0  0  0
   21.6863   18.5942   23.2553 C   0  0  0  0  0  0  0  0  0  0  0  0
   22.2855   19.1384   23.9979 H   0  0  0  0  0  0  0  0  0  0  0  0
   21.2630   17.7209   23.7703 H   0  0  0  0  0  0  0  0  0  0  0  0
   22.5988   18.1170   22.1087 C   0  0  0  0  0  0  0  0  0  0  0  0
   23.0669   18.9699   21.5999 H   0  0  0  0  0  0  0  0  0  0  0  0
   23.3974   17.4685   22.4917 H   0  0  0  0  0  0  0  0  0  0  0  0
   22.0250   17.5483   21.3651 H   0  0  0  0  0  0  0  0  0  0  0  0
  1  2  1  0  0  0  0
  1  3  2  0  0  0  0
  1  4  1  0  0  0  0
  4  5  1  0  0  0  0
  4  6  1  0  0  0  0
  4  7  1  0  0  0  0
  7  8  1  0  0  0  0
  7  9  2  0  0  0  0
  9 10  1  0  0  0  0
  9 11  1  0  0  0  0
 11 12  1  0  0  0  0
 11 13  1  0  0  0  0
 11 14  1  0  0  0  0
 14 15  1  0  0  0  0
 14 16  1  0  0  0  0
 14 17  1  0  0  0  0
M  END
> <VConfSearch Rank>
899

> <Conf_Id>
7

> <Delta U+W>
-0.041

> <U+W>
-49.468

> <U>
14.121

> <W>
-63.589

> <W(PB)>
-65.660

> <W(SA)>
2.071

> <Valence>
15.230

> <Coulomb>
-1.333

> <VdW>
0.224

> <VdW6>
-4.212

> <VdW12>
4.436

> <Bond>
0.044

> <Angle>
2.230

> <Pdih>
12.956

> <Idih>
0.000

> <Tether>
0.000

$$$$
VeraChem MOL file


 17 16  0  0  0  0  0  0  0  0999 V2000     
   19.1503   18.6831   19.7523 C   0  0  0  0  0  0  0  0  0  0  0  0
   19.2662   17.4735   19.7378 O   0  5  0  0  0  0  0  0  0  0  0  0
   19.6133   19.4121   18.8972 O   0  0  0  0  0  0  0  0  0  0  0  0
   18.3571   19.3188   20.8901 C   0  0  0  0  0  0  0  0  0  0  0  0
   17.5728   18.6134   21.1883 H   0  0  0  0  0  0  0  0  0  0  0  0
   17.8367   20.1956   20.4876 H   0  0  0  0  0  0  0  0  0  0  0  0
   19.1700   19.7240   22.1115 C   0  0  0  0  0  0  0  0  0  0  0  0
   18.5846   20.1756   22.9114 H   0  0  0  0  0  0  0  0  0  0  0  0
   20.4905   19.5693   22.2643 C   0  0  0  0  0  0  0  0  0  0  0  0
   21.0989   19.1198   21.4804 H   0  0  0  0  0  0  0  0  0  0  0  0
   21.2524   19.9914   23.5009 C   0  0  0  0  0  0  0  0  0  0  0  0
   22.1440   20.5631   23.2095 H   0  0  0  0  0  0  0  0  0  0  0  0
   20.6393   20.6589   24.1220 H   0  0  0  0  0  0  0  0  0  0  0  0
   21.6772   18.7668   24.3344 C   0  0  0  0  0  0  0  0  0  0  0  0
   22.2308   19.0789   25.2295 H   0  0  0  0  0  0  0  0  0  0  0  0
   20.7993   18.1929   24.6593 H   0  0  0  0  0  0  0  0  0  0  0  0
   22.3239   18.1000   23.7490 H   0  0  0  0  0  0  0  0  0  0  0  0
  1  2  1  0  0  0  0
  1  3  2  0  0  0  0
  1  4  1  0  0  0  0
  4  5  1  0  0  0  0
  4  6  1  0  0  0  0
  4  7  1  0  0  0  0
  7  8  1  0  0  0  0
  7  9  2  0  0  0  0
  9 10  1  0  0  0  0
  9 11  1  0  0  0  0
 11 12  1  0  0  0  0
 11 13  1  0  0  0  0
 11 14  1  0  0  0  0
 14 15  1  0  0  0  0
 14 16  1  0  0  0  0
 14 17  1  0  0  0  0
M  END
> <VConfSearch Rank>
900

> <Conf_Id>
39

> <Delta U+W>
-0.422

> <U+W>
-49.849

> <U>
14.465

> <W>
-64.314

> <W(PB)>
-66.406

> <W(SA)>
2.093

> <Valence>
14.072

> <Coulomb>
-0.199

> <VdW>
0.592

> <VdW6>
-5.019

> <VdW12>
5.611

> <Bond>
0.085

> <Angle>
2.748

> <Pdih>
11.238

> <Idih>
0.001

> <Tether>
0.000

$$$$
VeraChem MOL file


 17 16  0  0  0  0  0  0  0  0999 V2000     
   19.4225   18.8533   25.1662 C   0  0  0  0  0  0  0  0  0  0  0  0
   19.2480   19.8585   25.8265 O   0  5  0  0  0  0  0  0  0  0  0  0
   20.0154   17.8748   25.5758 O   0  0  0  0  0  0  0  0  0  0  0  0
   18.8620   18.8179   23.7505 C   0  0  0  0  0  0  0  0  0  0  0  0
   17.8696   19.2830   23.7715 H   0  0  0  0  0  0  0  0  0  0  0  0
   18.7187   17.7690   23.4643 H   0  0  0  0  0  0  0  0  0  0  0  0
   19.7528   19.5363   22.7550 C   0  0  0  0  0  0  0  0  0  0  0  0
   19.8142   20.6168   22.8810 H   0  0  0  0  0  0  0  0  0  0  0  0
   20.4334   18.9265   21.7796 C   0  0  0  0  0  0  0  0  0  0  0  0
   20.3739   17.8457   21.6560 H   0  0  0  0  0  0  0  0  0  0  0  0
   21.3242   19.6440   20.7902 C   0  0  0  0  0  0  0  0  0  0  0  0
   21.5334   20.6668   21.1327 H   0  0  0  0  0  0  0  0  0  0  0  0
   22.2926   19.1300   20.7227 H   0  0  0  0  0  0  0  0  0  0  0  0
   20.6722   19.6968   19.3948 C   0  0  0  0  0  0  0  0  0  0  0  0
   19.7129   20.2297   19.4327 H   0  0  0  0  0  0  0  0  0  0  0  0
   21.3234   20.2180   18.6811 H   0  0  0  0  0  0  0  0  0  0  0  0
   20.4866   18.6852   19.0107 H   0  0  0  0  0  0  0  0  0  0  0  0
  1  2  1  0  0  0  0
  1  3  2  0  0  0  0
  1  4  1  0  0  0  0
  4  5  1  0  0  0  0
  4  6  1  0  0  0  0
  4  7  1  0  0  0  0
  7  8  1  0  0  0  0
  7  9  2  0  0  0  0
  9 10  1  0  0  0  0
  9 11  1  0  0  0  0
 11 12  1  0  0  0  0
 11 13  1  0  0  0  0
 11 14  1  0  0  0  0
 14 15  1  0  0  0  0
 14 16  1  0  0  0  0
 14 17  1  0  0  0  0
M  END
> <VConfSearch Rank>
901

> <Conf_Id>
38

> <Delta U+W>
0.000

> <U+W>
-49.427

> <U>
13.666

> <W>
-63.093

> <W(PB)>
-65.225

> <W(SA)>
2.132

> <Valence>
15.226

> <Coulomb>
-1.822

> <VdW>
0.261

> <VdW6>
-4.165

> <VdW12>
4.426

> <Bond>
0.044

> <Angle>
2.229

> <Pdih>
12.953

> <Idih>
0.000

> <Tether>
0.000

$$$$
VeraChem MOL file


 17 16  0  0  0  0  0  0  0  0999 V2000     
   17.9777   16.9228   22.3757 C   0  0  0  0  0  0  0  0  0  0  0  0
   18.3953   16.1024   23.1690 O   0  5  0  0  0  0  0  0  0  0  0  0
   17.3576   16.6319   21.3718 O   0  0  0  0  0  0  0  0  0  0  0  0
   18.2399   18.3968   22.6558 C   0  0  0  0  0  0  0  0  0  0  0  0
   18.4038   18.5174   23.7333 H   0  0  0  0  0  0  0  0  0  0  0  0
   17.3286   18.9524   22.4059 H   0  0  0  0  0  0  0  0  0  0  0  0
   19.4141   18.9387   21.8632 C   0  0  0  0  0  0  0  0  0  0  0  0
   19.2595   19.0006   20.7864 H   0  0  0  0  0  0  0  0  0  0  0  0
   20.5739   19.3216   22.4059 C   0  0  0  0  0  0  0  0  0  0  0  0
   20.7290   19.2564   23.4823 H   0  0  0  0  0  0  0  0  0  0  0  0
   21.7452   19.8580   21.6136 C   0  0  0  0  0  0  0  0  0  0  0  0
   22.6664   19.3442   21.9200 H   0  0  0  0  0  0  0  0  0  0  0  0
   21.6110   19.6527   20.5425 H   0  0  0  0  0  0  0  0  0  0  0  0
   21.9086   21.3757   21.8255 C   0  0  0  0  0  0  0  0  0  0  0  0
   22.0827   21.6068   22.8846 H   0  0  0  0  0  0  0  0  0  0  0  0
   22.7603   21.7590   21.2487 H   0  0  0  0  0  0  0  0  0  0  0  0
   21.0079   21.9138   21.5015 H   0  0  0  0  0  0  0  0  0  0  0  0
  1  2  1  0  0  0  0
  1  3  2  0  0  0  0
  1  4  1  0  0  0  0
  4  5  1  0  0  0  0
  4  6  1  0  0  0  0
  4  7  1  0  0  0  0
  7  8  1  0  0  0  0
  7  9  2  0  0  0  0
  9 10  1  0  0  0  0
  9 11  1  0  0  0  0
 11 12  1  0  0  0  0
 11 13  1  0  0  0  0
 11 14  1  0  0  0  0
 14 15  1  0  0  0  0
 14 16  1  0  0  0  0
 14 17  1  0  0  0  0
M  END
> <VConfSearch Rank>
902

> <Conf_Id>
35

> <Delta U+W>
-0.102

> <U+W>
-49.529

> <U>
13.666

> <W>
-63.195

> <W(PB)>
-65.299

> <W(SA)>
2.103

> <Valence>
15.226

> <Coulomb>
-1.822

> <VdW>
0.261

> <VdW6>
-4.165

> <VdW12>
4.426

> <Bond>
0.044

> <Angle>
2.229

> <Pdih>
12.953

> <Idih>
0.000

> <Tether>
0.000

$$$$
VeraChem MOL file


 17 16  0  0  0  0  0  0  0  0999 V2000     
   19.6304   17.9666   19.5440 C   0  0  0  0  0  0  0  0  0  0  0  0
   20.0885   16.8439   19.4617 O   0  5  0  0  0  0  0  0  0  0  0  0
   18.5117   18.2646   19.1744 O   0  0  0  0  0  0  0  0  0  0  0  0
   20.5112   19.0601   20.1339 C   0  0  0  0  0  0  0  0  0  0  0  0
   20.1576   20.0267   19.7556 H   0  0  0  0  0  0  0  0  0  0  0  0
   21.5268   18.9168   19.7472 H   0  0  0  0  0  0  0  0  0  0  0  0
   20.5241   19.0398   21.6508 C   0  0  0  0  0  0  0  0  0  0  0  0
   21.0106   18.1702   22.0894 H   0  0  0  0  0  0  0  0  0  0  0  0
   19.9839   19.9970   22.4154 C   0  0  0  0  0  0  0  0  0  0  0  0
   19.5013   20.8506   21.9405 H   0  0  0  0  0  0  0  0  0  0  0  0
   19.9575   20.0386   23.9340 C   0  0  0  0  0  0  0  0  0  0  0  0
   20.4403   20.9648   24.2739 H   0  0  0  0  0  0  0  0  0  0  0  0
   18.9143   20.1090   24.2705 H   0  0  0  0  0  0  0  0  0  0  0  0
   20.6304   18.8355   24.6310 C   0  0  0  0  0  0  0  0  0  0  0  0
   21.6919   18.7659   24.3594 H   0  0  0  0  0  0  0  0  0  0  0  0
   20.5688   18.9391   25.7221 H   0  0  0  0  0  0  0  0  0  0  0  0
   20.1377   17.8941   24.3545 H   0  0  0  0  0  0  0  0  0  0  0  0
  1  2  1  0  0  0  0
  1  3  2  0  0  0  0
  1  4  1  0  0  0  0
  4  5  1  0  0  0  0
  4  6  1  0  0  0  0
  4  7  1  0  0  0  0
  7  8  1  0  0  0  0
  7  9  2  0  0  0  0
  9 10  1  0  0  0  0
  9 11  1  0  0  0  0
 11 12  1  0  0  0  0
 11 13  1  0  0  0  0
 11 14  1  0  0  0  0
 14 15  1  0  0  0  0
 14 16  1  0  0  0  0
 14 17  1  0  0  0  0
M  END
> <VConfSearch Rank>
903

> <Conf_Id>
19

> <Delta U+W>
-0.496

> <U+W>
-49.923

> <U>
13.863

> <W>
-63.786

> <W(PB)>
-65.856

> <W(SA)>
2.070

> <Valence>
14.117

> <Coulomb>
-1.228

> <VdW>
0.974

> <VdW6>
-4.885

> <VdW12>
5.859

> <Bond>
0.094

> <Angle>
2.818

> <Pdih>
11.205

> <Idih>
0.000

> <Tether>
0.000

$$$$
VeraChem MOL file


 17 16  0  0  0  0  0  0  0  0999 V2000     
   20.2481   21.9983   22.1461 C   0  0  0  0  0  0  0  0  0  0  0  0
   19.0810   22.2888   21.9717 O   0  5  0  0  0  0  0  0  0  0  0  0
   20.9586   22.5370   22.9719 O   0  0  0  0  0  0  0  0  0  0  0  0
   20.8588   20.9074   21.2761 C   0  0  0  0  0  0  0  0  0  0  0  0
   21.8615   21.2371   20.9806 H   0  0  0  0  0  0  0  0  0  0  0  0
   20.2639   20.8271   20.3583 H   0  0  0  0  0  0  0  0  0  0  0  0
   20.9391   19.5717   21.9905 C   0  0  0  0  0  0  0  0  0  0  0  0
   21.6368   19.5327   22.8265 H   0  0  0  0  0  0  0  0  0  0  0  0
   20.2183   18.4968   21.6569 C   0  0  0  0  0  0  0  0  0  0  0  0
   19.5170   18.5379   20.8241 H   0  0  0  0  0  0  0  0  0  0  0  0
   20.2978   17.1668   22.3724 C   0  0  0  0  0  0  0  0  0  0  0  0
   20.4026   16.3563   21.6384 H   0  0  0  0  0  0  0  0  0  0  0  0
   21.1887   17.1282   23.0143 H   0  0  0  0  0  0  0  0  0  0  0  0
   19.0406   16.9239   23.2301 C   0  0  0  0  0  0  0  0  0  0  0  0
   18.1365   16.9185   22.6072 H   0  0  0  0  0  0  0  0  0  0  0  0
   19.1038   15.9577   23.7474 H   0  0  0  0  0  0  0  0  0  0  0  0
   18.9286   17.7099   23.9885 H   0  0  0  0  0  0  0  0  0  0  0  0
  1  2  1  0  0  0  0
  1  3  2  0  0  0  0
  1  4  1  0  0  0  0
  4  5  1  0  0  0  0
  4  6  1  0  0  0  0
  4  7  1  0  0  0  0
  7  8  1  0  0  0  0
  7  9  2  0  0  0  0
  9 10  1  0  0  0  0
  9 11  1  0  0  0  0
 11 12  1  0  0  0  0
 11 13  1  0  0  0  0
 11 14  1  0  0  0  0
 14 15  1  0  0  0  0
 14 16  1  0  0  0  0
 14 17  1  0  0  0  0
M  END
> <VConfSearch Rank>
904

> <Conf_Id>
7

> <Delta U+W>
-0.041

> <U+W>
-49.468

> <U>
14.121

> <W>
-63.589

> <W(PB)>
-65.660

> <W(SA)>
2.071

> <Valence>
15.230

> <Coulomb>
-1.333

> <VdW>
0.224

> <VdW6>
-4.212

> <VdW12>
4.436

> <Bond>
0.044

> <Angle>
2.230

> <Pdih>
12.956

> <Idih>
0.000

> <Tether>
0.000

$$$$
VeraChem MOL file


 17 16  0  0  0  0  0  0  0  0999 V2000     
   20.8674   20.0370   24.8155 C   0  0  0  0  0  0  0  0  0  0  0  0
   20.9995   18.9542   25.3513 O   0  5  0  0  0  0  0  0  0  0  0  0
   20.1564   20.9202   25.2531 O   0  0  0  0  0  0  0  0  0  0  0  0
   21.6578   20.3125   23.5400 C   0  0  0  0  0  0  0  0  0  0  0  0
   22.6019   19.7589   23.6033 H   0  0  0  0  0  0  0  0  0  0  0  0
   21.9307   21.3742   23.5369 H   0  0  0  0  0  0  0  0  0  0  0  0
   20.9485   19.9641   22.2392 C   0  0  0  0  0  0  0  0  0  0  0  0
   21.5302   20.1687   21.3412 H   0  0  0  0  0  0  0  0  0  0  0  0
   19.7193   19.4467   22.1275 C   0  0  0  0  0  0  0  0  0  0  0  0
   19.1169   19.2318   23.0094 H   0  0  0  0  0  0  0  0  0  0  0  0
   19.0579   19.1191   20.8072 C   0  0  0  0  0  0  0  0  0  0  0  0
   18.0380   19.5267   20.7926 H   0  0  0  0  0  0  0  0  0  0  0  0
   19.5989   19.5940   19.9772 H   0  0  0  0  0  0  0  0  0  0  0  0
   19.0058   17.5962   20.5769 C   0  0  0  0  0  0  0  0  0  0  0  0
   18.5238   17.3643   19.6183 H   0  0  0  0  0  0  0  0  0  0  0  0
   20.0174   17.1695   20.5619 H   0  0  0  0  0  0  0  0  0  0  0  0
   18.4369   17.0990   21.3736 H   0  0  0  0  0  0  0  0  0  0  0  0
  1  2  1  0  0  0  0
  1  3  2  0  0  0  0
  1  4  1  0  0  0  0
  4  5  1  0  0  0  0
  4  6  1  0  0  0  0
  4  7  1  0  0  0  0
  7  8  1  0  0  0  0
  7  9  2  0  0  0  0
  9 10  1  0  0  0  0
  9 11  1  0  0  0  0
 11 12  1  0  0  0  0
 11 13  1  0  0  0  0
 11 14  1  0  0  0  0
 14 15  1  0  0  0  0
 14 16  1  0  0  0  0
 14 17  1  0  0  0  0
M  END
> <VConfSearch Rank>
905

> <Conf_Id>
39

> <Delta U+W>
-0.422

> <U+W>
-49.849

> <U>
14.465

> <W>
-64.314

> <W(PB)>
-66.406

> <W(SA)>
2.093

> <Valence>
14.072

> <Coulomb>
-0.199

> <VdW>
0.592

> <VdW6>
-5.019

> <VdW12>
5.611

> <Bond>
0.085

> <Angle>
2.748

> <Pdih>
11.238

> <Idih>
0.001

> <Tether>
0.000

$$$$
VeraChem MOL file


 17 16  0  0  0  0  0  0  0  0999 V2000     
   19.9974   16.9862   24.2899 C   0  0  0  0  0  0  0  0  0  0  0  0
   19.9521   15.8438   23.8778 O   0  5  0  0  0  0  0  0  0  0  0  0
   19.3608   17.3812   25.2467 O   0  0  0  0  0  0  0  0  0  0  0  0
   20.9062   17.9736   23.5697 C   0  0  0  0  0  0  0  0  0  0  0  0
   21.8386   17.4525   23.3235 H   0  0  0  0  0  0  0  0  0  0  0  0
   21.1632   18.7772   24.2702 H   0  0  0  0  0  0  0  0  0  0  0  0
   20.2737   18.5326   22.3094 C   0  0  0  0  0  0  0  0  0  0  0  0
   20.1358   17.8154   21.5008 H   0  0  0  0  0  0  0  0  0  0  0  0
   19.8954   19.8057   22.1600 C   0  0  0  0  0  0  0  0  0  0  0  0
   20.0308   20.5216   22.9701 H   0  0  0  0  0  0  0  0  0  0  0  0
   19.2613   20.3604   20.9040 C   0  0  0  0  0  0  0  0  0  0  0  0
   18.9272   19.5438   20.2491 H   0  0  0  0  0  0  0  0  0  0  0  0
   18.3662   20.9407   21.1658 H   0  0  0  0  0  0  0  0  0  0  0  0
   20.2495   21.2589   20.1351 C   0  0  0  0  0  0  0  0  0  0  0  0
   21.1427   20.6927   19.8399 H   0  0  0  0  0  0  0  0  0  0  0  0
   19.7836   21.6590   19.2251 H   0  0  0  0  0  0  0  0  0  0  0  0
   20.5711   22.1068   20.7541 H   0  0  0  0  0  0  0  0  0  0  0  0
  1  2  1  0  0  0  0
  1  3  2  0  0  0  0
  1  4  1  0  0  0  0
  4  5  1  0  0  0  0
  4  6  1  0  0  0  0
  4  7  1  0  0  0  0
  7  8  1  0  0  0  0
  7  9  2  0  0  0  0
  9 10  1  0  0  0  0
  9 11  1  0  0  0  0
 11 12  1  0  0  0  0
 11 13  1  0  0  0  0
 11 14  1  0  0  0  0
 14 15  1  0  0  0  0
 14 16  1  0  0  0  0
 14 17  1  0  0  0  0
M  END
> <VConfSearch Rank>
906

> <Conf_Id>
38

> <Delta U+W>
0.000

> <U+W>
-49.427

> <U>
13.666

> <W>
-63.093

> <W(PB)>
-65.225

> <W(SA)>
2.132

> <Valence>
15.226

> <Coulomb>
-1.822

> <VdW>
0.261

> <VdW6>
-4.165

> <VdW12>
4.426

> <Bond>
0.044

> <Angle>
2.229

> <Pdih>
12.953

> <Idih>
0.000

> <Tether>
0.000

$$$$
VeraChem MOL file


 17 16  0  0  0  0  0  0  0  0999 V2000     
   20.5066   21.1794   19.6180 C   0  0  0  0  0  0  0  0  0  0  0  0
   21.5866   20.9433   19.1133 O   0  5  0  0  0  0  0  0  0  0  0  0
   20.0357   22.2963   19.7062 O   0  0  0  0  0  0  0  0  0  0  0  0
   19.6948   20.0128   20.1655 C   0  0  0  0  0  0  0  0  0  0  0  0
   20.0190   19.0989   19.6533 H   0  0  0  0  0  0  0  0  0  0  0  0
   18.6458   20.1778   19.8936 H   0  0  0  0  0  0  0  0  0  0  0  0
   19.8264   19.8688   21.6697 C   0  0  0  0  0  0  0  0  0  0  0  0
   19.3773   20.6708   22.2547 H   0  0  0  0  0  0  0  0  0  0  0  0
   20.4430   18.8494   22.2756 C   0  0  0  0  0  0  0  0  0  0  0  0
   20.8946   18.0494   21.6899 H   0  0  0  0  0  0  0  0  0  0  0  0
   20.5767   18.7095   23.7755 C   0  0  0  0  0  0  0  0  0  0  0  0
   21.6181   18.4751   24.0346 H   0  0  0  0  0  0  0  0  0  0  0  0
   20.3340   19.6585   24.2733 H   0  0  0  0  0  0  0  0  0  0  0  0
   19.6514   17.6005   24.3130 C   0  0  0  0  0  0  0  0  0  0  0  0
   19.8975   16.6312   23.8599 H   0  0  0  0  0  0  0  0  0  0  0  0
   19.7533   17.5032   25.4017 H   0  0  0  0  0  0  0  0  0  0  0  0
   18.6007   17.8263   24.0880 H   0  0  0  0  0  0  0  0  0  0  0  0
  1  2  1  0  0  0  0
  1  3  2  0  0  0  0
  1  4  1  0  0  0  0
  4  5  1  0  0  0  0
  4  6  1  0  0  0  0
  4  7  1  0  0  0  0
  7  8  1  0  0  0  0
  7  9  2  0  0  0  0
  9 10  1  0  0  0  0
  9 11  1  0  0  0  0
 11 12  1  0  0  0  0
 11 13  1  0  0  0  0
 11 14  1  0  0  0  0
 14 15  1  0  0  0  0
 14 16  1  0  0  0  0
 14 17  1  0  0  0  0
M  END
> <VConfSearch Rank>
907

> <Conf_Id>
35

> <Delta U+W>
-0.102

> <U+W>
-49.529

> <U>
13.666

> <W>
-63.195

> <W(PB)>
-65.299

> <W(SA)>
2.103

> <Valence>
15.226

> <Coulomb>
-1.822

> <VdW>
0.261

> <VdW6>
-4.165

> <VdW12>
4.426

> <Bond>
0.044

> <Angle>
2.229

> <Pdih>
12.953

> <Idih>
0.000

> <Tether>
0.000

$$$$
VeraChem MOL file


 17 16  0  0  0  0  0  0  0  0999 V2000     
   20.2668   22.0468   22.3252 C   0  0  0  0  0  0  0  0  0  0  0  0
   19.7646   22.4247   23.3654 O   0  5  0  0  0  0  0  0  0  0  0  0
   21.3052   22.4934   21.8791 O   0  0  0  0  0  0  0  0  0  0  0  0
   19.5491   20.9608   21.5345 C   0  0  0  0  0  0  0  0  0  0  0  0
   19.8569   21.0406   20.4850 H   0  0  0  0  0  0  0  0  0  0  0  0
   18.4747   21.1752   21.5705 H   0  0  0  0  0  0  0  0  0  0  0  0
   19.8210   19.5709   22.0784 C   0  0  0  0  0  0  0  0  0  0  0  0
   19.3974   19.3772   23.0623 H   0  0  0  0  0  0  0  0  0  0  0  0
   20.5267   18.6384   21.4264 C   0  0  0  0  0  0  0  0  0  0  0  0
   20.9391   18.8703   20.4449 H   0  0  0  0  0  0  0  0  0  0  0  0
   20.8395   17.2329   21.9115 C   0  0  0  0  0  0  0  0  0  0  0  0
   20.4601   16.5094   21.1773 H   0  0  0  0  0  0  0  0  0  0  0  0
   21.9292   17.0951   21.9255 H   0  0  0  0  0  0  0  0  0  0  0  0
   20.2706   16.8820   23.3040 C   0  0  0  0  0  0  0  0  0  0  0  0
   19.1752   16.9564   23.3123 H   0  0  0  0  0  0  0  0  0  0  0  0
   20.5396   15.8546   23.5819 H   0  0  0  0  0  0  0  0  0  0  0  0
   20.6712   17.5543   24.0740 H   0  0  0  0  0  0  0  0  0  0  0  0
  1  2  1  0  0  0  0
  1  3  2  0  0  0  0
  1  4  1  0  0  0  0
  4  5  1  0  0  0  0
  4  6  1  0  0  0  0
  4  7  1  0  0  0  0
  7  8  1  0  0  0  0
  7  9  2  0  0  0  0
  9 10  1  0  0  0  0
  9 11  1  0  0  0  0
 11 12  1  0  0  0  0
 11 13  1  0  0  0  0
 11 14  1  0  0  0  0
 14 15  1  0  0  0  0
 14 16  1  0  0  0  0
 14 17  1  0  0  0  0
M  END
> <VConfSearch Rank>
908

> <Conf_Id>
19

> <Delta U+W>
-0.496

> <U+W>
-49.923

> <U>
13.863

> <W>
-63.786

> <W(PB)>
-65.856

> <W(SA)>
2.070

> <Valence>
14.117

> <Coulomb>
-1.228

> <VdW>
0.974

> <VdW6>
-4.885

> <VdW12>
5.859

> <Bond>
0.094

> <Angle>
2.818

> <Pdih>
11.205

> <Idih>
0.000

> <Tether>
0.000

$$$$
VeraChem MOL file


 17 16  0  0  0  0  0  0  0  0999 V2000     
   19.7462   18.8516   25.1110 C   0  0  0  0  0  0  0  0  0  0  0  0
   18.9474   17.9394   25.1921 O   0  5  0  0  0  0  0  0  0  0  0  0
   20.7386   18.9397   25.8069 O   0  0  0  0  0  0  0  0  0  0  0  0
   19.4859   19.9511   24.0895 C   0  0  0  0  0  0  0  0  0  0  0  0
   19.7184   20.9111   24.5647 H   0  0  0  0  0  0  0  0  0  0  0  0
   18.4138   19.9584   23.8589 H   0  0  0  0  0  0  0  0  0  0  0  0
   20.3120   19.7801   22.8289 C   0  0  0  0  0  0  0  0  0  0  0  0
   21.3858   19.9159   22.9546 H   0  0  0  0  0  0  0  0  0  0  0  0
   19.8014   19.4770   21.6316 C   0  0  0  0  0  0  0  0  0  0  0  0
   18.7282   19.3363   21.5075 H   0  0  0  0  0  0  0  0  0  0  0  0
   20.6273   19.3041   20.3764 C   0  0  0  0  0  0  0  0  0  0  0  0
   20.1772   19.8770   19.5543 H   0  0  0  0  0  0  0  0  0  0  0  0
   21.6393   19.7058   20.5237 H   0  0  0  0  0  0  0  0  0  0  0  0
   20.7216   17.8189   19.9763 C   0  0  0  0  0  0  0  0  0  0  0  0
   19.7246   17.4008   19.7846 H   0  0  0  0  0  0  0  0  0  0  0  0
   21.3222   17.6991   19.0653 H   0  0  0  0  0  0  0  0  0  0  0  0
   21.1917   17.2294   20.7745 H   0  0  0  0  0  0  0  0  0  0  0  0
  1  2  1  0  0  0  0
  1  3  2  0  0  0  0
  1  4  1  0  0  0  0
  4  5  1  0  0  0  0
  4  6  1  0  0  0  0
  4  7  1  0  0  0  0
  7  8  1  0  0  0  0
  7  9  2  0  0  0  0
  9 10  1  0  0  0  0
  9 11  1  0  0  0  0
 11 12  1  0  0  0  0
 11 13  1  0  0  0  0
 11 14  1  0  0  0  0
 14 15  1  0  0  0  0
 14 16  1  0  0  0  0
 14 17  1  0  0  0  0
M  END
> <VConfSearch Rank>
909

> <Conf_Id>
7

> <Delta U+W>
-0.041

> <U+W>
-49.468

> <U>
14.121

> <W>
-63.589

> <W(PB)>
-65.660

> <W(SA)>
2.071

> <Valence>
15.230

> <Coulomb>
-1.333

> <VdW>
0.224

> <VdW6>
-4.212

> <VdW12>
4.436

> <Bond>
0.044

> <Angle>
2.230

> <Pdih>
12.956

> <Idih>
0.000

> <Tether>
0.000

$$$$
VeraChem MOL file


 17 16  0  0  0  0  0  0  0  0999 V2000     
   22.6866   20.0324   22.9824 C   0  0  0  0  0  0  0  0  0  0  0  0
   23.2046   20.1561   21.8901 O   0  5  0  0  0  0  0  0  0  0  0  0
   23.1420   19.3332   23.8660 O   0  0  0  0  0  0  0  0  0  0  0  0
   21.4111   20.8187   23.2697 C   0  0  0  0  0  0  0  0  0  0  0  0
   21.4603   21.7572   22.7054 H   0  0  0  0  0  0  0  0  0  0  0  0
   21.4231   21.1026   24.3285 H   0  0  0  0  0  0  0  0  0  0  0  0
   20.1090   20.0984   22.9493 C   0  0  0  0  0  0  0  0  0  0  0  0
   19.2111   20.6773   23.1619 H   0  0  0  0  0  0  0  0  0  0  0  0
   19.9963   18.8633   22.4465 C   0  0  0  0  0  0  0  0  0  0  0  0
   20.8781   18.2636   22.2241 H   0  0  0  0  0  0  0  0  0  0  0  0
   18.6748   18.1912   22.1467 C   0  0  0  0  0  0  0  0  0  0  0  0
   18.6724   17.1756   22.5651 H   0  0  0  0  0  0  0  0  0  0  0  0
   17.8492   18.7325   22.6289 H   0  0  0  0  0  0  0  0  0  0  0  0
   18.4209   18.1218   20.6282 C   0  0  0  0  0  0  0  0  0  0  0  0
   17.4616   17.6320   20.4165 H   0  0  0  0  0  0  0  0  0  0  0  0
   18.3935   19.1287   20.1913 H   0  0  0  0  0  0  0  0  0  0  0  0
   19.2129   17.5521   20.1246 H   0  0  0  0  0  0  0  0  0  0  0  0
  1  2  1  0  0  0  0
  1  3  2  0  0  0  0
  1  4  1  0  0  0  0
  4  5  1  0  0  0  0
  4  6  1  0  0  0  0
  4  7  1  0  0  0  0
  7  8  1  0  0  0  0
  7  9  2  0  0  0  0
  9 10  1  0  0  0  0
  9 11  1  0  0  0  0
 11 12  1  0  0  0  0
 11 13  1  0  0  0  0
 11 14  1  0  0  0  0
 14 15  1  0  0  0  0
 14 16  1  0  0  0  0
 14 17  1  0  0  0  0
M  END
> <VConfSearch Rank>
910

> <Conf_Id>
39

> <Delta U+W>
-0.422

> <U+W>
-49.849

> <U>
14.465

> <W>
-64.314

> <W(PB)>
-66.406

> <W(SA)>
2.093

> <Valence>
14.072

> <Coulomb>
-0.199

> <VdW>
0.592

> <VdW6>
-5.019

> <VdW12>
5.611

> <Bond>
0.085

> <Angle>
2.748

> <Pdih>
11.238

> <Idih>
0.001

> <Tether>
0.000

$$$$
VeraChem MOL file


 17 16  0  0  0  0  0  0  0  0999 V2000     
   21.9668   21.8023   21.6908 C   0  0  0  0  0  0  0  0  0  0  0  0
   22.0926   22.5457   22.6439 O   0  5  0  0  0  0  0  0  0  0  0  0
   21.8582   22.1916   20.5447 O   0  0  0  0  0  0  0  0  0  0  0  0
   21.9501   20.3013   21.9482 C   0  0  0  0  0  0  0  0  0  0  0  0
   22.7126   20.0827   22.7047 H   0  0  0  0  0  0  0  0  0  0  0  0
   22.2569   19.7917   21.0269 H   0  0  0  0  0  0  0  0  0  0  0  0
   20.5947   19.8075   22.4171 C   0  0  0  0  0  0  0  0  0  0  0  0
   20.2927   20.1480   23.4071 H   0  0  0  0  0  0  0  0  0  0  0  0
   19.7951   19.0131   21.6989 C   0  0  0  0  0  0  0  0  0  0  0  0
   20.0964   18.6755   20.7078 H   0  0  0  0  0  0  0  0  0  0  0  0
   18.4422   18.5248   22.1665 C   0  0  0  0  0  0  0  0  0  0  0  0
   18.1048   19.1033   23.0376 H   0  0  0  0  0  0  0  0  0  0  0  0
   17.6971   18.6832   21.3752 H   0  0  0  0  0  0  0  0  0  0  0  0
   18.4903   17.0292   22.5350 C   0  0  0  0  0  0  0  0  0  0  0  0
   19.2112   16.8498   23.3435 H   0  0  0  0  0  0  0  0  0  0  0  0
   17.5058   16.6805   22.8730 H   0  0  0  0  0  0  0  0  0  0  0  0
   18.7883   16.4220   21.6701 H   0  0  0  0  0  0  0  0  0  0  0  0
  1  2  1  0  0  0  0
  1  3  2  0  0  0  0
  1  4  1  0  0  0  0
  4  5  1  0  0  0  0
  4  6  1  0  0  0  0
  4  7  1  0  0  0  0
  7  8  1  0  0  0  0
  7  9  2  0  0  0  0
  9 10  1  0  0  0  0
  9 11  1  0  0  0  0
 11 12  1  0  0  0  0
 11 13  1  0  0  0  0
 11 14  1  0  0  0  0
 14 15  1  0  0  0  0
 14 16  1  0  0  0  0
 14 17  1  0  0  0  0
M  END
> <VConfSearch Rank>
911

> <Conf_Id>
38

> <Delta U+W>
0.000

> <U+W>
-49.427

> <U>
13.666

> <W>
-63.093

> <W(PB)>
-65.225

> <W(SA)>
2.132

> <Valence>
15.226

> <Coulomb>
-1.822

> <VdW>
0.261

> <VdW6>
-4.165

> <VdW12>
4.426

> <Bond>
0.044

> <Angle>
2.229

> <Pdih>
12.953

> <Idih>
0.000

> <Tether>
0.000

$$$$
VeraChem MOL file


 17 16  0  0  0  0  0  0  0  0999 V2000     
   20.9498   20.8462   24.7086 C   0  0  0  0  0  0  0  0  0  0  0  0
   21.2602   20.0493   25.5720 O   0  5  0  0  0  0  0  0  0  0  0  0
   20.3614   21.8855   24.9335 O   0  0  0  0  0  0  0  0  0  0  0  0
   21.3224   20.5298   23.2662 C   0  0  0  0  0  0  0  0  0  0  0  0
   22.1719   19.8363   23.2755 H   0  0  0  0  0  0  0  0  0  0  0  0
   21.6715   21.4580   22.7991 H   0  0  0  0  0  0  0  0  0  0  0  0
   20.1602   19.9555   22.4786 C   0  0  0  0  0  0  0  0  0  0  0  0
   19.3400   20.6472   22.2889 H   0  0  0  0  0  0  0  0  0  0  0  0
   20.1041   18.6968   22.0328 C   0  0  0  0  0  0  0  0  0  0  0  0
   20.9232   18.0048   22.2256 H   0  0  0  0  0  0  0  0  0  0  0  0
   18.9426   18.1247   21.2511 C   0  0  0  0  0  0  0  0  0  0  0  0
   18.6439   17.1602   21.6836 H   0  0  0  0  0  0  0  0  0  0  0  0
   18.0683   18.7864   21.3221 H   0  0  0  0  0  0  0  0  0  0  0  0
   19.3154   17.9296   19.7685 C   0  0  0  0  0  0  0  0  0  0  0  0
   20.1642   17.2408   19.6654 H   0  0  0  0  0  0  0  0  0  0  0  0
   18.4691   17.5136   19.2066 H   0  0  0  0  0  0  0  0  0  0  0  0
   19.5934   18.8864   19.3072 H   0  0  0  0  0  0  0  0  0  0  0  0
  1  2  1  0  0  0  0
  1  3  2  0  0  0  0
  1  4  1  0  0  0  0
  4  5  1  0  0  0  0
  4  6  1  0  0  0  0
  4  7  1  0  0  0  0
  7  8  1  0  0  0  0
  7  9  2  0  0  0  0
  9 10  1  0  0  0  0
  9 11  1  0  0  0  0
 11 12  1  0  0  0  0
 11 13  1  0  0  0  0
 11 14  1  0  0  0  0
 14 15  1  0  0  0  0
 14 16  1  0  0  0  0
 14 17  1  0  0  0  0
M  END
> <VConfSearch Rank>
912

> <Conf_Id>
35

> <Delta U+W>
-0.102

> <U+W>
-49.529

> <U>
13.666

> <W>
-63.195

> <W(PB)>
-65.299

> <W(SA)>
2.103

> <Valence>
15.226

> <Coulomb>
-1.822

> <VdW>
0.261

> <VdW6>
-4.165

> <VdW12>
4.426

> <Bond>
0.044

> <Angle>
2.229

> <Pdih>
12.953

> <Idih>
0.000

> <Tether>
0.000

$$$$
VeraChem MOL file


 17 16  0  0  0  0  0  0  0  0999 V2000     
   18.6504   17.5524   24.1635 C   0  0  0  0  0  0  0  0  0  0  0  0
   18.2231   18.2932   25.0270 O   0  5  0  0  0  0  0  0  0  0  0  0
   17.9795   16.6982   23.6186 O   0  0  0  0  0  0  0  0  0  0  0  0
   20.1090   17.6980   23.7499 C   0  0  0  0  0  0  0  0  0  0  0  0
   20.4420   16.7432   23.3255 H   0  0  0  0  0  0  0  0  0  0  0  0
   20.6990   17.8681   24.6579 H   0  0  0  0  0  0  0  0  0  0  0  0
   20.3236   18.8353   22.7691 C   0  0  0  0  0  0  0  0  0  0  0  0
   20.1610   19.8289   23.1831 H   0  0  0  0  0  0  0  0  0  0  0  0
   20.6787   18.6616   21.4899 C   0  0  0  0  0  0  0  0  0  0  0  0
   20.8282   17.6515   21.1098 H   0  0  0  0  0  0  0  0  0  0  0  0
   20.9062   19.7508   20.4553 C   0  0  0  0  0  0  0  0  0  0  0  0
   21.9264   19.6587   20.0587 H   0  0  0  0  0  0  0  0  0  0  0  0
   20.2401   19.5745   19.5999 H   0  0  0  0  0  0  0  0  0  0  0  0
   20.6943   21.1922   20.9685 C   0  0  0  0  0  0  0  0  0  0  0  0
   21.3836   21.4229   21.7914 H   0  0  0  0  0  0  0  0  0  0  0  0
   20.8758   21.9176   20.1648 H   0  0  0  0  0  0  0  0  0  0  0  0
   19.6658   21.3361   21.3251 H   0  0  0  0  0  0  0  0  0  0  0  0
  1  2  1  0  0  0  0
  1  3  2  0  0  0  0
  1  4  1  0  0  0  0
  4  5  1  0  0  0  0
  4  6  1  0  0  0  0
  4  7  1  0  0  0  0
  7  8  1  0  0  0  0
  7  9  2  0  0  0  0
  9 10  1  0  0  0  0
  9 11  1  0  0  0  0
 11 12  1  0  0  0  0
 11 13  1  0  0  0  0
 11 14  1  0  0  0  0
 14 15  1  0  0  0  0
 14 16  1  0  0  0  0
 14 17  1  0  0  0  0
M  END
> <VConfSearch Rank>
913

> <Conf_Id>
19

> <Delta U+W>
-0.496

> <U+W>
-49.923

> <U>
13.863

> <W>
-63.786

> <W(PB)>
-65.856

> <W(SA)>
2.070

> <Valence>
14.117

> <Coulomb>
-1.228

> <VdW>
0.974

> <VdW6>
-4.885

> <VdW12>
5.859

> <Bond>
0.094

> <Angle>
2.818

> <Pdih>
11.205

> <Idih>
0.000

> <Tether>
0.000

$$$$
VeraChem MOL file


 17 16  0  0  0  0  0  0  0  0999 V2000     
   20.8364   16.9096   20.3368 C   0  0  0  0  0  0  0  0  0  0  0  0
   19.7422   16.4735   20.0376 O   0  5  0  0  0  0  0  0  0  0  0  0
   21.7080   17.1521   19.5253 O   0  0  0  0  0  0  0  0  0  0  0  0
   21.1378   17.1564   21.8092 C   0  0  0  0  0  0  0  0  0  0  0  0
   22.1583   16.8075   22.0049 H   0  0  0  0  0  0  0  0  0  0  0  0
   20.4644   16.5304   22.4070 H   0  0  0  0  0  0  0  0  0  0  0  0
   21.0045   18.6180   22.1923 C   0  0  0  0  0  0  0  0  0  0  0  0
   21.7472   19.2834   21.7531 H   0  0  0  0  0  0  0  0  0  0  0  0
   20.0551   19.0992   23.0006 C   0  0  0  0  0  0  0  0  0  0  0  0
   19.3097   18.4341   23.4354 H   0  0  0  0  0  0  0  0  0  0  0  0
   19.9223   20.5575   23.3790 C   0  0  0  0  0  0  0  0  0  0  0  0
   19.7986   20.6487   24.4666 H   0  0  0  0  0  0  0  0  0  0  0  0
   20.8372   21.1071   23.1184 H   0  0  0  0  0  0  0  0  0  0  0  0
   18.7182   21.2060   22.6686 C   0  0  0  0  0  0  0  0  0  0  0  0
   17.7830   20.6998   22.9419 H   0  0  0  0  0  0  0  0  0  0  0  0
   18.6268   22.2641   22.9464 H   0  0  0  0  0  0  0  0  0  0  0  0
   18.8320   21.1484   21.5780 H   0  0  0  0  0  0  0  0  0  0  0  0
  1  2  1  0  0  0  0
  1  3  2  0  0  0  0
  1  4  1  0  0  0  0
  4  5  1  0  0  0  0
  4  6  1  0  0  0  0
  4  7  1  0  0  0  0
  7  8  1  0  0  0  0
  7  9  2  0  0  0  0
  9 10  1  0  0  0  0
  9 11  1  0  0  0  0
 11 12  1  0  0  0  0
 11 13  1  0  0  0  0
 11 14  1  0  0  0  0
 14 15  1  0  0  0  0
 14 16  1  0  0  0  0
 14 17  1  0  0  0  0
M  END
> <VConfSearch Rank>
914

> <Conf_Id>
7

> <Delta U+W>
-0.041

> <U+W>
-49.468

> <U>
14.121

> <W>
-63.589

> <W(PB)>
-65.660

> <W(SA)>
2.071

> <Valence>
15.230

> <Coulomb>
-1.333

> <VdW>
0.224

> <VdW6>
-4.212

> <VdW12>
4.436

> <Bond>
0.044

> <Angle>
2.230

> <Pdih>
12.956

> <Idih>
0.000

> <Tether>
0.000

$$$$
VeraChem MOL file


 17 16  0  0  0  0  0  0  0  0999 V2000     
   20.2048   22.0148   22.5861 C   0  0  0  0  0  0  0  0  0  0  0  0
   20.9079   22.1125   23.5725 O   0  5  0  0  0  0  0  0  0  0  0  0
   19.1019   22.5173   22.4955 O   0  0  0  0  0  0  0  0  0  0  0  0
   20.7469   21.2436   21.3866 C   0  0  0  0  0  0  0  0  0  0  0  0
   21.8351   21.3746   21.3664 H   0  0  0  0  0  0  0  0  0  0  0  0
   20.3683   21.7263   20.4781 H   0  0  0  0  0  0  0  0  0  0  0  0
   20.4113   19.7593   21.3536 C   0  0  0  0  0  0  0  0  0  0  0  0
   20.8077   19.2280   20.4892 H   0  0  0  0  0  0  0  0  0  0  0  0
   19.6989   19.0932   22.2700 C   0  0  0  0  0  0  0  0  0  0  0  0
   19.2919   19.6004   23.1441 H   0  0  0  0  0  0  0  0  0  0  0  0
   19.3916   17.6144   22.1892 C   0  0  0  0  0  0  0  0  0  0  0  0
   18.3221   17.4475   22.3761 H   0  0  0  0  0  0  0  0  0  0  0  0
   19.5983   17.2326   21.1799 H   0  0  0  0  0  0  0  0  0  0  0  0
   20.2225   16.8194   23.2152 C   0  0  0  0  0  0  0  0  0  0  0  0
   19.9945   15.7474   23.1530 H   0  0  0  0  0  0  0  0  0  0  0  0
   21.2971   16.9506   23.0319 H   0  0  0  0  0  0  0  0  0  0  0  0
   20.0067   17.1551   24.2380 H   0  0  0  0  0  0  0  0  0  0  0  0
  1  2  1  0  0  0  0
  1  3  2  0  0  0  0
  1  4  1  0  0  0  0
  4  5  1  0  0  0  0
  4  6  1  0  0  0  0
  4  7  1  0  0  0  0
  7  8  1  0  0  0  0
  7  9  2  0  0  0  0
  9 10  1  0  0  0  0
  9 11  1  0  0  0  0
 11 12  1  0  0  0  0
 11 13  1  0  0  0  0
 11 14  1  0  0  0  0
 14 15  1  0  0  0  0
 14 16  1  0  0  0  0
 14 17  1  0  0  0  0
M  END
> <VConfSearch Rank>
915

> <Conf_Id>
39

> <Delta U+W>
-0.422

> <U+W>
-49.849

> <U>
14.465

> <W>
-64.314

> <W(PB)>
-66.406

> <W(SA)>
2.093

> <Valence>
14.072

> <Coulomb>
-0.199

> <VdW>
0.592

> <VdW6>
-5.019

> <VdW12>
5.611

> <Bond>
0.085

> <Angle>
2.748

> <Pdih>
11.238

> <Idih>
0.001

> <Tether>
0.000

$$$$
VeraChem MOL file


 17 16  0  0  0  0  0  0  0  0999 V2000     
   21.3384   21.6056   23.8569 C   0  0  0  0  0  0  0  0  0  0  0  0
   22.5511   21.6754   23.8939 O   0  5  0  0  0  0  0  0  0  0  0  0
   20.6246   21.7966   24.8217 O   0  0  0  0  0  0  0  0  0  0  0  0
   20.6791   21.2654   22.5268 C   0  0  0  0  0  0  0  0  0  0  0  0
   21.2113   21.8120   21.7397 H   0  0  0  0  0  0  0  0  0  0  0  0
   19.6518   21.6489   22.5451 H   0  0  0  0  0  0  0  0  0  0  0  0
   20.6989   19.7776   22.2324 C   0  0  0  0  0  0  0  0  0  0  0  0
   21.6846   19.3546   22.0408 H   0  0  0  0  0  0  0  0  0  0  0  0
   19.6100   19.0032   22.2027 C   0  0  0  0  0  0  0  0  0  0  0  0
   18.6251   19.4264   22.3973 H   0  0  0  0  0  0  0  0  0  0  0  0
   19.6321   17.5191   21.9126 C   0  0  0  0  0  0  0  0  0  0  0  0
   20.6566   17.1286   21.9845 H   0  0  0  0  0  0  0  0  0  0  0  0
   19.0377   16.9852   22.6663 H   0  0  0  0  0  0  0  0  0  0  0  0
   19.0700   17.2206   20.5091 C   0  0  0  0  0  0  0  0  0  0  0  0
   19.6649   17.7240   19.7356 H   0  0  0  0  0  0  0  0  0  0  0  0
   19.0880   16.1422   20.3046 H   0  0  0  0  0  0  0  0  0  0  0  0
   18.0317   17.5667   20.4212 H   0  0  0  0  0  0  0  0  0  0  0  0
  1  2  1  0  0  0  0
  1  3  2  0  0  0  0
  1  4  1  0  0  0  0
  4  5  1  0  0  0  0
  4  6  1  0  0  0  0
  4  7  1  0  0  0  0
  7  8  1  0  0  0  0
  7  9  2  0  0  0  0
  9 10  1  0  0  0  0
  9 11  1  0  0  0  0
 11 12  1  0  0  0  0
 11 13  1  0  0  0  0
 11 14  1  0  0  0  0
 14 15  1  0  0  0  0
 14 16  1  0  0  0  0
 14 17  1  0  0  0  0
M  END
> <VConfSearch Rank>
916

> <Conf_Id>
38

> <Delta U+W>
0.000

> <U+W>
-49.427

> <U>
13.666

> <W>
-63.093

> <W(PB)>
-65.225

> <W(SA)>
2.132

> <Valence>
15.226

> <Coulomb>
-1.822

> <VdW>
0.261

> <VdW6>
-4.165

> <VdW12>
4.426

> <Bond>
0.044

> <Angle>
2.229

> <Pdih>
12.953

> <Idih>
0.000

> <Tether>
0.000

$$$$
VeraChem MOL file


 17 16  0  0  0  0  0  0  0  0999 V2000     
   18.6546   17.3440   24.1707 C   0  0  0  0  0  0  0  0  0  0  0  0
   18.3210   17.9864   25.1469 O   0  5  0  0  0  0  0  0  0  0  0  0
   19.0689   16.2029   24.2267 O   0  0  0  0  0  0  0  0  0  0  0  0
   18.5430   18.0009   22.8012 C   0  0  0  0  0  0  0  0  0  0  0  0
   17.7948   18.8002   22.8640 H   0  0  0  0  0  0  0  0  0  0  0  0
   18.1545   17.2522   22.1012 H   0  0  0  0  0  0  0  0  0  0  0  0
   19.8718   18.5380   22.3046 C   0  0  0  0  0  0  0  0  0  0  0  0
   20.6185   17.7818   22.0642 H   0  0  0  0  0  0  0  0  0  0  0  0
   20.1501   19.8372   22.1601 C   0  0  0  0  0  0  0  0  0  0  0  0
   19.4041   20.5930   22.4037 H   0  0  0  0  0  0  0  0  0  0  0  0
   21.4770   20.3711   21.6686 C   0  0  0  0  0  0  0  0  0  0  0  0
   21.8259   21.1697   22.3372 H   0  0  0  0  0  0  0  0  0  0  0  0
   22.2417   19.5825   21.6936 H   0  0  0  0  0  0  0  0  0  0  0  0
   21.3562   20.9190   20.2333 C   0  0  0  0  0  0  0  0  0  0  0  0
   20.6247   21.7364   20.1863 H   0  0  0  0  0  0  0  0  0  0  0  0
   22.3218   21.3055   19.8824 H   0  0  0  0  0  0  0  0  0  0  0  0
   21.0329   20.1305   19.5409 H   0  0  0  0  0  0  0  0  0  0  0  0
  1  2  1  0  0  0  0
  1  3  2  0  0  0  0
  1  4  1  0  0  0  0
  4  5  1  0  0  0  0
  4  6  1  0  0  0  0
  4  7  1  0  0  0  0
  7  8  1  0  0  0  0
  7  9  2  0  0  0  0
  9 10  1  0  0  0  0
  9 11  1  0  0  0  0
 11 12  1  0  0  0  0
 11 13  1  0  0  0  0
 11 14  1  0  0  0  0
 14 15  1  0  0  0  0
 14 16  1  0  0  0  0
 14 17  1  0  0  0  0
M  END
> <VConfSearch Rank>
917

> <Conf_Id>
35

> <Delta U+W>
-0.102

> <U+W>
-49.529

> <U>
13.666

> <W>
-63.195

> <W(PB)>
-65.299

> <W(SA)>
2.103

> <Valence>
15.226

> <Coulomb>
-1.822

> <VdW>
0.261

> <VdW6>
-4.165

> <VdW12>
4.426

> <Bond>
0.044

> <Angle>
2.229

> <Pdih>
12.953

> <Idih>
0.000

> <Tether>
0.000

$$$$
VeraChem MOL file


 17 16  0  0  0  0  0  0  0  0999 V2000     
   20.0513   17.6884   19.6175 C   0  0  0  0  0  0  0  0  0  0  0  0
   20.8468   18.1663   18.8328 O   0  5  0  0  0  0  0  0  0  0  0  0
   19.8968   16.4932   19.7739 O   0  0  0  0  0  0  0  0  0  0  0  0
   19.1955   18.6411   20.4420 C   0  0  0  0  0  0  0  0  0  0  0  0
   18.2857   18.1094   20.7456 H   0  0  0  0  0  0  0  0  0  0  0  0
   18.8830   19.4625   19.7869 H   0  0  0  0  0  0  0  0  0  0  0  0
   19.9347   19.1895   21.6479 C   0  0  0  0  0  0  0  0  0  0  0  0
   20.7590   19.8595   21.4094 H   0  0  0  0  0  0  0  0  0  0  0  0
   19.6251   18.8874   22.9150 C   0  0  0  0  0  0  0  0  0  0  0  0
   18.7960   18.2093   23.1147 H   0  0  0  0  0  0  0  0  0  0  0  0
   20.3226   19.3954   24.1656 C   0  0  0  0  0  0  0  0  0  0  0  0
   19.5857   19.9002   24.8049 H   0  0  0  0  0  0  0  0  0  0  0  0
   20.6793   18.5356   24.7488 H   0  0  0  0  0  0  0  0  0  0  0  0
   21.5061   20.3541   23.9083 C   0  0  0  0  0  0  0  0  0  0  0  0
   21.1753   21.2537   23.3729 H   0  0  0  0  0  0  0  0  0  0  0  0
   21.9555   20.6741   24.8574 H   0  0  0  0  0  0  0  0  0  0  0  0
   22.2885   19.8634   23.3146 H   0  0  0  0  0  0  0  0  0  0  0  0
  1  2  1  0  0  0  0
  1  3  2  0  0  0  0
  1  4  1  0  0  0  0
  4  5  1  0  0  0  0
  4  6  1  0  0  0  0
  4  7  1  0  0  0  0
  7  8  1  0  0  0  0
  7  9  2  0  0  0  0
  9 10  1  0  0  0  0
  9 11  1  0  0  0  0
 11 12  1  0  0  0  0
 11 13  1  0  0  0  0
 11 14  1  0  0  0  0
 14 15  1  0  0  0  0
 14 16  1  0  0  0  0
 14 17  1  0  0  0  0
M  END
> <VConfSearch Rank>
918

> <Conf_Id>
19

> <Delta U+W>
-0.496

> <U+W>
-49.923

> <U>
13.863

> <W>
-63.786

> <W(PB)>
-65.856

> <W(SA)>
2.070

> <Valence>
14.117

> <Coulomb>
-1.228

> <VdW>
0.974

> <VdW6>
-4.885

> <VdW12>
5.859

> <Bond>
0.094

> <Angle>
2.818

> <Pdih>
11.205

> <Idih>
0.000

> <Tether>
0.000

$$$$
VeraChem MOL file


 17 16  0  0  0  0  0  0  0  0999 V2000     
   18.9845   16.3846   21.9637 C   0  0  0  0  0  0  0  0  0  0  0  0
   19.5470   15.9465   20.9796 O   0  5  0  0  0  0  0  0  0  0  0  0
   18.8468   15.7559   22.9947 O   0  0  0  0  0  0  0  0  0  0  0  0
   18.4107   17.7940   21.9004 C   0  0  0  0  0  0  0  0  0  0  0  0
   17.4279   17.7773   22.3856 H   0  0  0  0  0  0  0  0  0  0  0  0
   18.2443   18.0498   20.8471 H   0  0  0  0  0  0  0  0  0  0  0  0
   19.3064   18.8166   22.5732 C   0  0  0  0  0  0  0  0  0  0  0  0
   19.3946   18.7176   23.6547 H   0  0  0  0  0  0  0  0  0  0  0  0
   19.9651   19.7812   21.9237 C   0  0  0  0  0  0  0  0  0  0  0  0
   19.8807   19.8766   20.8417 H   0  0  0  0  0  0  0  0  0  0  0  0
   20.8601   20.7981   22.5962 C   0  0  0  0  0  0  0  0  0  0  0  0
   20.6106   21.8062   22.2384 H   0  0  0  0  0  0  0  0  0  0  0  0
   20.6932   20.7986   23.6822 H   0  0  0  0  0  0  0  0  0  0  0  0
   22.3454   20.5039   22.3089 C   0  0  0  0  0  0  0  0  0  0  0  0
   22.5494   20.5354   21.2306 H   0  0  0  0  0  0  0  0  0  0  0  0
   22.9903   21.2444   22.7996 H   0  0  0  0  0  0  0  0  0  0  0  0
   22.6245   19.5091   22.6807 H   0  0  0  0  0  0  0  0  0  0  0  0
  1  2  1  0  0  0  0
  1  3  2  0  0  0  0
  1  4  1  0  0  0  0
  4  5  1  0  0  0  0
  4  6  1  0  0  0  0
  4  7  1  0  0  0  0
  7  8  1  0  0  0  0
  7  9  2  0  0  0  0
  9 10  1  0  0  0  0
  9 11  1  0  0  0  0
 11 12  1  0  0  0  0
 11 13  1  0  0  0  0
 11 14  1  0  0  0  0
 14 15  1  0  0  0  0
 14 16  1  0  0  0  0
 14 17  1  0  0  0  0
M  END
> <VConfSearch Rank>
919

> <Conf_Id>
7

> <Delta U+W>
-0.041

> <U+W>
-49.468

> <U>
14.121

> <W>
-63.589

> <W(PB)>
-65.660

> <W(SA)>
2.071

> <Valence>
15.230

> <Coulomb>
-1.333

> <VdW>
0.224

> <VdW6>
-4.212

> <VdW12>
4.436

> <Bond>
0.044

> <Angle>
2.230

> <Pdih>
12.956

> <Idih>
0.000

> <Tether>
0.000

$$$$
VeraChem MOL file


 17 16  0  0  0  0  0  0  0  0999 V2000     
   19.5236   20.2321   19.7485 C   0  0  0  0  0  0  0  0  0  0  0  0
   20.5827   20.7383   19.4337 O   0  5  0  0  0  0  0  0  0  0  0  0
   18.4633   20.8257   19.7271 O   0  0  0  0  0  0  0  0  0  0  0  0
   19.5207   18.7648   20.1663 C   0  0  0  0  0  0  0  0  0  0  0  0
   20.3145   18.2547   19.6082 H   0  0  0  0  0  0  0  0  0  0  0  0
   18.5786   18.3203   19.8248 H   0  0  0  0  0  0  0  0  0  0  0  0
   19.6969   18.5055   21.6558 C   0  0  0  0  0  0  0  0  0  0  0  0
   19.6917   17.4518   21.9323 H   0  0  0  0  0  0  0  0  0  0  0  0
   19.8523   19.4374   22.6036 C   0  0  0  0  0  0  0  0  0  0  0  0
   19.8620   20.4978   22.3541 H   0  0  0  0  0  0  0  0  0  0  0  0
   20.0225   19.1259   24.0740 C   0  0  0  0  0  0  0  0  0  0  0  0
   19.3461   19.7563   24.6669 H   0  0  0  0  0  0  0  0  0  0  0  0
   19.7445   18.0834   24.2816 H   0  0  0  0  0  0  0  0  0  0  0  0
   21.4762   19.3656   24.5260 C   0  0  0  0  0  0  0  0  0  0  0  0
   21.5936   19.1395   25.5938 H   0  0  0  0  0  0  0  0  0  0  0  0
   22.1696   18.7263   23.9638 H   0  0  0  0  0  0  0  0  0  0  0  0
   21.7688   20.4116   24.3650 H   0  0  0  0  0  0  0  0  0  0  0  0
  1  2  1  0  0  0  0
  1  3  2  0  0  0  0
  1  4  1  0  0  0  0
  4  5  1  0  0  0  0
  4  6  1  0  0  0  0
  4  7  1  0  0  0  0
  7  8  1  0  0  0  0
  7  9  2  0  0  0  0
  9 10  1  0  0  0  0
  9 11  1  0  0  0  0
 11 12  1  0  0  0  0
 11 13  1  0  0  0  0
 11 14  1  0  0  0  0
 14 15  1  0  0  0  0
 14 16  1  0  0  0  0
 14 17  1  0  0  0  0
M  END
> <VConfSearch Rank>
920

> <Conf_Id>
39

> <Delta U+W>
-0.422

> <U+W>
-49.849

> <U>
14.465

> <W>
-64.314

> <W(PB)>
-66.406

> <W(SA)>
2.093

> <Valence>
14.072

> <Coulomb>
-0.199

> <VdW>
0.592

> <VdW6>
-5.019

> <VdW12>
5.611

> <Bond>
0.085

> <Angle>
2.748

> <Pdih>
11.238

> <Idih>
0.001

> <Tether>
0.000

$$$$
VeraChem MOL file


 17 16  0  0  0  0  0  0  0  0999 V2000     
   22.1163   19.8814   24.4758 C   0  0  0  0  0  0  0  0  0  0  0  0
   22.4414   18.9365   25.1676 O   0  5  0  0  0  0  0  0  0  0  0  0
   21.8858   20.9897   24.9175 O   0  0  0  0  0  0  0  0  0  0  0  0
   21.9972   19.6636   22.9732 C   0  0  0  0  0  0  0  0  0  0  0  0
   22.8340   19.0291   22.6593 H   0  0  0  0  0  0  0  0  0  0  0  0
   22.1246   20.6322   22.4749 H   0  0  0  0  0  0  0  0  0  0  0  0
   20.6805   19.0201   22.5821 C   0  0  0  0  0  0  0  0  0  0  0  0
   20.5517   17.9887   22.9088 H   0  0  0  0  0  0  0  0  0  0  0  0
   19.7189   19.6381   21.8894 C   0  0  0  0  0  0  0  0  0  0  0  0
   19.8471   20.6704   21.5655 H   0  0  0  0  0  0  0  0  0  0  0  0
   18.4050   18.9961   21.5036 C   0  0  0  0  0  0  0  0  0  0  0  0
   18.2468   18.0710   22.0750 H   0  0  0  0  0  0  0  0  0  0  0  0
   17.5749   19.6692   21.7574 H   0  0  0  0  0  0  0  0  0  0  0  0
   18.3658   18.6775   19.9963 C   0  0  0  0  0  0  0  0  0  0  0  0
   19.1725   17.9846   19.7231 H   0  0  0  0  0  0  0  0  0  0  0  0
   17.4099   18.2125   19.7222 H   0  0  0  0  0  0  0  0  0  0  0  0
   18.4833   19.5916   19.3995 H   0  0  0  0  0  0  0  0  0  0  0  0
  1  2  1  0  0  0  0
  1  3  2  0  0  0  0
  1  4  1  0  0  0  0
  4  5  1  0  0  0  0
  4  6  1  0  0  0  0
  4  7  1  0  0  0  0
  7  8  1  0  0  0  0
  7  9  2  0  0  0  0
  9 10  1  0  0  0  0
  9 11  1  0  0  0  0
 11 12  1  0  0  0  0
 11 13  1  0  0  0  0
 11 14  1  0  0  0  0
 14 15  1  0  0  0  0
 14 16  1  0  0  0  0
 14 17  1  0  0  0  0
M  END
> <VConfSearch Rank>
921

> <Conf_Id>
38

> <Delta U+W>
0.000

> <U+W>
-49.427

> <U>
13.666

> <W>
-63.093

> <W(PB)>
-65.225

> <W(SA)>
2.132

> <Valence>
15.226

> <Coulomb>
-1.822

> <VdW>
0.261

> <VdW6>
-4.165

> <VdW12>
4.426

> <Bond>
0.044

> <Angle>
2.229

> <Pdih>
12.953

> <Idih>
0.000

> <Tether>
0.000

$$$$
VeraChem MOL file


 17 16  0  0  0  0  0  0  0  0999 V2000     
   22.5304   19.1511   20.0980 C   0  0  0  0  0  0  0  0  0  0  0  0
   23.4769   18.6301   20.6543 O   0  5  0  0  0  0  0  0  0  0  0  0
   22.6358   20.0761   19.3168 O   0  0  0  0  0  0  0  0  0  0  0  0
   21.1356   18.6136   20.3903 C   0  0  0  0  0  0  0  0  0  0  0  0
   21.2327   17.5776   20.7366 H   0  0  0  0  0  0  0  0  0  0  0  0
   20.5827   18.5849   19.4442 H   0  0  0  0  0  0  0  0  0  0  0  0
   20.3884   19.4582   21.4048 C   0  0  0  0  0  0  0  0  0  0  0  0
   20.1126   20.4564   21.0660 H   0  0  0  0  0  0  0  0  0  0  0  0
   20.0731   19.0480   22.6370 C   0  0  0  0  0  0  0  0  0  0  0  0
   20.3520   18.0509   22.9762 H   0  0  0  0  0  0  0  0  0  0  0  0
   19.3315   19.8929   23.6487 C   0  0  0  0  0  0  0  0  0  0  0  0
   19.8547   19.8600   24.6139 H   0  0  0  0  0  0  0  0  0  0  0  0
   19.3170   20.9454   23.3336 H   0  0  0  0  0  0  0  0  0  0  0  0
   17.8844   19.3953   23.8314 C   0  0  0  0  0  0  0  0  0  0  0  0
   17.8693   18.3555   24.1835 H   0  0  0  0  0  0  0  0  0  0  0  0
   17.3516   20.0118   24.5671 H   0  0  0  0  0  0  0  0  0  0  0  0
   17.3329   19.4434   22.8832 H   0  0  0  0  0  0  0  0  0  0  0  0
  1  2  1  0  0  0  0
  1  3  2  0  0  0  0
  1  4  1  0  0  0  0
  4  5  1  0  0  0  0
  4  6  1  0  0  0  0
  4  7  1  0  0  0  0
  7  8  1  0  0  0  0
  7  9  2  0  0  0  0
  9 10  1  0  0  0  0
  9 11  1  0  0  0  0
 11 12  1  0  0  0  0
 11 13  1  0  0  0  0
 11 14  1  0  0  0  0
 14 15  1  0  0  0  0
 14 16  1  0  0  0  0
 14 17  1  0  0  0  0
M  END
> <VConfSearch Rank>
922

> <Conf_Id>
35

> <Delta U+W>
-0.102

> <U+W>
-49.529

> <U>
13.666

> <W>
-63.195

> <W(PB)>
-65.299

> <W(SA)>
2.103

> <Valence>
15.226

> <Coulomb>
-1.822

> <VdW>
0.261

> <VdW6>
-4.165

> <VdW12>
4.426

> <Bond>
0.044

> <Angle>
2.229

> <Pdih>
12.953

> <Idih>
0.000

> <Tether>
0.000

$$$$
VeraChem MOL file


 17 16  0  0  0  0  0  0  0  0999 V2000     
   22.7785   20.5639   22.3715 C   0  0  0  0  0  0  0  0  0  0  0  0
   23.3527   20.2758   23.4031 O   0  5  0  0  0  0  0  0  0  0  0  0
   23.3288   20.6208   21.2895 O   0  0  0  0  0  0  0  0  0  0  0  0
   21.2902   20.8797   22.4422 C   0  0  0  0  0  0  0  0  0  0  0  0
   21.0324   21.5108   21.5832 H   0  0  0  0  0  0  0  0  0  0  0  0
   21.1177   21.4794   23.3434 H   0  0  0  0  0  0  0  0  0  0  0  0
   20.4324   19.6290   22.4771 C   0  0  0  0  0  0  0  0  0  0  0  0
   20.5274   19.0382   23.3866 H   0  0  0  0  0  0  0  0  0  0  0  0
   19.6188   19.2531   21.4824 C   0  0  0  0  0  0  0  0  0  0  0  0
   19.5533   19.8677   20.5852 H   0  0  0  0  0  0  0  0  0  0  0  0
   18.7377   18.0157   21.4492 C   0  0  0  0  0  0  0  0  0  0  0  0
   17.6949   18.3244   21.2951 H   0  0  0  0  0  0  0  0  0  0  0  0
   19.0006   17.4146   20.5682 H   0  0  0  0  0  0  0  0  0  0  0  0
   18.8177   17.1241   22.7080 C   0  0  0  0  0  0  0  0  0  0  0  0
   18.5085   17.6785   23.6038 H   0  0  0  0  0  0  0  0  0  0  0  0
   18.1560   16.2542   22.6062 H   0  0  0  0  0  0  0  0  0  0  0  0
   19.8393   16.7530   22.8635 H   0  0  0  0  0  0  0  0  0  0  0  0
  1  2  1  0  0  0  0
  1  3  2  0  0  0  0
  1  4  1  0  0  0  0
  4  5  1  0  0  0  0
  4  6  1  0  0  0  0
  4  7  1  0  0  0  0
  7  8  1  0  0  0  0
  7  9  2  0  0  0  0
  9 10  1  0  0  0  0
  9 11  1  0  0  0  0
 11 12  1  0  0  0  0
 11 13  1  0  0  0  0
 11 14  1  0  0  0  0
 14 15  1  0  0  0  0
 14 16  1  0  0  0  0
 14 17  1  0  0  0  0
M  END
> <VConfSearch Rank>
923

> <Conf_Id>
19

> <Delta U+W>
-0.496

> <U+W>
-49.923

> <U>
13.863

> <W>
-63.786

> <W(PB)>
-65.856

> <W(SA)>
2.070

> <Valence>
14.117

> <Coulomb>
-1.228

> <VdW>
0.974

> <VdW6>
-4.885

> <VdW12>
5.859

> <Bond>
0.094

> <Angle>
2.818

> <Pdih>
11.205

> <Idih>
0.000

> <Tether>
0.000

$$$$
VeraChem MOL file


 17 16  0  0  0  0  0  0  0  0999 V2000     
   19.6940   20.4399   19.6598 C   0  0  0  0  0  0  0  0  0  0  0  0
   19.9205   19.5634   18.8491 O   0  5  0  0  0  0  0  0  0  0  0  0
   18.7240   21.1702   19.6065 O   0  0  0  0  0  0  0  0  0  0  0  0
   20.6837   20.6431   20.7995 C   0  0  0  0  0  0  0  0  0  0  0  0
   20.8227   21.7221   20.9336 H   0  0  0  0  0  0  0  0  0  0  0  0
   21.6518   20.2306   20.4910 H   0  0  0  0  0  0  0  0  0  0  0  0
   20.2130   20.0134   22.0967 C   0  0  0  0  0  0  0  0  0  0  0  0
   19.3366   20.4778   22.5480 H   0  0  0  0  0  0  0  0  0  0  0  0
   20.7966   18.9594   22.6752 C   0  0  0  0  0  0  0  0  0  0  0  0
   21.6697   18.4922   22.2209 H   0  0  0  0  0  0  0  0  0  0  0  0
   20.3238   18.3312   23.9672 C   0  0  0  0  0  0  0  0  0  0  0  0
   21.1770   18.1879   24.6440 H   0  0  0  0  0  0  0  0  0  0  0  0
   19.6199   18.9980   24.4839 H   0  0  0  0  0  0  0  0  0  0  0  0
   19.6419   16.9741   23.7056 C   0  0  0  0  0  0  0  0  0  0  0  0
   20.3362   16.2733   23.2238 H   0  0  0  0  0  0  0  0  0  0  0  0
   19.3005   16.5230   24.6463 H   0  0  0  0  0  0  0  0  0  0  0  0
   18.7697   17.0964   23.0498 H   0  0  0  0  0  0  0  0  0  0  0  0
  1  2  1  0  0  0  0
  1  3  2  0  0  0  0
  1  4  1  0  0  0  0
  4  5  1  0  0  0  0
  4  6  1  0  0  0  0
  4  7  1  0  0  0  0
  7  8  1  0  0  0  0
  7  9  2  0  0  0  0
  9 10  1  0  0  0  0
  9 11  1  0  0  0  0
 11 12  1  0  0  0  0
 11 13  1  0  0  0  0
 11 14  1  0  0  0  0
 14 15  1  0  0  0  0
 14 16  1  0  0  0  0
 14 17  1  0  0  0  0
M  END
> <VConfSearch Rank>
924

> <Conf_Id>
7

> <Delta U+W>
-0.041

> <U+W>
-49.468

> <U>
14.121

> <W>
-63.589

> <W(PB)>
-65.660

> <W(SA)>
2.071

> <Valence>
15.230

> <Coulomb>
-1.333

> <VdW>
0.224

> <VdW6>
-4.212

> <VdW12>
4.436

> <Bond>
0.044

> <Angle>
2.230

> <Pdih>
12.956

> <Idih>
0.000

> <Tether>
0.000

$$$$
VeraChem MOL file


 17 16  0  0  0  0  0  0  0  0999 V2000     
   22.2093   18.2314   20.7768 C   0  0  0  0  0  0  0  0  0  0  0  0
   23.0758   19.0587   20.9811 O   0  5  0  0  0  0  0  0  0  0  0  0
   21.8527   17.8933   19.6652 O   0  0  0  0  0  0  0  0  0  0  0  0
   21.5533   17.5610   21.9800 C   0  0  0  0  0  0  0  0  0  0  0  0
   22.3017   17.4963   22.7784 H   0  0  0  0  0  0  0  0  0  0  0  0
   21.3193   16.5268   21.7018 H   0  0  0  0  0  0  0  0  0  0  0  0
   20.2999   18.2430   22.5098 C   0  0  0  0  0  0  0  0  0  0  0  0
   19.8478   17.7481   23.3685 H   0  0  0  0  0  0  0  0  0  0  0  0
   19.7428   19.3563   22.0188 C   0  0  0  0  0  0  0  0  0  0  0  0
   20.1753   19.8711   21.1617 H   0  0  0  0  0  0  0  0  0  0  0  0
   18.4926   19.9942   22.5828 C   0  0  0  0  0  0  0  0  0  0  0  0
   17.7930   20.2225   21.7673 H   0  0  0  0  0  0  0  0  0  0  0  0
   17.9749   19.2975   23.2563 H   0  0  0  0  0  0  0  0  0  0  0  0
   18.8288   21.2887   23.3485 C   0  0  0  0  0  0  0  0  0  0  0  0
   17.9181   21.7480   23.7543 H   0  0  0  0  0  0  0  0  0  0  0  0
   19.5081   21.0809   24.1858 H   0  0  0  0  0  0  0  0  0  0  0  0
   19.3140   22.0194   22.6881 H   0  0  0  0  0  0  0  0  0  0  0  0
  1  2  1  0  0  0  0
  1  3  2  0  0  0  0
  1  4  1  0  0  0  0
  4  5  1  0  0  0  0
  4  6  1  0  0  0  0
  4  7  1  0  0  0  0
  7  8  1  0  0  0  0
  7  9  2  0  0  0  0
  9 10  1  0  0  0  0
  9 11  1  0  0  0  0
 11 12  1  0  0  0  0
 11 13  1  0  0  0  0
 11 14  1  0  0  0  0
 14 15  1  0  0  0  0
 14 16  1  0  0  0  0
 14 17  1  0  0  0  0
M  END
> <VConfSearch Rank>
925

> <Conf_Id>
39

> <Delta U+W>
-0.422

> <U+W>
-49.849

> <U>
14.465

> <W>
-64.314

> <W(PB)>
-66.406

> <W(SA)>
2.093

> <Valence>
14.072

> <Coulomb>
-0.199

> <VdW>
0.592

> <VdW6>
-5.019

> <VdW12>
5.611

> <Bond>
0.085

> <Angle>
2.748

> <Pdih>
11.238

> <Idih>
0.001

> <Tether>
0.000

$$$$
VeraChem MOL file


 17 16  0  0  0  0  0  0  0  0999 V2000     
   21.3865   22.1656   22.2542 C   0  0  0  0  0  0  0  0  0  0  0  0
   22.5551   22.2266   22.5822 O   0  5  0  0  0  0  0  0  0  0  0  0
   20.5414   22.9546   22.6284 O   0  0  0  0  0  0  0  0  0  0  0  0
   20.9613   21.0414   21.3188 C   0  0  0  0  0  0  0  0  0  0  0  0
   21.7412   20.9263   20.5572 H   0  0  0  0  0  0  0  0  0  0  0  0
   20.0484   21.3550   20.7982 H   0  0  0  0  0  0  0  0  0  0  0  0
   20.7477   19.7286   22.0479 C   0  0  0  0  0  0  0  0  0  0  0  0
   21.6485   19.2714   22.4562 H   0  0  0  0  0  0  0  0  0  0  0  0
   19.5574   19.1410   22.2038 C   0  0  0  0  0  0  0  0  0  0  0  0
   18.6566   19.6002   21.7978 H   0  0  0  0  0  0  0  0  0  0  0  0
   19.3458   17.8339   22.9345 C   0  0  0  0  0  0  0  0  0  0  0  0
   20.2360   17.5745   23.5239 H   0  0  0  0  0  0  0  0  0  0  0  0
   18.5156   17.9372   23.6462 H   0  0  0  0  0  0  0  0  0  0  0  0
   19.0369   16.6913   21.9474 C   0  0  0  0  0  0  0  0  0  0  0  0
   19.8656   16.5520   21.2407 H   0  0  0  0  0  0  0  0  0  0  0  0
   18.8837   15.7456   22.4834 H   0  0  0  0  0  0  0  0  0  0  0  0
   18.1280   16.9070   21.3705 H   0  0  0  0  0  0  0  0  0  0  0  0
  1  2  1  0  0  0  0
  1  3  2  0  0  0  0
  1  4  1  0  0  0  0
  4  5  1  0  0  0  0
  4  6  1  0  0  0  0
  4  7  1  0  0  0  0
  7  8  1  0  0  0  0
  7  9  2  0  0  0  0
  9 10  1  0  0  0  0
  9 11  1  0  0  0  0
 11 12  1  0  0  0  0
 11 13  1  0  0  0  0
 11 14  1  0  0  0  0
 14 15  1  0  0  0  0
 14 16  1  0  0  0  0
 14 17  1  0  0  0  0
M  END
> <VConfSearch Rank>
926

> <Conf_Id>
38

> <Delta U+W>
0.000

> <U+W>
-49.427

> <U>
13.666

> <W>
-63.093

> <W(PB)>
-65.225

> <W(SA)>
2.132

> <Valence>
15.226

> <Coulomb>
-1.822

> <VdW>
0.261

> <VdW6>
-4.165

> <VdW12>
4.426

> <Bond>
0.044

> <Angle>
2.229

> <Pdih>
12.953

> <Idih>
0.000

> <Tether>
0.000

$$$$
VeraChem MOL file


 17 16  0  0  0  0  0  0  0  0999 V2000     
   19.6399   21.6837   24.1002 C   0  0  0  0  0  0  0  0  0  0  0  0
   18.4728   21.7101   24.4379 O   0  5  0  0  0  0  0  0  0  0  0  0
   20.3047   22.6815   23.9015 O   0  0  0  0  0  0  0  0  0  0  0  0
   20.3093   20.3275   23.9208 C   0  0  0  0  0  0  0  0  0  0  0  0
   19.7598   19.5917   24.5202 H   0  0  0  0  0  0  0  0  0  0  0  0
   21.3192   20.3941   24.3418 H   0  0  0  0  0  0  0  0  0  0  0  0
   20.3784   19.9016   22.4666 C   0  0  0  0  0  0  0  0  0  0  0  0
   21.0410   20.4967   21.8388 H   0  0  0  0  0  0  0  0  0  0  0  0
   19.6911   18.8784   21.9502 C   0  0  0  0  0  0  0  0  0  0  0  0
   19.0264   18.2858   22.5779 H   0  0  0  0  0  0  0  0  0  0  0  0
   19.7583   18.4576   20.4990 C   0  0  0  0  0  0  0  0  0  0  0  0
   18.7419   18.3252   20.1041 H   0  0  0  0  0  0  0  0  0  0  0  0
   20.2323   19.2419   19.8930 H   0  0  0  0  0  0  0  0  0  0  0  0
   20.5467   17.1431   20.3394 C   0  0  0  0  0  0  0  0  0  0  0  0
   20.0724   16.3306   20.9053 H   0  0  0  0  0  0  0  0  0  0  0  0
   20.5914   16.8426   19.2845 H   0  0  0  0  0  0  0  0  0  0  0  0
   21.5757   17.2589   20.7046 H   0  0  0  0  0  0  0  0  0  0  0  0
  1  2  1  0  0  0  0
  1  3  2  0  0  0  0
  1  4  1  0  0  0  0
  4  5  1  0  0  0  0
  4  6  1  0  0  0  0
  4  7  1  0  0  0  0
  7  8  1  0  0  0  0
  7  9  2  0  0  0  0
  9 10  1  0  0  0  0
  9 11  1  0  0  0  0
 11 12  1  0  0  0  0
 11 13  1  0  0  0  0
 11 14  1  0  0  0  0
 14 15  1  0  0  0  0
 14 16  1  0  0  0  0
 14 17  1  0  0  0  0
M  END
> <VConfSearch Rank>
927

> <Conf_Id>
35

> <Delta U+W>
-0.102

> <U+W>
-49.529

> <U>
13.666

> <W>
-63.195

> <W(PB)>
-65.299

> <W(SA)>
2.103

> <Valence>
15.226

> <Coulomb>
-1.822

> <VdW>
0.261

> <VdW6>
-4.165

> <VdW12>
4.426

> <Bond>
0.044

> <Angle>
2.229

> <Pdih>
12.953

> <Idih>
0.000

> <Tether>
0.000

$$$$
VeraChem MOL file


 17 16  0  0  0  0  0  0  0  0999 V2000     
   19.1972   20.8642   20.0731 C   0  0  0  0  0  0  0  0  0  0  0  0
   19.2278   20.2841   19.0056 O   0  5  0  0  0  0  0  0  0  0  0  0
   18.2457   21.5156   20.4569 O   0  0  0  0  0  0  0  0  0  0  0  0
   20.4226   20.7766   20.9733 C   0  0  0  0  0  0  0  0  0  0  0  0
   20.4223   21.6482   21.6388 H   0  0  0  0  0  0  0  0  0  0  0  0
   21.3117   20.8594   20.3374 H   0  0  0  0  0  0  0  0  0  0  0  0
   20.4688   19.4845   21.7668 C   0  0  0  0  0  0  0  0  0  0  0  0
   20.6292   18.5893   21.1684 H   0  0  0  0  0  0  0  0  0  0  0  0
   20.3216   19.4183   23.0959 C   0  0  0  0  0  0  0  0  0  0  0  0
   20.1582   20.3353   23.6612 H   0  0  0  0  0  0  0  0  0  0  0  0
   20.3529   18.1629   23.9512 C   0  0  0  0  0  0  0  0  0  0  0  0
   21.1402   18.2676   24.7099 H   0  0  0  0  0  0  0  0  0  0  0  0
   19.4109   18.0899   24.5115 H   0  0  0  0  0  0  0  0  0  0  0  0
   20.5771   16.8483   23.1717 C   0  0  0  0  0  0  0  0  0  0  0  0
   21.5381   16.8639   22.6411 H   0  0  0  0  0  0  0  0  0  0  0  0
   20.5857   15.9910   23.8573 H   0  0  0  0  0  0  0  0  0  0  0  0
   19.7769   16.6840   22.4382 H   0  0  0  0  0  0  0  0  0  0  0  0
  1  2  1  0  0  0  0
  1  3  2  0  0  0  0
  1  4  1  0  0  0  0
  4  5  1  0  0  0  0
  4  6  1  0  0  0  0
  4  7  1  0  0  0  0
  7  8  1  0  0  0  0
  7  9  2  0  0  0  0
  9 10  1  0  0  0  0
  9 11  1  0  0  0  0
 11 12  1  0  0  0  0
 11 13  1  0  0  0  0
 11 14  1  0  0  0  0
 14 15  1  0  0  0  0
 14 16  1  0  0  0  0
 14 17  1  0  0  0  0
M  END
> <VConfSearch Rank>
928

> <Conf_Id>
19

> <Delta U+W>
-0.496

> <U+W>
-49.923

> <U>
13.863

> <W>
-63.786

> <W(PB)>
-65.856

> <W(SA)>
2.070

> <Valence>
14.117

> <Coulomb>
-1.228

> <VdW>
0.974

> <VdW6>
-4.885

> <VdW12>
5.859

> <Bond>
0.094

> <Angle>
2.818

> <Pdih>
11.205

> <Idih>
0.000

> <Tether>
0.000

$$$$
VeraChem MOL file


 17 16  0  0  0  0  0  0  0  0999 V2000     
   22.3652   19.7439   24.0243 C   0  0  0  0  0  0  0  0  0  0  0  0
   23.0200   20.5184   23.3549 O   0  5  0  0  0  0  0  0  0  0  0  0
   22.0703   19.9432   25.1864 O   0  0  0  0  0  0  0  0  0  0  0  0
   21.8967   18.4471   23.3772 C   0  0  0  0  0  0  0  0  0  0  0  0
   22.0343   17.6405   24.1064 H   0  0  0  0  0  0  0  0  0  0  0  0
   22.5567   18.2290   22.5289 H   0  0  0  0  0  0  0  0  0  0  0  0
   20.4468   18.5089   22.9361 C   0  0  0  0  0  0  0  0  0  0  0  0
   19.7173   18.5690   23.7432 H   0  0  0  0  0  0  0  0  0  0  0  0
   20.0487   18.5008   21.6603 C   0  0  0  0  0  0  0  0  0  0  0  0
   20.7788   18.4458   20.8534 H   0  0  0  0  0  0  0  0  0  0  0  0
   18.6025   18.5654   21.2225 C   0  0  0  0  0  0  0  0  0  0  0  0
   18.4065   17.7866   20.4731 H   0  0  0  0  0  0  0  0  0  0  0  0
   17.9346   18.3619   22.0709 H   0  0  0  0  0  0  0  0  0  0  0  0
   18.2653   19.9468   20.6284 C   0  0  0  0  0  0  0  0  0  0  0  0
   18.8928   20.1603   19.7530 H   0  0  0  0  0  0  0  0  0  0  0  0
   17.2147   19.9883   20.3128 H   0  0  0  0  0  0  0  0  0  0  0  0
   18.4304   20.7403   21.3691 H   0  0  0  0  0  0  0  0  0  0  0  0
  1  2  1  0  0  0  0
  1  3  2  0  0  0  0
  1  4  1  0  0  0  0
  4  5  1  0  0  0  0
  4  6  1  0  0  0  0
  4  7  1  0  0  0  0
  7  8  1  0  0  0  0
  7  9  2  0  0  0  0
  9 10  1  0  0  0  0
  9 11  1  0  0  0  0
 11 12  1  0  0  0  0
 11 13  1  0  0  0  0
 11 14  1  0  0  0  0
 14 15  1  0  0  0  0
 14 16  1  0  0  0  0
 14 17  1  0  0  0  0
M  END
> <VConfSearch Rank>
929

> <Conf_Id>
7

> <Delta U+W>
-0.041

> <U+W>
-49.468

> <U>
14.121

> <W>
-63.589

> <W(PB)>
-65.660

> <W(SA)>
2.071

> <Valence>
15.230

> <Coulomb>
-1.333

> <VdW>
0.224

> <VdW6>
-4.212

> <VdW12>
4.436

> <Bond>
0.044

> <Angle>
2.230

> <Pdih>
12.956

> <Idih>
0.000

> <Tether>
0.000

$$$$
VeraChem MOL file


 17 16  0  0  0  0  0  0  0  0999 V2000     
   20.2168   21.3869   20.4914 C   0  0  0  0  0  0  0  0  0  0  0  0
   21.4085   21.6247   20.4747 O   0  5  0  0  0  0  0  0  0  0  0  0
   19.3687   22.2232   20.7327 O   0  0  0  0  0  0  0  0  0  0  0  0
   19.7591   19.9687   20.1646 C   0  0  0  0  0  0  0  0  0  0  0  0
   20.4703   19.5427   19.4472 H   0  0  0  0  0  0  0  0  0  0  0  0
   18.8020   20.0385   19.6348 H   0  0  0  0  0  0  0  0  0  0  0  0
   19.6154   19.0334   21.3569 C   0  0  0  0  0  0  0  0  0  0  0  0
   19.2877   18.0265   21.1013 H   0  0  0  0  0  0  0  0  0  0  0  0
   19.8544   19.3469   22.6358 C   0  0  0  0  0  0  0  0  0  0  0  0
   20.1838   20.3460   22.9183 H   0  0  0  0  0  0  0  0  0  0  0  0
   19.6943   18.3782   23.7865 C   0  0  0  0  0  0  0  0  0  0  0  0
   19.1208   18.8534   24.5937 H   0  0  0  0  0  0  0  0  0  0  0  0
   19.1214   17.4957   23.4702 H   0  0  0  0  0  0  0  0  0  0  0  0
   21.0660   17.9288   24.3266 C   0  0  0  0  0  0  0  0  0  0  0  0
   20.9439   17.2273   25.1621 H   0  0  0  0  0  0  0  0  0  0  0  0
   21.6483   17.4272   23.5426 H   0  0  0  0  0  0  0  0  0  0  0  0
   21.6461   18.7890   24.6858 H   0  0  0  0  0  0  0  0  0  0  0  0
  1  2  1  0  0  0  0
  1  3  2  0  0  0  0
  1  4  1  0  0  0  0
  4  5  1  0  0  0  0
  4  6  1  0  0  0  0
  4  7  1  0  0  0  0
  7  8  1  0  0  0  0
  7  9  2  0  0  0  0
  9 10  1  0  0  0  0
  9 11  1  0  0  0  0
 11 12  1  0  0  0  0
 11 13  1  0  0  0  0
 11 14  1  0  0  0  0
 14 15  1  0  0  0  0
 14 16  1  0  0  0  0
 14 17  1  0  0  0  0
M  END
> <VConfSearch Rank>
930

> <Conf_Id>
39

> <Delta U+W>
-0.422

> <U+W>
-49.849

> <U>
14.465

> <W>
-64.314

> <W(PB)>
-66.406

> <W(SA)>
2.093

> <Valence>
14.072

> <Coulomb>
-0.199

> <VdW>
0.592

> <VdW6>
-5.019

> <VdW12>
5.611

> <Bond>
0.085

> <Angle>
2.748

> <Pdih>
11.238

> <Idih>
0.001

> <Tether>
0.000

$$$$
VeraChem MOL file


 17 16  0  0  0  0  0  0  0  0999 V2000     
   17.8041   21.4273   22.3612 C   0  0  0  0  0  0  0  0  0  0  0  0
   18.0528   22.4120   23.0286 O   0  5  0  0  0  0  0  0  0  0  0  0
   16.7297   20.8597   22.3755 O   0  0  0  0  0  0  0  0  0  0  0  0
   18.8982   20.8797   21.4542 C   0  0  0  0  0  0  0  0  0  0  0  0
   19.4047   21.7325   20.9877 H   0  0  0  0  0  0  0  0  0  0  0  0
   18.4218   20.3092   20.6478 H   0  0  0  0  0  0  0  0  0  0  0  0
   19.9016   20.0252   22.2051 C   0  0  0  0  0  0  0  0  0  0  0  0
   20.5297   20.5617   22.9157 H   0  0  0  0  0  0  0  0  0  0  0  0
   20.0373   18.7060   22.0399 C   0  0  0  0  0  0  0  0  0  0  0  0
   19.4069   18.1696   21.3314 H   0  0  0  0  0  0  0  0  0  0  0  0
   21.0358   17.8550   22.7923 C   0  0  0  0  0  0  0  0  0  0  0  0
   21.4410   18.4070   23.6516 H   0  0  0  0  0  0  0  0  0  0  0  0
   20.5342   16.9656   23.1972 H   0  0  0  0  0  0  0  0  0  0  0  0
   22.1942   17.4183   21.8744 C   0  0  0  0  0  0  0  0  0  0  0  0
   22.7276   18.2920   21.4773 H   0  0  0  0  0  0  0  0  0  0  0  0
   22.9151   16.8006   22.4258 H   0  0  0  0  0  0  0  0  0  0  0  0
   21.8210   16.8304   21.0255 H   0  0  0  0  0  0  0  0  0  0  0  0
  1  2  1  0  0  0  0
  1  3  2  0  0  0  0
  1  4  1  0  0  0  0
  4  5  1  0  0  0  0
  4  6  1  0  0  0  0
  4  7  1  0  0  0  0
  7  8  1  0  0  0  0
  7  9  2  0  0  0  0
  9 10  1  0  0  0  0
  9 11  1  0  0  0  0
 11 12  1  0  0  0  0
 11 13  1  0  0  0  0
 11 14  1  0  0  0  0
 14 15  1  0  0  0  0
 14 16  1  0  0  0  0
 14 17  1  0  0  0  0
M  END
> <VConfSearch Rank>
931

> <Conf_Id>
38

> <Delta U+W>
0.000

> <U+W>
-49.427

> <U>
13.666

> <W>
-63.093

> <W(PB)>
-65.225

> <W(SA)>
2.132

> <Valence>
15.226

> <Coulomb>
-1.822

> <VdW>
0.261

> <VdW6>
-4.165

> <VdW12>
4.426

> <Bond>
0.044

> <Angle>
2.229

> <Pdih>
12.953

> <Idih>
0.000

> <Tether>
0.000

$$$$
VeraChem MOL file


 17 16  0  0  0  0  0  0  0  0999 V2000     
   17.2772   17.8092   22.1129 C   0  0  0  0  0  0  0  0  0  0  0  0
   16.5481   18.3549   22.9176 O   0  5  0  0  0  0  0  0  0  0  0  0
   17.2883   16.6090   21.9221 O   0  0  0  0  0  0  0  0  0  0  0  0
   18.2255   18.6751   21.2942 C   0  0  0  0  0  0  0  0  0  0  0  0
   17.8171   19.6923   21.2587 H   0  0  0  0  0  0  0  0  0  0  0  0
   18.2248   18.2934   20.2666 H   0  0  0  0  0  0  0  0  0  0  0  0
   19.6373   18.6751   21.8488 C   0  0  0  0  0  0  0  0  0  0  0  0
   20.1687   17.7273   21.7681 H   0  0  0  0  0  0  0  0  0  0  0  0
   20.2249   19.7377   22.4071 C   0  0  0  0  0  0  0  0  0  0  0  0
   19.6919   20.6843   22.4903 H   0  0  0  0  0  0  0  0  0  0  0  0
   21.6314   19.7348   22.9632 C   0  0  0  0  0  0  0  0  0  0  0  0
   21.6345   20.1831   23.9660 H   0  0  0  0  0  0  0  0  0  0  0  0
   21.9976   18.7051   23.0770 H   0  0  0  0  0  0  0  0  0  0  0  0
   22.5909   20.5190   22.0469 C   0  0  0  0  0  0  0  0  0  0  0  0
   22.2696   21.5640   21.9460 H   0  0  0  0  0  0  0  0  0  0  0  0
   23.6096   20.5139   22.4560 H   0  0  0  0  0  0  0  0  0  0  0  0
   22.6241   20.0729   21.0442 H   0  0  0  0  0  0  0  0  0  0  0  0
  1  2  1  0  0  0  0
  1  3  2  0  0  0  0
  1  4  1  0  0  0  0
  4  5  1  0  0  0  0
  4  6  1  0  0  0  0
  4  7  1  0  0  0  0
  7  8  1  0  0  0  0
  7  9  2  0  0  0  0
  9 10  1  0  0  0  0
  9 11  1  0  0  0  0
 11 12  1  0  0  0  0
 11 13  1  0  0  0  0
 11 14  1  0  0  0  0
 14 15  1  0  0  0  0
 14 16  1  0  0  0  0
 14 17  1  0  0  0  0
M  END
> <VConfSearch Rank>
932

> <Conf_Id>
35

> <Delta U+W>
-0.102

> <U+W>
-49.529

> <U>
13.666

> <W>
-63.195

> <W(PB)>
-65.299

> <W(SA)>
2.103

> <Valence>
15.226

> <Coulomb>
-1.822

> <VdW>
0.261

> <VdW6>
-4.165

> <VdW12>
4.426

> <Bond>
0.044

> <Angle>
2.229

> <Pdih>
12.953

> <Idih>
0.000

> <Tether>
0.000

$$$$
VeraChem MOL file


 17 16  0  0  0  0  0  0  0  0999 V2000     
   17.2795   19.0889   22.4108 C   0  0  0  0  0  0  0  0  0  0  0  0
   16.7876   19.2748   21.3152 O   0  5  0  0  0  0  0  0  0  0  0  0
   16.8925   18.2360   23.1852 O   0  0  0  0  0  0  0  0  0  0  0  0
   18.4376   19.9808   22.8385 C   0  0  0  0  0  0  0  0  0  0  0  0
   18.4737   19.9940   23.9345 H   0  0  0  0  0  0  0  0  0  0  0  0
   18.2111   21.0027   22.5131 H   0  0  0  0  0  0  0  0  0  0  0  0
   19.7634   19.5304   22.2546 C   0  0  0  0  0  0  0  0  0  0  0  0
   19.8466   19.6445   21.1752 H   0  0  0  0  0  0  0  0  0  0  0  0
   20.7668   19.0242   22.9824 C   0  0  0  0  0  0  0  0  0  0  0  0
   20.6453   18.9209   24.0602 H   0  0  0  0  0  0  0  0  0  0  0  0
   22.1148   18.5515   22.4646 C   0  0  0  0  0  0  0  0  0  0  0  0
   22.9096   19.1117   22.9756 H   0  0  0  0  0  0  0  0  0  0  0  0
   22.2600   17.5021   22.7550 H   0  0  0  0  0  0  0  0  0  0  0  0
   22.3092   18.6819   20.9378 C   0  0  0  0  0  0  0  0  0  0  0  0
   22.2245   19.7287   20.6178 H   0  0  0  0  0  0  0  0  0  0  0  0
   23.3031   18.3201   20.6440 H   0  0  0  0  0  0  0  0  0  0  0  0
   21.5616   18.0898   20.3936 H   0  0  0  0  0  0  0  0  0  0  0  0
  1  2  1  0  0  0  0
  1  3  2  0  0  0  0
  1  4  1  0  0  0  0
  4  5  1  0  0  0  0
  4  6  1  0  0  0  0
  4  7  1  0  0  0  0
  7  8  1  0  0  0  0
  7  9  2  0  0  0  0
  9 10  1  0  0  0  0
  9 11  1  0  0  0  0
 11 12  1  0  0  0  0
 11 13  1  0  0  0  0
 11 14  1  0  0  0  0
 14 15  1  0  0  0  0
 14 16  1  0  0  0  0
 14 17  1  0  0  0  0
M  END
> <VConfSearch Rank>
933

> <Conf_Id>
19

> <Delta U+W>
-0.496

> <U+W>
-49.923

> <U>
13.863

> <W>
-63.786

> <W(PB)>
-65.856

> <W(SA)>
2.070

> <Valence>
14.117

> <Coulomb>
-1.228

> <VdW>
0.974

> <VdW6>
-4.885

> <VdW12>
5.859

> <Bond>
0.094

> <Angle>
2.818

> <Pdih>
11.205

> <Idih>
0.000

> <Tether>
0.000

$$$$
VeraChem MOL file


 17 16  0  0  0  0  0  0  0  0999 V2000     
   17.2690   19.4984   21.9172 C   0  0  0  0  0  0  0  0  0  0  0  0
   17.0726   20.4412   22.6584 O   0  5  0  0  0  0  0  0  0  0  0  0
   16.8226   19.4261   20.7891 O   0  0  0  0  0  0  0  0  0  0  0  0
   18.1114   18.3383   22.4315 C   0  0  0  0  0  0  0  0  0  0  0  0
   17.6314   17.4073   22.1084 H   0  0  0  0  0  0  0  0  0  0  0  0
   18.0808   18.3515   23.5277 H   0  0  0  0  0  0  0  0  0  0  0  0
   19.5408   18.3899   21.9269 C   0  0  0  0  0  0  0  0  0  0  0  0
   19.6623   18.2265   20.8565 H   0  0  0  0  0  0  0  0  0  0  0  0
   20.6035   18.6240   22.7029 C   0  0  0  0  0  0  0  0  0  0  0  0
   20.4810   18.7925   23.7723 H   0  0  0  0  0  0  0  0  0  0  0  0
   22.0278   18.6779   22.1972 C   0  0  0  0  0  0  0  0  0  0  0  0
   22.6731   18.0635   22.8396 H   0  0  0  0  0  0  0  0  0  0  0  0
   22.0930   18.2531   21.1860 H   0  0  0  0  0  0  0  0  0  0  0  0
   22.5531   20.1266   22.1763 C   0  0  0  0  0  0  0  0  0  0  0  0
   22.5356   20.5641   23.1831 H   0  0  0  0  0  0  0  0  0  0  0  0
   23.5867   20.1599   21.8081 H   0  0  0  0  0  0  0  0  0  0  0  0
   21.9369   20.7550   21.5198 H   0  0  0  0  0  0  0  0  0  0  0  0
  1  2  1  0  0  0  0
  1  3  2  0  0  0  0
  1  4  1  0  0  0  0
  4  5  1  0  0  0  0
  4  6  1  0  0  0  0
  4  7  1  0  0  0  0
  7  8  1  0  0  0  0
  7  9  2  0  0  0  0
  9 10  1  0  0  0  0
  9 11  1  0  0  0  0
 11 12  1  0  0  0  0
 11 13  1  0  0  0  0
 11 14  1  0  0  0  0
 14 15  1  0  0  0  0
 14 16  1  0  0  0  0
 14 17  1  0  0  0  0
M  END
> <VConfSearch Rank>
934

> <Conf_Id>
7

> <Delta U+W>
-0.041

> <U+W>
-49.468

> <U>
14.121

> <W>
-63.589

> <W(PB)>
-65.660

> <W(SA)>
2.071

> <Valence>
15.230

> <Coulomb>
-1.333

> <VdW>
0.224

> <VdW6>
-4.212

> <VdW12>
4.436

> <Bond>
0.044

> <Angle>
2.230

> <Pdih>
12.956

> <Idih>
0.000

> <Tether>
0.000

$$$$
VeraChem MOL file


 17 16  0  0  0  0  0  0  0  0999 V2000     
   19.0361   21.7839   21.9131 C   0  0  0  0  0  0  0  0  0  0  0  0
   19.6980   22.1943   20.9801 O   0  5  0  0  0  0  0  0  0  0  0  0
   18.9134   22.3824   22.9637 O   0  0  0  0  0  0  0  0  0  0  0  0
   18.2969   20.4597   21.7465 C   0  0  0  0  0  0  0  0  0  0  0  0
   18.0158   20.3619   20.6914 H   0  0  0  0  0  0  0  0  0  0  0  0
   17.3557   20.5282   22.3042 H   0  0  0  0  0  0  0  0  0  0  0  0
   19.0622   19.2201   22.1875 C   0  0  0  0  0  0  0  0  0  0  0  0
   18.5165   18.2860   22.0601 H   0  0  0  0  0  0  0  0  0  0  0  0
   20.3006   19.1989   22.6944 C   0  0  0  0  0  0  0  0  0  0  0  0
   20.8684   20.1185   22.8313 H   0  0  0  0  0  0  0  0  0  0  0  0
   21.0173   17.9366   23.1196 C   0  0  0  0  0  0  0  0  0  0  0  0
   21.4545   18.0770   24.1174 H   0  0  0  0  0  0  0  0  0  0  0  0
   20.3093   17.1004   23.2006 H   0  0  0  0  0  0  0  0  0  0  0  0
   22.1296   17.5678   22.1187 C   0  0  0  0  0  0  0  0  0  0  0  0
   22.6472   16.6521   22.4328 H   0  0  0  0  0  0  0  0  0  0  0  0
   21.7122   17.3972   21.1176 H   0  0  0  0  0  0  0  0  0  0  0  0
   22.8736   18.3720   22.0463 H   0  0  0  0  0  0  0  0  0  0  0  0
  1  2  1  0  0  0  0
  1  3  2  0  0  0  0
  1  4  1  0  0  0  0
  4  5  1  0  0  0  0
  4  6  1  0  0  0  0
  4  7  1  0  0  0  0
  7  8  1  0  0  0  0
  7  9  2  0  0  0  0
  9 10  1  0  0  0  0
  9 11  1  0  0  0  0
 11 12  1  0  0  0  0
 11 13  1  0  0  0  0
 11 14  1  0  0  0  0
 14 15  1  0  0  0  0
 14 16  1  0  0  0  0
 14 17  1  0  0  0  0
M  END
> <VConfSearch Rank>
935

> <Conf_Id>
39

> <Delta U+W>
-0.422

> <U+W>
-49.849

> <U>
14.465

> <W>
-64.314

> <W(PB)>
-66.406

> <W(SA)>
2.093

> <Valence>
14.072

> <Coulomb>
-0.199

> <VdW>
0.592

> <VdW6>
-5.019

> <VdW12>
5.611

> <Bond>
0.085

> <Angle>
2.748

> <Pdih>
11.238

> <Idih>
0.001

> <Tether>
0.000

$$$$
VeraChem MOL file


 17 16  0  0  0  0  0  0  0  0999 V2000     
   22.5832   21.0348   22.9967 C   0  0  0  0  0  0  0  0  0  0  0  0
   22.3991   21.8007   23.9222 O   0  5  0  0  0  0  0  0  0  0  0  0
   23.2475   21.3115   22.0174 O   0  0  0  0  0  0  0  0  0  0  0  0
   21.9506   19.6514   23.0729 C   0  0  0  0  0  0  0  0  0  0  0  0
   22.0601   19.2892   24.1016 H   0  0  0  0  0  0  0  0  0  0  0  0
   22.5275   18.9745   22.4314 H   0  0  0  0  0  0  0  0  0  0  0  0
   20.4864   19.6597   22.6768 C   0  0  0  0  0  0  0  0  0  0  0  0
   19.8218   20.1830   23.3636 H   0  0  0  0  0  0  0  0  0  0  0  0
   20.0037   19.0817   21.5727 C   0  0  0  0  0  0  0  0  0  0  0  0
   20.6693   18.5612   20.8848 H   0  0  0  0  0  0  0  0  0  0  0  0
   18.5440   19.0942   21.1774 C   0  0  0  0  0  0  0  0  0  0  0  0
   17.9926   19.8402   21.7663 H   0  0  0  0  0  0  0  0  0  0  0  0
   18.4477   19.3903   20.1240 H   0  0  0  0  0  0  0  0  0  0  0  0
   17.9029   17.7078   21.3819 C   0  0  0  0  0  0  0  0  0  0  0  0
   17.9644   17.4013   22.4345 H   0  0  0  0  0  0  0  0  0  0  0  0
   16.8440   17.7229   21.0929 H   0  0  0  0  0  0  0  0  0  0  0  0
   18.4111   16.9477   20.7741 H   0  0  0  0  0  0  0  0  0  0  0  0
  1  2  1  0  0  0  0
  1  3  2  0  0  0  0
  1  4  1  0  0  0  0
  4  5  1  0  0  0  0
  4  6  1  0  0  0  0
  4  7  1  0  0  0  0
  7  8  1  0  0  0  0
  7  9  2  0  0  0  0
  9 10  1  0  0  0  0
  9 11  1  0  0  0  0
 11 12  1  0  0  0  0
 11 13  1  0  0  0  0
 11 14  1  0  0  0  0
 14 15  1  0  0  0  0
 14 16  1  0  0  0  0
 14 17  1  0  0  0  0
M  END
> <VConfSearch Rank>
936

> <Conf_Id>
38

> <Delta U+W>
0.000

> <U+W>
-49.427

> <U>
13.666

> <W>
-63.093

> <W(PB)>
-65.225

> <W(SA)>
2.132

> <Valence>
15.226

> <Coulomb>
-1.822

> <VdW>
0.261

> <VdW6>
-4.165

> <VdW12>
4.426

> <Bond>
0.044

> <Angle>
2.229

> <Pdih>
12.953

> <Idih>
0.000

> <Tether>
0.000

$$$$
VeraChem MOL file


 17 16  0  0  0  0  0  0  0  0999 V2000     
   21.3072   21.3397   20.0478 C   0  0  0  0  0  0  0  0  0  0  0  0
   21.9076   20.7337   19.1823 O   0  5  0  0  0  0  0  0  0  0  0  0
   21.6782   22.4032   20.5042 O   0  0  0  0  0  0  0  0  0  0  0  0
   20.0162   20.7381   20.5875 C   0  0  0  0  0  0  0  0  0  0  0  0
   19.6094   20.0605   19.8272 H   0  0  0  0  0  0  0  0  0  0  0  0
   19.2931   21.5526   20.7110 H   0  0  0  0  0  0  0  0  0  0  0  0
   20.2184   20.0168   21.9064 C   0  0  0  0  0  0  0  0  0  0  0  0
   20.4685   20.6561   22.7525 H   0  0  0  0  0  0  0  0  0  0  0  0
   20.1101   18.6940   22.0633 C   0  0  0  0  0  0  0  0  0  0  0  0
   19.8631   18.0550   21.2162 H   0  0  0  0  0  0  0  0  0  0  0  0
   20.3159   17.9760   23.3784 C   0  0  0  0  0  0  0  0  0  0  0  0
   20.9871   17.1190   23.2318 H   0  0  0  0  0  0  0  0  0  0  0  0
   20.8051   18.6387   24.1057 H   0  0  0  0  0  0  0  0  0  0  0  0
   18.9747   17.4851   23.9573 C   0  0  0  0  0  0  0  0  0  0  0  0
   18.4809   16.7894   23.2661 H   0  0  0  0  0  0  0  0  0  0  0  0
   19.1305   16.9644   24.9111 H   0  0  0  0  0  0  0  0  0  0  0  0
   18.2954   18.3288   24.1368 H   0  0  0  0  0  0  0  0  0  0  0  0
  1  2  1  0  0  0  0
  1  3  2  0  0  0  0
  1  4  1  0  0  0  0
  4  5  1  0  0  0  0
  4  6  1  0  0  0  0
  4  7  1  0  0  0  0
  7  8  1  0  0  0  0
  7  9  2  0  0  0  0
  9 10  1  0  0  0  0
  9 11  1  0  0  0  0
 11 12  1  0  0  0  0
 11 13  1  0  0  0  0
 11 14  1  0  0  0  0
 14 15  1  0  0  0  0
 14 16  1  0  0  0  0
 14 17  1  0  0  0  0
M  END
> <VConfSearch Rank>
937

> <Conf_Id>
35

> <Delta U+W>
-0.102

> <U+W>
-49.529

> <U>
13.666

> <W>
-63.195

> <W(PB)>
-65.299

> <W(SA)>
2.103

> <Valence>
15.226

> <Coulomb>
-1.822

> <VdW>
0.261

> <VdW6>
-4.165

> <VdW12>
4.426

> <Bond>
0.044

> <Angle>
2.229

> <Pdih>
12.953

> <Idih>
0.000

> <Tether>
0.000

$$$$
VeraChem MOL file


 17 16  0  0  0  0  0  0  0  0999 V2000     
   18.7861   17.5510   20.1429 C   0  0  0  0  0  0  0  0  0  0  0  0
   18.3462   16.5270   20.6275 O   0  5  0  0  0  0  0  0  0  0  0  0
   18.1443   18.2773   19.4099 O   0  0  0  0  0  0  0  0  0  0  0  0
   20.2233   17.9383   20.4656 C   0  0  0  0  0  0  0  0  0  0  0  0
   20.5923   18.5871   19.6621 H   0  0  0  0  0  0  0  0  0  0  0  0
   20.8291   17.0250   20.4434 H   0  0  0  0  0  0  0  0  0  0  0  0
   20.3525   18.6160   21.8166 C   0  0  0  0  0  0  0  0  0  0  0  0
   20.1516   17.9704   22.6698 H   0  0  0  0  0  0  0  0  0  0  0  0
   20.6802   19.9042   21.9780 C   0  0  0  0  0  0  0  0  0  0  0  0
   20.8700   20.5207   21.0999 H   0  0  0  0  0  0  0  0  0  0  0  0
   20.8232   20.6460   23.2962 C   0  0  0  0  0  0  0  0  0  0  0  0
   21.8353   21.0681   23.3600 H   0  0  0  0  0  0  0  0  0  0  0  0
   20.1433   21.5086   23.2953 H   0  0  0  0  0  0  0  0  0  0  0  0
   20.5530   19.7944   24.5563 C   0  0  0  0  0  0  0  0  0  0  0  0
   21.2525   18.9505   24.6190 H   0  0  0  0  0  0  0  0  0  0  0  0
   20.6751   20.4002   25.4636 H   0  0  0  0  0  0  0  0  0  0  0  0
   19.5290   19.3984   24.5519 H   0  0  0  0  0  0  0  0  0  0  0  0
  1  2  1  0  0  0  0
  1  3  2  0  0  0  0
  1  4  1  0  0  0  0
  4  5  1  0  0  0  0
  4  6  1  0  0  0  0
  4  7  1  0  0  0  0
  7  8  1  0  0  0  0
  7  9  2  0  0  0  0
  9 10  1  0  0  0  0
  9 11  1  0  0  0  0
 11 12  1  0  0  0  0
 11 13  1  0  0  0  0
 11 14  1  0  0  0  0
 14 15  1  0  0  0  0
 14 16  1  0  0  0  0
 14 17  1  0  0  0  0
M  END
> <VConfSearch Rank>
938

> <Conf_Id>
19

> <Delta U+W>
-0.496

> <U+W>
-49.923

> <U>
13.863

> <W>
-63.786

> <W(PB)>
-65.856

> <W(SA)>
2.070

> <Valence>
14.117

> <Coulomb>
-1.228

> <VdW>
0.974

> <VdW6>
-4.885

> <VdW12>
5.859

> <Bond>
0.094

> <Angle>
2.818

> <Pdih>
11.205

> <Idih>
0.000

> <Tether>
0.000

$$$$
VeraChem MOL file


 17 16  0  0  0  0  0  0  0  0999 V2000     
   18.4241   19.6089   24.5179 C   0  0  0  0  0  0  0  0  0  0  0  0
   18.1301   20.7760   24.3501 O   0  5  0  0  0  0  0  0  0  0  0  0
   17.6167   18.7468   24.8041 O   0  0  0  0  0  0  0  0  0  0  0  0
   19.8852   19.2039   24.3727 C   0  0  0  0  0  0  0  0  0  0  0  0
   20.1202   18.5030   25.1821 H   0  0  0  0  0  0  0  0  0  0  0  0
   20.5054   20.0947   24.5294 H   0  0  0  0  0  0  0  0  0  0  0  0
   20.1803   18.5656   23.0288 C   0  0  0  0  0  0  0  0  0  0  0  0
   19.7174   17.5930   22.8642 H   0  0  0  0  0  0  0  0  0  0  0  0
   20.9410   19.1243   22.0826 C   0  0  0  0  0  0  0  0  0  0  0  0
   21.3995   20.0992   22.2456 H   0  0  0  0  0  0  0  0  0  0  0  0
   21.2316   18.4874   20.7419 C   0  0  0  0  0  0  0  0  0  0  0  0
   22.3095   18.5324   20.5356 H   0  0  0  0  0  0  0  0  0  0  0  0
   20.9570   17.4236   20.7542 H   0  0  0  0  0  0  0  0  0  0  0  0
   20.4620   19.1996   19.6126 C   0  0  0  0  0  0  0  0  0  0  0  0
   20.7464   20.2583   19.5520 H   0  0  0  0  0  0  0  0  0  0  0  0
   20.6761   18.7332   18.6422 H   0  0  0  0  0  0  0  0  0  0  0  0
   19.3790   19.1459   19.7851 H   0  0  0  0  0  0  0  0  0  0  0  0
  1  2  1  0  0  0  0
  1  3  2  0  0  0  0
  1  4  1  0  0  0  0
  4  5  1  0  0  0  0
  4  6  1  0  0  0  0
  4  7  1  0  0  0  0
  7  8  1  0  0  0  0
  7  9  2  0  0  0  0
  9 10  1  0  0  0  0
  9 11  1  0  0  0  0
 11 12  1  0  0  0  0
 11 13  1  0  0  0  0
 11 14  1  0  0  0  0
 14 15  1  0  0  0  0
 14 16  1  0  0  0  0
 14 17  1  0  0  0  0
M  END
> <VConfSearch Rank>
939

> <Conf_Id>
7

> <Delta U+W>
-0.041

> <U+W>
-49.468

> <U>
14.121

> <W>
-63.589

> <W(PB)>
-65.660

> <W(SA)>
2.071

> <Valence>
15.230

> <Coulomb>
-1.333

> <VdW>
0.224

> <VdW6>
-4.212

> <VdW12>
4.436

> <Bond>
0.044

> <Angle>
2.230

> <Pdih>
12.956

> <Idih>
0.000

> <Tether>
0.000

$$$$
VeraChem MOL file


 17 16  0  0  0  0  0  0  0  0999 V2000     
   21.0339   18.3259   24.6978 C   0  0  0  0  0  0  0  0  0  0  0  0
   22.0767   18.9398   24.8108 O   0  5  0  0  0  0  0  0  0  0  0  0
   20.9555   17.1156   24.7764 O   0  0  0  0  0  0  0  0  0  0  0  0
   19.7501   19.1189   24.4731 C   0  0  0  0  0  0  0  0  0  0  0  0
   19.8548   20.0813   24.9876 H   0  0  0  0  0  0  0  0  0  0  0  0
   18.9359   18.5913   24.9835 H   0  0  0  0  0  0  0  0  0  0  0  0
   19.3709   19.3569   23.0183 C   0  0  0  0  0  0  0  0  0  0  0  0
   18.4515   19.9246   22.8806 H   0  0  0  0  0  0  0  0  0  0  0  0
   20.0570   18.9389   21.9480 C   0  0  0  0  0  0  0  0  0  0  0  0
   20.9798   18.3704   22.0579 H   0  0  0  0  0  0  0  0  0  0  0  0
   19.6350   19.2014   20.5194 C   0  0  0  0  0  0  0  0  0  0  0  0
   19.6865   18.2692   19.9407 H   0  0  0  0  0  0  0  0  0  0  0  0
   18.5898   19.5380   20.4822 H   0  0  0  0  0  0  0  0  0  0  0  0
   20.5368   20.2644   19.8622 C   0  0  0  0  0  0  0  0  0  0  0  0
   20.2270   20.4498   18.8255 H   0  0  0  0  0  0  0  0  0  0  0  0
   20.4817   21.2146   20.4096 H   0  0  0  0  0  0  0  0  0  0  0  0
   21.5845   19.9364   19.8514 H   0  0  0  0  0  0  0  0  0  0  0  0
  1  2  1  0  0  0  0
  1  3  2  0  0  0  0
  1  4  1  0  0  0  0
  4  5  1  0  0  0  0
  4  6  1  0  0  0  0
  4  7  1  0  0  0  0
  7  8  1  0  0  0  0
  7  9  2  0  0  0  0
  9 10  1  0  0  0  0
  9 11  1  0  0  0  0
 11 12  1  0  0  0  0
 11 13  1  0  0  0  0
 11 14  1  0  0  0  0
 14 15  1  0  0  0  0
 14 16  1  0  0  0  0
 14 17  1  0  0  0  0
M  END
> <VConfSearch Rank>
940

> <Conf_Id>
39

> <Delta U+W>
-0.422

> <U+W>
-49.849

> <U>
14.465

> <W>
-64.314

> <W(PB)>
-66.406

> <W(SA)>
2.093

> <Valence>
14.072

> <Coulomb>
-0.199

> <VdW>
0.592

> <VdW6>
-5.019

> <VdW12>
5.611

> <Bond>
0.085

> <Angle>
2.748

> <Pdih>
11.238

> <Idih>
0.001

> <Tether>
0.000

$$$$
VeraChem MOL file


 17 16  0  0  0  0  0  0  0  0999 V2000     
   19.6254   21.0420   19.5255 C   0  0  0  0  0  0  0  0  0  0  0  0
   20.4567   21.8965   19.2893 O   0  5  0  0  0  0  0  0  0  0  0  0
   18.4308   21.2069   19.3749 O   0  0  0  0  0  0  0  0  0  0  0  0
   20.1095   19.6900   20.0326 C   0  0  0  0  0  0  0  0  0  0  0  0
   21.0103   19.4234   19.4677 H   0  0  0  0  0  0  0  0  0  0  0  0
   19.3464   18.9400   19.7921 H   0  0  0  0  0  0  0  0  0  0  0  0
   20.4113   19.7013   21.5191 C   0  0  0  0  0  0  0  0  0  0  0  0
   21.2687   20.3050   21.8150 H   0  0  0  0  0  0  0  0  0  0  0  0
   19.7012   19.0354   22.4347 C   0  0  0  0  0  0  0  0  0  0  0  0
   18.8421   18.4342   22.1385 H   0  0  0  0  0  0  0  0  0  0  0  0
   20.0013   19.0508   23.9170 C   0  0  0  0  0  0  0  0  0  0  0  0
   20.6995   19.8638   24.1593 H   0  0  0  0  0  0  0  0  0  0  0  0
   19.0791   19.2490   24.4799 H   0  0  0  0  0  0  0  0  0  0  0  0
   20.6037   17.7080   24.3741 C   0  0  0  0  0  0  0  0  0  0  0  0
   21.5417   17.5004   23.8425 H   0  0  0  0  0  0  0  0  0  0  0  0
   20.8187   17.7250   25.4505 H   0  0  0  0  0  0  0  0  0  0  0  0
   19.9093   16.8803   24.1785 H   0  0  0  0  0  0  0  0  0  0  0  0
  1  2  1  0  0  0  0
  1  3  2  0  0  0  0
  1  4  1  0  0  0  0
  4  5  1  0  0  0  0
  4  6  1  0  0  0  0
  4  7  1  0  0  0  0
  7  8  1  0  0  0  0
  7  9  2  0  0  0  0
  9 10  1  0  0  0  0
  9 11  1  0  0  0  0
 11 12  1  0  0  0  0
 11 13  1  0  0  0  0
 11 14  1  0  0  0  0
 14 15  1  0  0  0  0
 14 16  1  0  0  0  0
 14 17  1  0  0  0  0
M  END
> <VConfSearch Rank>
941

> <Conf_Id>
38

> <Delta U+W>
0.000

> <U+W>
-49.427

> <U>
13.666

> <W>
-63.093

> <W(PB)>
-65.225

> <W(SA)>
2.132

> <Valence>
15.226

> <Coulomb>
-1.822

> <VdW>
0.261

> <VdW6>
-4.165

> <VdW12>
4.426

> <Bond>
0.044

> <Angle>
2.229

> <Pdih>
12.953

> <Idih>
0.000

> <Tether>
0.000

$$$$
VeraChem MOL file


 17 16  0  0  0  0  0  0  0  0999 V2000     
   17.4075   19.0747   20.4302 C   0  0  0  0  0  0  0  0  0  0  0  0
   17.3705   19.9908   19.6326 O   0  5  0  0  0  0  0  0  0  0  0  0
   16.4296   18.6545   21.0169 O   0  0  0  0  0  0  0  0  0  0  0  0
   18.7506   18.4120   20.7070 C   0  0  0  0  0  0  0  0  0  0  0  0
   19.4037   18.5864   19.8435 H   0  0  0  0  0  0  0  0  0  0  0  0
   18.5838   17.3304   20.7696 H   0  0  0  0  0  0  0  0  0  0  0  0
   19.3937   18.9146   21.9855 C   0  0  0  0  0  0  0  0  0  0  0  0
   18.8800   18.6362   22.9052 H   0  0  0  0  0  0  0  0  0  0  0  0
   20.5083   19.6510   22.0264 C   0  0  0  0  0  0  0  0  0  0  0  0
   21.0197   19.9317   21.1062 H   0  0  0  0  0  0  0  0  0  0  0  0
   21.1461   20.1546   23.3019 C   0  0  0  0  0  0  0  0  0  0  0  0
   21.3739   21.2248   23.2049 H   0  0  0  0  0  0  0  0  0  0  0  0
   20.4488   20.0559   24.1453 H   0  0  0  0  0  0  0  0  0  0  0  0
   22.4407   19.3802   23.6171 C   0  0  0  0  0  0  0  0  0  0  0  0
   23.1720   19.4932   22.8061 H   0  0  0  0  0  0  0  0  0  0  0  0
   22.8992   19.7506   24.5432 H   0  0  0  0  0  0  0  0  0  0  0  0
   22.2334   18.3095   23.7441 H   0  0  0  0  0  0  0  0  0  0  0  0
  1  2  1  0  0  0  0
  1  3  2  0  0  0  0
  1  4  1  0  0  0  0
  4  5  1  0  0  0  0
  4  6  1  0  0  0  0
  4  7  1  0  0  0  0
  7  8  1  0  0  0  0
  7  9  2  0  0  0  0
  9 10  1  0  0  0  0
  9 11  1  0  0  0  0
 11 12  1  0  0  0  0
 11 13  1  0  0  0  0
 11 14  1  0  0  0  0
 14 15  1  0  0  0  0
 14 16  1  0  0  0  0
 14 17  1  0  0  0  0
M  END
> <VConfSearch Rank>
942

> <Conf_Id>
35

> <Delta U+W>
-0.102

> <U+W>
-49.529

> <U>
13.666

> <W>
-63.195

> <W(PB)>
-65.299

> <W(SA)>
2.103

> <Valence>
15.226

> <Coulomb>
-1.822

> <VdW>
0.261

> <VdW6>
-4.165

> <VdW12>
4.426

> <Bond>
0.044

> <Angle>
2.229

> <Pdih>
12.953

> <Idih>
0.000

> <Tether>
0.000

$$$$
VeraChem MOL file


 17 16  0  0  0  0  0  0  0  0999 V2000     
   17.3295   19.2894   21.6569 C   0  0  0  0  0  0  0  0  0  0  0  0
   17.1075   20.2403   20.9335 O   0  5  0  0  0  0  0  0  0  0  0  0
   16.8360   18.1909   21.4933 O   0  0  0  0  0  0  0  0  0  0  0  0
   18.2702   19.4898   22.8378 C   0  0  0  0  0  0  0  0  0  0  0  0
   18.0354   18.7327   23.5956 H   0  0  0  0  0  0  0  0  0  0  0  0
   18.0472   20.4670   23.2814 H   0  0  0  0  0  0  0  0  0  0  0  0
   19.7310   19.4226   22.4341 C   0  0  0  0  0  0  0  0  0  0  0  0
   20.0665   20.2446   21.8041 H   0  0  0  0  0  0  0  0  0  0  0  0
   20.5636   18.4410   22.8027 C   0  0  0  0  0  0  0  0  0  0  0  0
   20.1906   17.6323   23.4304 H   0  0  0  0  0  0  0  0  0  0  0  0
   22.0315   18.3094   22.4332 C   0  0  0  0  0  0  0  0  0  0  0  0
   22.6281   18.2590   23.3541 H   0  0  0  0  0  0  0  0  0  0  0  0
   22.1868   17.3465   21.9280 H   0  0  0  0  0  0  0  0  0  0  0  0
   22.5827   19.4413   21.5382 C   0  0  0  0  0  0  0  0  0  0  0  0
   22.4933   20.4159   22.0356 H   0  0  0  0  0  0  0  0  0  0  0  0
   23.6445   19.2736   21.3158 H   0  0  0  0  0  0  0  0  0  0  0  0
   22.0425   19.4867   20.5834 H   0  0  0  0  0  0  0  0  0  0  0  0
  1  2  1  0  0  0  0
  1  3  2  0  0  0  0
  1  4  1  0  0  0  0
  4  5  1  0  0  0  0
  4  6  1  0  0  0  0
  4  7  1  0  0  0  0
  7  8  1  0  0  0  0
  7  9  2  0  0  0  0
  9 10  1  0  0  0  0
  9 11  1  0  0  0  0
 11 12  1  0  0  0  0
 11 13  1  0  0  0  0
 11 14  1  0  0  0  0
 14 15  1  0  0  0  0
 14 16  1  0  0  0  0
 14 17  1  0  0  0  0
M  END
> <VConfSearch Rank>
943

> <Conf_Id>
19

> <Delta U+W>
-0.496

> <U+W>
-49.923

> <U>
13.863

> <W>
-63.786

> <W(PB)>
-65.856

> <W(SA)>
2.070

> <Valence>
14.117

> <Coulomb>
-1.228

> <VdW>
0.974

> <VdW6>
-4.885

> <VdW12>
5.859

> <Bond>
0.094

> <Angle>
2.818

> <Pdih>
11.205

> <Idih>
0.000

> <Tether>
0.000

$$$$
VeraChem MOL file


 17 16  0  0  0  0  0  0  0  0999 V2000     
   21.0852   16.2859   22.4099 C   0  0  0  0  0  0  0  0  0  0  0  0
   20.0808   15.7034   22.7686 O   0  5  0  0  0  0  0  0  0  0  0  0
   21.8082   15.8911   21.5164 O   0  0  0  0  0  0  0  0  0  0  0  0
   21.4665   17.5756   23.1248 C   0  0  0  0  0  0  0  0  0  0  0  0
   22.5507   17.5612   23.2855 H   0  0  0  0  0  0  0  0  0  0  0  0
   20.9953   17.5713   24.1151 H   0  0  0  0  0  0  0  0  0  0  0  0
   21.0725   18.8128   22.3407 C   0  0  0  0  0  0  0  0  0  0  0  0
   21.6180   18.9668   21.4101 H   0  0  0  0  0  0  0  0  0  0  0  0
   20.1248   19.6742   22.7227 C   0  0  0  0  0  0  0  0  0  0  0  0
   19.5761   19.5169   23.6508 H   0  0  0  0  0  0  0  0  0  0  0  0
   19.7314   20.9056   21.9378 C   0  0  0  0  0  0  0  0  0  0  0  0
   19.6944   21.7759   22.6070 H   0  0  0  0  0  0  0  0  0  0  0  0
   20.4853   21.1295   21.1706 H   0  0  0  0  0  0  0  0  0  0  0  0
   18.3585   20.7170   21.2637 C   0  0  0  0  0  0  0  0  0  0  0  0
   17.5771   20.5298   22.0119 H   0  0  0  0  0  0  0  0  0  0  0  0
   18.0782   21.6132   20.6952 H   0  0  0  0  0  0  0  0  0  0  0  0
   18.3786   19.8658   20.5702 H   0  0  0  0  0  0  0  0  0  0  0  0
  1  2  1  0  0  0  0
  1  3  2  0  0  0  0
  1  4  1  0  0  0  0
  4  5  1  0  0  0  0
  4  6  1  0  0  0  0
  4  7  1  0  0  0  0
  7  8  1  0  0  0  0
  7  9  2  0  0  0  0
  9 10  1  0  0  0  0
  9 11  1  0  0  0  0
 11 12  1  0  0  0  0
 11 13  1  0  0  0  0
 11 14  1  0  0  0  0
 14 15  1  0  0  0  0
 14 16  1  0  0  0  0
 14 17  1  0  0  0  0
M  END
> <VConfSearch Rank>
944

> <Conf_Id>
7

> <Delta U+W>
-0.041

> <U+W>
-49.468

> <U>
14.121

> <W>
-63.589

> <W(PB)>
-65.660

> <W(SA)>
2.071

> <Valence>
15.230

> <Coulomb>
-1.333

> <VdW>
0.224

> <VdW6>
-4.212

> <VdW12>
4.436

> <Bond>
0.044

> <Angle>
2.230

> <Pdih>
12.956

> <Idih>
0.000

> <Tether>
0.000

$$$$
VeraChem MOL file


 17 16  0  0  0  0  0  0  0  0999 V2000     
   22.4208   18.7158   20.8281 C   0  0  0  0  0  0  0  0  0  0  0  0
   21.9553   18.1274   19.8720 O   0  5  0  0  0  0  0  0  0  0  0  0
   23.3040   18.2633   21.5298 O   0  0  0  0  0  0  0  0  0  0  0  0
   21.8875   20.1089   21.1481 C   0  0  0  0  0  0  0  0  0  0  0  0
   21.5994   20.5840   20.2031 H   0  0  0  0  0  0  0  0  0  0  0  0
   22.7189   20.7040   21.5435 H   0  0  0  0  0  0  0  0  0  0  0  0
   20.7176   20.1572   22.1207 C   0  0  0  0  0  0  0  0  0  0  0  0
   20.3526   21.1608   22.3352 H   0  0  0  0  0  0  0  0  0  0  0  0
   20.1329   19.1025   22.7009 C   0  0  0  0  0  0  0  0  0  0  0  0
   20.4777   18.0883   22.5028 H   0  0  0  0  0  0  0  0  0  0  0  0
   18.9710   19.2052   23.6640 C   0  0  0  0  0  0  0  0  0  0  0  0
   19.1720   18.5931   24.5536 H   0  0  0  0  0  0  0  0  0  0  0  0
   18.8511   20.2398   24.0139 H   0  0  0  0  0  0  0  0  0  0  0  0
   17.6606   18.7355   23.0026 C   0  0  0  0  0  0  0  0  0  0  0  0
   16.8214   18.8109   23.7062 H   0  0  0  0  0  0  0  0  0  0  0  0
   17.4253   19.3506   22.1240 H   0  0  0  0  0  0  0  0  0  0  0  0
   17.7394   17.6900   22.6768 H   0  0  0  0  0  0  0  0  0  0  0  0
  1  2  1  0  0  0  0
  1  3  2  0  0  0  0
  1  4  1  0  0  0  0
  4  5  1  0  0  0  0
  4  6  1  0  0  0  0
  4  7  1  0  0  0  0
  7  8  1  0  0  0  0
  7  9  2  0  0  0  0
  9 10  1  0  0  0  0
  9 11  1  0  0  0  0
 11 12  1  0  0  0  0
 11 13  1  0  0  0  0
 11 14  1  0  0  0  0
 14 15  1  0  0  0  0
 14 16  1  0  0  0  0
 14 17  1  0  0  0  0
M  END
> <VConfSearch Rank>
945

> <Conf_Id>
39

> <Delta U+W>
-0.422

> <U+W>
-49.849

> <U>
14.465

> <W>
-64.314

> <W(PB)>
-66.406

> <W(SA)>
2.093

> <Valence>
14.072

> <Coulomb>
-0.199

> <VdW>
0.592

> <VdW6>
-5.019

> <VdW12>
5.611

> <Bond>
0.085

> <Angle>
2.748

> <Pdih>
11.238

> <Idih>
0.001

> <Tether>
0.000

$$$$
VeraChem MOL file


 17 16  0  0  0  0  0  0  0  0999 V2000     
   20.3859   16.2665   21.1581 C   0  0  0  0  0  0  0  0  0  0  0  0
   20.1395   15.4116   21.9861 O   0  5  0  0  0  0  0  0  0  0  0  0
   21.2966   16.1841   20.3577 O   0  0  0  0  0  0  0  0  0  0  0  0
   19.5005   17.5051   21.1198 C   0  0  0  0  0  0  0  0  0  0  0  0
   18.4639   17.1805   21.2667 H   0  0  0  0  0  0  0  0  0  0  0  0
   19.5612   17.9393   20.1146 H   0  0  0  0  0  0  0  0  0  0  0  0
   19.8817   18.5246   22.1762 C   0  0  0  0  0  0  0  0  0  0  0  0
   19.6945   18.2199   23.2055 H   0  0  0  0  0  0  0  0  0  0  0  0
   20.4139   19.7209   21.9082 C   0  0  0  0  0  0  0  0  0  0  0  0
   20.6036   20.0237   20.8789 H   0  0  0  0  0  0  0  0  0  0  0  0
   20.7969   20.7346   22.9632 C   0  0  0  0  0  0  0  0  0  0  0  0
   20.8190   20.2658   23.9566 H   0  0  0  0  0  0  0  0  0  0  0  0
   21.8115   21.1075   22.7679 H   0  0  0  0  0  0  0  0  0  0  0  0
   19.8091   21.9174   22.9792 C   0  0  0  0  0  0  0  0  0  0  0  0
   18.7903   21.5716   23.1983 H   0  0  0  0  0  0  0  0  0  0  0  0
   20.0925   22.6499   23.7461 H   0  0  0  0  0  0  0  0  0  0  0  0
   19.7951   22.4293   22.0080 H   0  0  0  0  0  0  0  0  0  0  0  0
  1  2  1  0  0  0  0
  1  3  2  0  0  0  0
  1  4  1  0  0  0  0
  4  5  1  0  0  0  0
  4  6  1  0  0  0  0
  4  7  1  0  0  0  0
  7  8  1  0  0  0  0
  7  9  2  0  0  0  0
  9 10  1  0  0  0  0
  9 11  1  0  0  0  0
 11 12  1  0  0  0  0
 11 13  1  0  0  0  0
 11 14  1  0  0  0  0
 14 15  1  0  0  0  0
 14 16  1  0  0  0  0
 14 17  1  0  0  0  0
M  END
> <VConfSearch Rank>
946

> <Conf_Id>
38

> <Delta U+W>
0.000

> <U+W>
-49.427

> <U>
13.666

> <W>
-63.093

> <W(PB)>
-65.225

> <W(SA)>
2.132

> <Valence>
15.226

> <Coulomb>
-1.822

> <VdW>
0.261

> <VdW6>
-4.165

> <VdW12>
4.426

> <Bond>
0.044

> <Angle>
2.229

> <Pdih>
12.953

> <Idih>
0.000

> <Tether>
0.000

$$$$
VeraChem MOL file


 17 16  0  0  0  0  0  0  0  0999 V2000     
   22.7865   18.5712   23.6012 C   0  0  0  0  0  0  0  0  0  0  0  0
   22.7495   19.0337   24.7244 O   0  5  0  0  0  0  0  0  0  0  0  0
   23.7923   18.5410   22.9197 O   0  0  0  0  0  0  0  0  0  0  0  0
   21.5051   17.9924   23.0159 C   0  0  0  0  0  0  0  0  0  0  0  0
   20.8472   17.7072   23.8455 H   0  0  0  0  0  0  0  0  0  0  0  0
   21.7667   17.0710   22.4828 H   0  0  0  0  0  0  0  0  0  0  0  0
   20.8079   18.9577   22.0763 C   0  0  0  0  0  0  0  0  0  0  0  0
   21.3357   19.1638   21.1456 H   0  0  0  0  0  0  0  0  0  0  0  0
   19.6320   19.5386   22.3331 C   0  0  0  0  0  0  0  0  0  0  0  0
   19.1063   19.3345   23.2653 H   0  0  0  0  0  0  0  0  0  0  0  0
   18.9401   20.5039   21.3967 C   0  0  0  0  0  0  0  0  0  0  0  0
   18.6190   21.3946   21.9535 H   0  0  0  0  0  0  0  0  0  0  0  0
   19.6355   20.8513   20.6202 H   0  0  0  0  0  0  0  0  0  0  0  0
   17.7166   19.8468   20.7287 C   0  0  0  0  0  0  0  0  0  0  0  0
   16.9857   19.5238   21.4816 H   0  0  0  0  0  0  0  0  0  0  0  0
   17.2184   20.5523   20.0511 H   0  0  0  0  0  0  0  0  0  0  0  0
   18.0170   18.9673   20.1442 H   0  0  0  0  0  0  0  0  0  0  0  0
  1  2  1  0  0  0  0
  1  3  2  0  0  0  0
  1  4  1  0  0  0  0
  4  5  1  0  0  0  0
  4  6  1  0  0  0  0
  4  7  1  0  0  0  0
  7  8  1  0  0  0  0
  7  9  2  0  0  0  0
  9 10  1  0  0  0  0
  9 11  1  0  0  0  0
 11 12  1  0  0  0  0
 11 13  1  0  0  0  0
 11 14  1  0  0  0  0
 14 15  1  0  0  0  0
 14 16  1  0  0  0  0
 14 17  1  0  0  0  0
M  END
> <VConfSearch Rank>
947

> <Conf_Id>
35

> <Delta U+W>
-0.102

> <U+W>
-49.529

> <U>
13.666

> <W>
-63.195

> <W(PB)>
-65.299

> <W(SA)>
2.103

> <Valence>
15.226

> <Coulomb>
-1.822

> <VdW>
0.261

> <VdW6>
-4.165

> <VdW12>
4.426

> <Bond>
0.044

> <Angle>
2.229

> <Pdih>
12.953

> <Idih>
0.000

> <Tether>
0.000

$$$$
VeraChem MOL file


 17 16  0  0  0  0  0  0  0  0999 V2000     
   19.0528   17.4468   24.3500 C   0  0  0  0  0  0  0  0  0  0  0  0
   19.8307   17.3672   25.2804 O   0  5  0  0  0  0  0  0  0  0  0  0
   17.8657   17.6696   24.4838 O   0  0  0  0  0  0  0  0  0  0  0  0
   19.5958   17.2469   22.9411 C   0  0  0  0  0  0  0  0  0  0  0  0
   18.7689   16.9232   22.2977 H   0  0  0  0  0  0  0  0  0  0  0  0
   20.3175   16.4226   22.9743 H   0  0  0  0  0  0  0  0  0  0  0  0
   20.2577   18.4963   22.3914 C   0  0  0  0  0  0  0  0  0  0  0  0
   21.1808   18.7800   22.8939 H   0  0  0  0  0  0  0  0  0  0  0  0
   19.7668   19.2162   21.3748 C   0  0  0  0  0  0  0  0  0  0  0  0
   18.8377   18.9037   20.8991 H   0  0  0  0  0  0  0  0  0  0  0  0
   20.3732   20.4751   20.7781 C   0  0  0  0  0  0  0  0  0  0  0  0
   20.5501   20.3124   19.7063 H   0  0  0  0  0  0  0  0  0  0  0  0
   19.6361   21.2874   20.8355 H   0  0  0  0  0  0  0  0  0  0  0  0
   21.6885   20.9422   21.4398 C   0  0  0  0  0  0  0  0  0  0  0  0
   22.4677   20.1737   21.3533 H   0  0  0  0  0  0  0  0  0  0  0  0
   22.0606   21.8541   20.9550 H   0  0  0  0  0  0  0  0  0  0  0  0
   21.5363   21.1656   22.5040 H   0  0  0  0  0  0  0  0  0  0  0  0
  1  2  1  0  0  0  0
  1  3  2  0  0  0  0
  1  4  1  0  0  0  0
  4  5  1  0  0  0  0
  4  6  1  0  0  0  0
  4  7  1  0  0  0  0
  7  8  1  0  0  0  0
  7  9  2  0  0  0  0
  9 10  1  0  0  0  0
  9 11  1  0  0  0  0
 11 12  1  0  0  0  0
 11 13  1  0  0  0  0
 11 14  1  0  0  0  0
 14 15  1  0  0  0  0
 14 16  1  0  0  0  0
 14 17  1  0  0  0  0
M  END
> <VConfSearch Rank>
948

> <Conf_Id>
19

> <Delta U+W>
-0.496

> <U+W>
-49.923

> <U>
13.863

> <W>
-63.786

> <W(PB)>
-65.856

> <W(SA)>
2.070

> <Valence>
14.117

> <Coulomb>
-1.228

> <VdW>
0.974

> <VdW6>
-4.885

> <VdW12>
5.859

> <Bond>
0.094

> <Angle>
2.818

> <Pdih>
11.205

> <Idih>
0.000

> <Tether>
0.000

$$$$
VeraChem MOL file


 17 16  0  0  0  0  0  0  0  0999 V2000     
   18.6459   18.3098   19.8109 C   0  0  0  0  0  0  0  0  0  0  0  0
   19.5190   17.8901   19.0772 O   0  5  0  0  0  0  0  0  0  0  0  0
   17.5892   17.7379   19.9936 O   0  0  0  0  0  0  0  0  0  0  0  0
   18.8821   19.6296   20.5335 C   0  0  0  0  0  0  0  0  0  0  0  0
   17.9510   20.2063   20.4898 H   0  0  0  0  0  0  0  0  0  0  0  0
   19.6371   20.1962   19.9754 H   0  0  0  0  0  0  0  0  0  0  0  0
   19.3062   19.4338   21.9767 C   0  0  0  0  0  0  0  0  0  0  0  0
   18.5437   19.0150   22.6327 H   0  0  0  0  0  0  0  0  0  0  0  0
   20.5199   19.7323   22.4500 C   0  0  0  0  0  0  0  0  0  0  0  0
   21.2836   20.1462   21.7924 H   0  0  0  0  0  0  0  0  0  0  0  0
   20.9417   19.5335   23.8887 C   0  0  0  0  0  0  0  0  0  0  0  0
   21.4296   20.4443   24.2615 H   0  0  0  0  0  0  0  0  0  0  0  0
   20.0636   19.3624   24.5266 H   0  0  0  0  0  0  0  0  0  0  0  0
   21.9089   18.3411   24.0221 C   0  0  0  0  0  0  0  0  0  0  0  0
   22.8152   18.5031   23.4240 H   0  0  0  0  0  0  0  0  0  0  0  0
   22.2114   18.2011   25.0681 H   0  0  0  0  0  0  0  0  0  0  0  0
   21.4333   17.4133   23.6777 H   0  0  0  0  0  0  0  0  0  0  0  0
  1  2  1  0  0  0  0
  1  3  2  0  0  0  0
  1  4  1  0  0  0  0
  4  5  1  0  0  0  0
  4  6  1  0  0  0  0
  4  7  1  0  0  0  0
  7  8  1  0  0  0  0
  7  9  2  0  0  0  0
  9 10  1  0  0  0  0
  9 11  1  0  0  0  0
 11 12  1  0  0  0  0
 11 13  1  0  0  0  0
 11 14  1  0  0  0  0
 14 15  1  0  0  0  0
 14 16  1  0  0  0  0
 14 17  1  0  0  0  0
M  END
> <VConfSearch Rank>
949

> <Conf_Id>
7

> <Delta U+W>
-0.041

> <U+W>
-49.468

> <U>
14.121

> <W>
-63.589

> <W(PB)>
-65.660

> <W(SA)>
2.071

> <Valence>
15.230

> <Coulomb>
-1.333

> <VdW>
0.224

> <VdW6>
-4.212

> <VdW12>
4.436

> <Bond>
0.044

> <Angle>
2.230

> <Pdih>
12.956

> <Idih>
0.000

> <Tether>
0.000

$$$$
VeraChem MOL file


 17 16  0  0  0  0  0  0  0  0999 V2000     
   19.5625   16.5913   21.9275 C   0  0  0  0  0  0  0  0  0  0  0  0
   20.5375   16.0825   22.4446 O   0  5  0  0  0  0  0  0  0  0  0  0
   19.1942   16.3399   20.7969 O   0  0  0  0  0  0  0  0  0  0  0  0
   18.7406   17.5778   22.7514 C   0  0  0  0  0  0  0  0  0  0  0  0
   18.8005   17.2704   23.8020 H   0  0  0  0  0  0  0  0  0  0  0  0
   17.6893   17.4620   22.4630 H   0  0  0  0  0  0  0  0  0  0  0  0
   19.1468   19.0392   22.6236 C   0  0  0  0  0  0  0  0  0  0  0  0
   18.5473   19.7260   23.2197 H   0  0  0  0  0  0  0  0  0  0  0  0
   20.1430   19.5155   21.8676 C   0  0  0  0  0  0  0  0  0  0  0  0
   20.7582   18.8502   21.2628 H   0  0  0  0  0  0  0  0  0  0  0  0
   20.5056   20.9810   21.7745 C   0  0  0  0  0  0  0  0  0  0  0  0
   20.6162   21.2690   20.7202 H   0  0  0  0  0  0  0  0  0  0  0  0
   19.7009   21.6040   22.1886 H   0  0  0  0  0  0  0  0  0  0  0  0
   21.8175   21.2756   22.5277 C   0  0  0  0  0  0  0  0  0  0  0  0
   22.0764   22.3400   22.4556 H   0  0  0  0  0  0  0  0  0  0  0  0
   21.7224   21.0191   23.5910 H   0  0  0  0  0  0  0  0  0  0  0  0
   22.6487   20.6935   22.1086 H   0  0  0  0  0  0  0  0  0  0  0  0
  1  2  1  0  0  0  0
  1  3  2  0  0  0  0
  1  4  1  0  0  0  0
  4  5  1  0  0  0  0
  4  6  1  0  0  0  0
  4  7  1  0  0  0  0
  7  8  1  0  0  0  0
  7  9  2  0  0  0  0
  9 10  1  0  0  0  0
  9 11  1  0  0  0  0
 11 12  1  0  0  0  0
 11 13  1  0  0  0  0
 11 14  1  0  0  0  0
 14 15  1  0  0  0  0
 14 16  1  0  0  0  0
 14 17  1  0  0  0  0
M  END
> <VConfSearch Rank>
950

> <Conf_Id>
39

> <Delta U+W>
-0.422

> <U+W>
-49.849

> <U>
14.465

> <W>
-64.314

> <W(PB)>
-66.406

> <W(SA)>
2.093

> <Valence>
14.072

> <Coulomb>
-0.199

> <VdW>
0.592

> <VdW6>
-5.019

> <VdW12>
5.611

> <Bond>
0.085

> <Angle>
2.748

> <Pdih>
11.238

> <Idih>
0.001

> <Tether>
0.000

$$$$
VeraChem MOL file


 17 16  0  0  0  0  0  0  0  0999 V2000     
   17.4108   20.7735   21.4080 C   0  0  0  0  0  0  0  0  0  0  0  0
   16.4138   20.0843   21.3197 O   0  5  0  0  0  0  0  0  0  0  0  0
   17.6536   21.7027   20.6633 O   0  0  0  0  0  0  0  0  0  0  0  0
   18.4063   20.4573   22.5165 C   0  0  0  0  0  0  0  0  0  0  0  0
   17.8355   20.2176   23.4210 H   0  0  0  0  0  0  0  0  0  0  0  0
   18.9809   21.3663   22.7313 H   0  0  0  0  0  0  0  0  0  0  0  0
   19.3256   19.3046   22.1601 C   0  0  0  0  0  0  0  0  0  0  0  0
   18.8434   18.3302   22.0886 H   0  0  0  0  0  0  0  0  0  0  0  0
   20.6376   19.4310   21.9388 C   0  0  0  0  0  0  0  0  0  0  0  0
   21.1186   20.4062   22.0075 H   0  0  0  0  0  0  0  0  0  0  0  0
   21.5520   18.2811   21.5798 C   0  0  0  0  0  0  0  0  0  0  0  0
   20.9648   17.4020   21.2805 H   0  0  0  0  0  0  0  0  0  0  0  0
   22.1712   18.5559   20.7151 H   0  0  0  0  0  0  0  0  0  0  0  0
   22.4626   17.9066   22.7654 C   0  0  0  0  0  0  0  0  0  0  0  0
   21.8651   17.6032   23.6352 H   0  0  0  0  0  0  0  0  0  0  0  0
   23.1242   17.0722   22.4988 H   0  0  0  0  0  0  0  0  0  0  0  0
   23.0900   18.7576   23.0615 H   0  0  0  0  0  0  0  0  0  0  0  0
  1  2  1  0  0  0  0
  1  3  2  0  0  0  0
  1  4  1  0  0  0  0
  4  5  1  0  0  0  0
  4  6  1  0  0  0  0
  4  7  1  0  0  0  0
  7  8  1  0  0  0  0
  7  9  2  0  0  0  0
  9 10  1  0  0  0  0
  9 11  1  0  0  0  0
 11 12  1  0  0  0  0
 11 13  1  0  0  0  0
 11 14  1  0  0  0  0
 14 15  1  0  0  0  0
 14 16  1  0  0  0  0
 14 17  1  0  0  0  0
M  END
> <VConfSearch Rank>
951

> <Conf_Id>
38

> <Delta U+W>
0.000

> <U+W>
-49.427

> <U>
13.666

> <W>
-63.093

> <W(PB)>
-65.225

> <W(SA)>
2.132

> <Valence>
15.226

> <Coulomb>
-1.822

> <VdW>
0.261

> <VdW6>
-4.165

> <VdW12>
4.426

> <Bond>
0.044

> <Angle>
2.229

> <Pdih>
12.953

> <Idih>
0.000

> <Tether>
0.000

$$$$
VeraChem MOL file


 17 16  0  0  0  0  0  0  0  0999 V2000     
   22.9881   18.7951   23.2760 C   0  0  0  0  0  0  0  0  0  0  0  0
   23.2818   17.6227   23.1493 O   0  5  0  0  0  0  0  0  0  0  0  0
   23.3000   19.4656   24.2404 O   0  0  0  0  0  0  0  0  0  0  0  0
   22.1902   19.4639   22.1644 C   0  0  0  0  0  0  0  0  0  0  0  0
   22.3570   18.9028   21.2370 H   0  0  0  0  0  0  0  0  0  0  0  0
   22.6051   20.4669   22.0112 H   0  0  0  0  0  0  0  0  0  0  0  0
   20.7107   19.5558   22.4856 C   0  0  0  0  0  0  0  0  0  0  0  0
   20.4530   20.2301   23.3019 H   0  0  0  0  0  0  0  0  0  0  0  0
   19.7584   18.8745   21.8413 C   0  0  0  0  0  0  0  0  0  0  0  0
   20.0171   18.1980   21.0273 H   0  0  0  0  0  0  0  0  0  0  0  0
   18.2840   18.9644   22.1656 C   0  0  0  0  0  0  0  0  0  0  0  0
   17.8604   17.9543   22.2487 H   0  0  0  0  0  0  0  0  0  0  0  0
   18.1336   19.4503   23.1395 H   0  0  0  0  0  0  0  0  0  0  0  0
   17.5251   19.7520   21.0800 C   0  0  0  0  0  0  0  0  0  0  0  0
   17.6267   19.2664   20.1006 H   0  0  0  0  0  0  0  0  0  0  0  0
   16.4557   19.8133   21.3204 H   0  0  0  0  0  0  0  0  0  0  0  0
   17.9147   20.7752   20.9965 H   0  0  0  0  0  0  0  0  0  0  0  0
  1  2  1  0  0  0  0
  1  3  2  0  0  0  0
  1  4  1  0  0  0  0
  4  5  1  0  0  0  0
  4  6  1  0  0  0  0
  4  7  1  0  0  0  0
  7  8  1  0  0  0  0
  7  9  2  0  0  0  0
  9 10  1  0  0  0  0
  9 11  1  0  0  0  0
 11 12  1  0  0  0  0
 11 13  1  0  0  0  0
 11 14  1  0  0  0  0
 14 15  1  0  0  0  0
 14 16  1  0  0  0  0
 14 17  1  0  0  0  0
M  END
> <VConfSearch Rank>
952

> <Conf_Id>
35

> <Delta U+W>
-0.102

> <U+W>
-49.529

> <U>
13.666

> <W>
-63.195

> <W(PB)>
-65.299

> <W(SA)>
2.103

> <Valence>
15.226

> <Coulomb>
-1.822

> <VdW>
0.261

> <VdW6>
-4.165

> <VdW12>
4.426

> <Bond>
0.044

> <Angle>
2.229

> <Pdih>
12.953

> <Idih>
0.000

> <Tether>
0.000

$$$$
VeraChem MOL file


 17 16  0  0  0  0  0  0  0  0999 V2000     
   22.2202   17.9393   24.0395 C   0  0  0  0  0  0  0  0  0  0  0  0
   23.2033   17.5925   23.4148 O   0  5  0  0  0  0  0  0  0  0  0  0
   22.2717   18.5560   25.0854 O   0  0  0  0  0  0  0  0  0  0  0  0
   20.8503   17.5718   23.4846 C   0  0  0  0  0  0  0  0  0  0  0  0
   20.1363   17.5553   24.3168 H   0  0  0  0  0  0  0  0  0  0  0  0
   20.9106   16.5494   23.0940 H   0  0  0  0  0  0  0  0  0  0  0  0
   20.3930   18.5201   22.3924 C   0  0  0  0  0  0  0  0  0  0  0  0
   20.9725   18.4667   21.4724 H   0  0  0  0  0  0  0  0  0  0  0  0
   19.3665   19.3699   22.5223 C   0  0  0  0  0  0  0  0  0  0  0  0
   18.8124   19.3982   23.4600 H   0  0  0  0  0  0  0  0  0  0  0  0
   18.8585   20.3465   21.4750 C   0  0  0  0  0  0  0  0  0  0  0  0
   17.7983   20.1381   21.2775 H   0  0  0  0  0  0  0  0  0  0  0  0
   18.8869   21.3624   21.8916 H   0  0  0  0  0  0  0  0  0  0  0  0
   19.6321   20.3296   20.1381 C   0  0  0  0  0  0  0  0  0  0  0  0
   19.5792   19.3404   19.6647 H   0  0  0  0  0  0  0  0  0  0  0  0
   19.2066   21.0603   19.4380 H   0  0  0  0  0  0  0  0  0  0  0  0
   20.6886   20.5865   20.2911 H   0  0  0  0  0  0  0  0  0  0  0  0
  1  2  1  0  0  0  0
  1  3  2  0  0  0  0
  1  4  1  0  0  0  0
  4  5  1  0  0  0  0
  4  6  1  0  0  0  0
  4  7  1  0  0  0  0
  7  8  1  0  0  0  0
  7  9  2  0  0  0  0
  9 10  1  0  0  0  0
  9 11  1  0  0  0  0
 11 12  1  0  0  0  0
 11 13  1  0  0  0  0
 11 14  1  0  0  0  0
 14 15  1  0  0  0  0
 14 16  1  0  0  0  0
 14 17  1  0  0  0  0
M  END
> <VConfSearch Rank>
953

> <Conf_Id>
19

> <Delta U+W>
-0.496

> <U+W>
-49.923

> <U>
13.863

> <W>
-63.786

> <W(PB)>
-65.856

> <W(SA)>
2.070

> <Valence>
14.117

> <Coulomb>
-1.228

> <VdW>
0.974

> <VdW6>
-4.885

> <VdW12>
5.859

> <Bond>
0.094

> <Angle>
2.818

> <Pdih>
11.205

> <Idih>
0.000

> <Tether>
0.000

$$$$
VeraChem MOL file


 17 16  0  0  0  0  0  0  0  0999 V2000     
   19.9049   18.9625   25.1351 C   0  0  0  0  0  0  0  0  0  0  0  0
   21.0636   18.8787   25.4917 O   0  5  0  0  0  0  0  0  0  0  0  0
   19.1009   19.7237   25.6362 O   0  0  0  0  0  0  0  0  0  0  0  0
   19.4294   18.0576   24.0060 C   0  0  0  0  0  0  0  0  0  0  0  0
   18.4363   17.6800   24.2755 H   0  0  0  0  0  0  0  0  0  0  0  0
   20.0995   17.1910   23.9554 H   0  0  0  0  0  0  0  0  0  0  0  0
   19.3688   18.7766   22.6717 C   0  0  0  0  0  0  0  0  0  0  0  0
   18.6098   19.5548   22.5969 H   0  0  0  0  0  0  0  0  0  0  0  0
   20.1744   18.5122   21.6387 C   0  0  0  0  0  0  0  0  0  0  0  0
   20.9366   17.7375   21.7158 H   0  0  0  0  0  0  0  0  0  0  0  0
   20.1143   19.2323   20.3101 C   0  0  0  0  0  0  0  0  0  0  0  0
   20.1152   18.5004   19.4910 H   0  0  0  0  0  0  0  0  0  0  0  0
   19.1786   19.8016   20.2234 H   0  0  0  0  0  0  0  0  0  0  0  0
   21.3106   20.1897   20.1450 C   0  0  0  0  0  0  0  0  0  0  0  0
   22.2605   19.6408   20.1887 H   0  0  0  0  0  0  0  0  0  0  0  0
   21.2617   20.7099   19.1796 H   0  0  0  0  0  0  0  0  0  0  0  0
   21.3164   20.9468   20.9403 H   0  0  0  0  0  0  0  0  0  0  0  0
  1  2  1  0  0  0  0
  1  3  2  0  0  0  0
  1  4  1  0  0  0  0
  4  5  1  0  0  0  0
  4  6  1  0  0  0  0
  4  7  1  0  0  0  0
  7  8  1  0  0  0  0
  7  9  2  0  0  0  0
  9 10  1  0  0  0  0
  9 11  1  0  0  0  0
 11 12  1  0  0  0  0
 11 13  1  0  0  0  0
 11 14  1  0  0  0  0
 14 15  1  0  0  0  0
 14 16  1  0  0  0  0
 14 17  1  0  0  0  0
M  END
> <VConfSearch Rank>
954

> <Conf_Id>
7

> <Delta U+W>
-0.041

> <U+W>
-49.468

> <U>
14.121

> <W>
-63.589

> <W(PB)>
-65.660

> <W(SA)>
2.071

> <Valence>
15.230

> <Coulomb>
-1.333

> <VdW>
0.224

> <VdW6>
-4.212

> <VdW12>
4.436

> <Bond>
0.044

> <Angle>
2.230

> <Pdih>
12.956

> <Idih>
0.000

> <Tether>
0.000

$$$$
VeraChem MOL file


 17 16  0  0  0  0  0  0  0  0999 V2000     
   18.1695   17.4705   22.9980 C   0  0  0  0  0  0  0  0  0  0  0  0
   17.1676   18.1347   22.8190 O   0  5  0  0  0  0  0  0  0  0  0  0
   18.4272   16.9136   24.0471 O   0  0  0  0  0  0  0  0  0  0  0  0
   19.1423   17.3037   21.8347 C   0  0  0  0  0  0  0  0  0  0  0  0
   18.5610   17.3177   20.9054 H   0  0  0  0  0  0  0  0  0  0  0  0
   19.5780   16.3001   21.9026 H   0  0  0  0  0  0  0  0  0  0  0  0
   20.2555   18.3388   21.7555 C   0  0  0  0  0  0  0  0  0  0  0  0
   20.9385   18.2013   20.9182 H   0  0  0  0  0  0  0  0  0  0  0  0
   20.4431   19.3586   22.6016 C   0  0  0  0  0  0  0  0  0  0  0  0
   19.7743   19.5193   23.4464 H   0  0  0  0  0  0  0  0  0  0  0  0
   21.5690   20.3612   22.4789 C   0  0  0  0  0  0  0  0  0  0  0  0
   22.0611   20.4866   23.4529 H   0  0  0  0  0  0  0  0  0  0  0  0
   22.3365   19.9952   21.7831 H   0  0  0  0  0  0  0  0  0  0  0  0
   21.0450   21.7250   21.9887 C   0  0  0  0  0  0  0  0  0  0  0  0
   21.8658   22.4488   21.9029 H   0  0  0  0  0  0  0  0  0  0  0  0
   20.5707   21.6289   21.0031 H   0  0  0  0  0  0  0  0  0  0  0  0
   20.3024   22.1330   22.6870 H   0  0  0  0  0  0  0  0  0  0  0  0
  1  2  1  0  0  0  0
  1  3  2  0  0  0  0
  1  4  1  0  0  0  0
  4  5  1  0  0  0  0
  4  6  1  0  0  0  0
  4  7  1  0  0  0  0
  7  8  1  0  0  0  0
  7  9  2  0  0  0  0
  9 10  1  0  0  0  0
  9 11  1  0  0  0  0
 11 12  1  0  0  0  0
 11 13  1  0  0  0  0
 11 14  1  0  0  0  0
 14 15  1  0  0  0  0
 14 16  1  0  0  0  0
 14 17  1  0  0  0  0
M  END
> <VConfSearch Rank>
955

> <Conf_Id>
39

> <Delta U+W>
-0.422

> <U+W>
-49.849

> <U>
14.465

> <W>
-64.314

> <W(PB)>
-66.406

> <W(SA)>
2.093

> <Valence>
14.072

> <Coulomb>
-0.199

> <VdW>
0.592

> <VdW6>
-5.019

> <VdW12>
5.611

> <Bond>
0.085

> <Angle>
2.748

> <Pdih>
11.238

> <Idih>
0.001

> <Tether>
0.000

$$$$
VeraChem MOL file


 17 16  0  0  0  0  0  0  0  0999 V2000     
   22.4744   19.6784   20.0417 C   0  0  0  0  0  0  0  0  0  0  0  0
   23.5399   20.0398   20.5012 O   0  5  0  0  0  0  0  0  0  0  0  0
   22.0204   20.0911   18.9927 O   0  0  0  0  0  0  0  0  0  0  0  0
   21.6685   18.6482   20.8220 C   0  0  0  0  0  0  0  0  0  0  0  0
   22.3686   17.9001   21.2112 H   0  0  0  0  0  0  0  0  0  0  0  0
   21.0029   18.1306   20.1208 H   0  0  0  0  0  0  0  0  0  0  0  0
   20.8819   19.2678   21.9614 C   0  0  0  0  0  0  0  0  0  0  0  0
   21.4824   19.6622   22.7806 H   0  0  0  0  0  0  0  0  0  0  0  0
   19.5483   19.3475   21.9973 C   0  0  0  0  0  0  0  0  0  0  0  0
   18.9486   18.9556   21.1764 H   0  0  0  0  0  0  0  0  0  0  0  0
   18.7658   19.9691   23.1325 C   0  0  0  0  0  0  0  0  0  0  0  0
   19.4298   20.5590   23.7793 H   0  0  0  0  0  0  0  0  0  0  0  0
   18.0180   20.6654   22.7296 H   0  0  0  0  0  0  0  0  0  0  0  0
   18.0604   18.8889   23.9756 C   0  0  0  0  0  0  0  0  0  0  0  0
   18.7915   18.1948   24.4106 H   0  0  0  0  0  0  0  0  0  0  0  0
   17.4938   19.3460   24.7973 H   0  0  0  0  0  0  0  0  0  0  0  0
   17.3604   18.3076   23.3612 H   0  0  0  0  0  0  0  0  0  0  0  0
  1  2  1  0  0  0  0
  1  3  2  0  0  0  0
  1  4  1  0  0  0  0
  4  5  1  0  0  0  0
  4  6  1  0  0  0  0
  4  7  1  0  0  0  0
  7  8  1  0  0  0  0
  7  9  2  0  0  0  0
  9 10  1  0  0  0  0
  9 11  1  0  0  0  0
 11 12  1  0  0  0  0
 11 13  1  0  0  0  0
 11 14  1  0  0  0  0
 14 15  1  0  0  0  0
 14 16  1  0  0  0  0
 14 17  1  0  0  0  0
M  END
> <VConfSearch Rank>
956

> <Conf_Id>
38

> <Delta U+W>
0.000

> <U+W>
-49.427

> <U>
13.666

> <W>
-63.093

> <W(PB)>
-65.225

> <W(SA)>
2.132

> <Valence>
15.226

> <Coulomb>
-1.822

> <VdW>
0.261

> <VdW6>
-4.165

> <VdW12>
4.426

> <Bond>
0.044

> <Angle>
2.229

> <Pdih>
12.953

> <Idih>
0.000

> <Tether>
0.000

$$$$
VeraChem MOL file


 17 16  0  0  0  0  0  0  0  0999 V2000     
   22.4422   20.3125   20.2684 C   0  0  0  0  0  0  0  0  0  0  0  0
   22.5174   19.6095   19.2800 O   0  5  0  0  0  0  0  0  0  0  0  0
   23.4102   20.7760   20.8386 O   0  0  0  0  0  0  0  0  0  0  0  0
   21.0604   20.6360   20.8211 C   0  0  0  0  0  0  0  0  0  0  0  0
   20.3319   20.5280   20.0085 H   0  0  0  0  0  0  0  0  0  0  0  0
   21.0566   21.6914   21.1169 H   0  0  0  0  0  0  0  0  0  0  0  0
   20.6888   19.7623   22.0040 C   0  0  0  0  0  0  0  0  0  0  0  0
   21.2718   19.9318   22.9087 H   0  0  0  0  0  0  0  0  0  0  0  0
   19.7246   18.8371   21.9809 C   0  0  0  0  0  0  0  0  0  0  0  0
   19.1440   18.6659   21.0750 H   0  0  0  0  0  0  0  0  0  0  0  0
   19.3581   17.9640   23.1602 C   0  0  0  0  0  0  0  0  0  0  0  0
   19.2955   16.9153   22.8398 H   0  0  0  0  0  0  0  0  0  0  0  0
   20.1392   18.0120   23.9315 H   0  0  0  0  0  0  0  0  0  0  0  0
   18.0107   18.3957   23.7714 C   0  0  0  0  0  0  0  0  0  0  0  0
   17.2031   18.3208   23.0315 H   0  0  0  0  0  0  0  0  0  0  0  0
   17.7498   17.7582   24.6261 H   0  0  0  0  0  0  0  0  0  0  0  0
   18.0572   19.4348   24.1230 H   0  0  0  0  0  0  0  0  0  0  0  0
  1  2  1  0  0  0  0
  1  3  2  0  0  0  0
  1  4  1  0  0  0  0
  4  5  1  0  0  0  0
  4  6  1  0  0  0  0
  4  7  1  0  0  0  0
  7  8  1  0  0  0  0
  7  9  2  0  0  0  0
  9 10  1  0  0  0  0
  9 11  1  0  0  0  0
 11 12  1  0  0  0  0
 11 13  1  0  0  0  0
 11 14  1  0  0  0  0
 14 15  1  0  0  0  0
 14 16  1  0  0  0  0
 14 17  1  0  0  0  0
M  END
> <VConfSearch Rank>
957

> <Conf_Id>
35

> <Delta U+W>
-0.102

> <U+W>
-49.529

> <U>
13.666

> <W>
-63.195

> <W(PB)>
-65.299

> <W(SA)>
2.103

> <Valence>
15.226

> <Coulomb>
-1.822

> <VdW>
0.261

> <VdW6>
-4.165

> <VdW12>
4.426

> <Bond>
0.044

> <Angle>
2.229

> <Pdih>
12.953

> <Idih>
0.000

> <Tether>
0.000

$$$$
VeraChem MOL file


 17 16  0  0  0  0  0  0  0  0999 V2000     
   21.2771   19.4656   19.4721 C   0  0  0  0  0  0  0  0  0  0  0  0
   21.2149   20.6384   19.1593 O   0  5  0  0  0  0  0  0  0  0  0  0
   22.2534   18.7689   19.2766 O   0  0  0  0  0  0  0  0  0  0  0  0
   20.0608   18.8343   20.1367 C   0  0  0  0  0  0  0  0  0  0  0  0
   20.0970   17.7525   19.9611 H   0  0  0  0  0  0  0  0  0  0  0  0
   19.1670   19.2120   19.6267 H   0  0  0  0  0  0  0  0  0  0  0  0
   19.9836   19.1439   21.6198 C   0  0  0  0  0  0  0  0  0  0  0  0
   19.7876   20.1883   21.8564 H   0  0  0  0  0  0  0  0  0  0  0  0
   20.1452   18.2285   22.5835 C   0  0  0  0  0  0  0  0  0  0  0  0
   20.3445   17.1932   22.3083 H   0  0  0  0  0  0  0  0  0  0  0  0
   20.0848   18.4684   24.0826 C   0  0  0  0  0  0  0  0  0  0  0  0
   19.3107   17.8212   24.5166 H   0  0  0  0  0  0  0  0  0  0  0  0
   21.0308   18.1406   24.5343 H   0  0  0  0  0  0  0  0  0  0  0  0
   19.8094   19.9304   24.4984 C   0  0  0  0  0  0  0  0  0  0  0  0
   18.8429   20.2755   24.1085 H   0  0  0  0  0  0  0  0  0  0  0  0
   19.7822   20.0209   25.5920 H   0  0  0  0  0  0  0  0  0  0  0  0
   20.5949   20.6006   24.1251 H   0  0  0  0  0  0  0  0  0  0  0  0
  1  2  1  0  0  0  0
  1  3  2  0  0  0  0
  1  4  1  0  0  0  0
  4  5  1  0  0  0  0
  4  6  1  0  0  0  0
  4  7  1  0  0  0  0
  7  8  1  0  0  0  0
  7  9  2  0  0  0  0
  9 10  1  0  0  0  0
  9 11  1  0  0  0  0
 11 12  1  0  0  0  0
 11 13  1  0  0  0  0
 11 14  1  0  0  0  0
 14 15  1  0  0  0  0
 14 16  1  0  0  0  0
 14 17  1  0  0  0  0
M  END
> <VConfSearch Rank>
958

> <Conf_Id>
19

> <Delta U+W>
-0.496

> <U+W>
-49.923

> <U>
13.863

> <W>
-63.786

> <W(PB)>
-65.856

> <W(SA)>
2.070

> <Valence>
14.117

> <Coulomb>
-1.228

> <VdW>
0.974

> <VdW6>
-4.885

> <VdW12>
5.859

> <Bond>
0.094

> <Angle>
2.818

> <Pdih>
11.205

> <Idih>
0.000

> <Tether>
0.000

$$$$
VeraChem MOL file


 17 16  0  0  0  0  0  0  0  0999 V2000     
   17.3958   19.7292   21.4704 C   0  0  0  0  0  0  0  0  0  0  0  0
   16.7642   19.2994   22.4154 O   0  5  0  0  0  0  0  0  0  0  0  0
   17.2148   20.8288   20.9854 O   0  0  0  0  0  0  0  0  0  0  0  0
   18.4658   18.8392   20.8517 C   0  0  0  0  0  0  0  0  0  0  0  0
   18.3909   18.9338   19.7623 H   0  0  0  0  0  0  0  0  0  0  0  0
   18.2312   17.7971   21.1002 H   0  0  0  0  0  0  0  0  0  0  0  0
   19.8639   19.2062   21.3116 C   0  0  0  0  0  0  0  0  0  0  0  0
   20.2277   20.1737   20.9671 H   0  0  0  0  0  0  0  0  0  0  0  0
   20.6260   18.4321   22.0903 C   0  0  0  0  0  0  0  0  0  0  0  0
   20.2596   17.4670   22.4387 H   0  0  0  0  0  0  0  0  0  0  0  0
   22.0187   18.8013   22.5501 C   0  0  0  0  0  0  0  0  0  0  0  0
   22.7014   17.9579   22.3796 H   0  0  0  0  0  0  0  0  0  0  0  0
   22.4065   19.6448   21.9625 H   0  0  0  0  0  0  0  0  0  0  0  0
   22.0268   19.1750   24.0452 C   0  0  0  0  0  0  0  0  0  0  0  0
   21.6798   18.3348   24.6608 H   0  0  0  0  0  0  0  0  0  0  0  0
   23.0396   19.4424   24.3735 H   0  0  0  0  0  0  0  0  0  0  0  0
   21.3689   20.0332   24.2359 H   0  0  0  0  0  0  0  0  0  0  0  0
  1  2  1  0  0  0  0
  1  3  2  0  0  0  0
  1  4  1  0  0  0  0
  4  5  1  0  0  0  0
  4  6  1  0  0  0  0
  4  7  1  0  0  0  0
  7  8  1  0  0  0  0
  7  9  2  0  0  0  0
  9 10  1  0  0  0  0
  9 11  1  0  0  0  0
 11 12  1  0  0  0  0
 11 13  1  0  0  0  0
 11 14  1  0  0  0  0
 14 15  1  0  0  0  0
 14 16  1  0  0  0  0
 14 17  1  0  0  0  0
M  END
> <VConfSearch Rank>
959

> <Conf_Id>
7

> <Delta U+W>
-0.041

> <U+W>
-49.468

> <U>
14.121

> <W>
-63.589

> <W(PB)>
-65.660

> <W(SA)>
2.071

> <Valence>
15.230

> <Coulomb>
-1.333

> <VdW>
0.224

> <VdW6>
-4.212

> <VdW12>
4.436

> <Bond>
0.044

> <Angle>
2.230

> <Pdih>
12.956

> <Idih>
0.000

> <Tether>
0.000

$$$$
VeraChem MOL file


 17 16  0  0  0  0  0  0  0  0999 V2000     
   22.2997   19.6306   20.5957 C   0  0  0  0  0  0  0  0  0  0  0  0
   22.3763   18.5331   20.0794 O   0  5  0  0  0  0  0  0  0  0  0  0
   23.2290   20.1728   21.1610 O   0  0  0  0  0  0  0  0  0  0  0  0
   20.9738   20.3799   20.5054 C   0  0  0  0  0  0  0  0  0  0  0  0
   20.4930   20.1000   19.5608 H   0  0  0  0  0  0  0  0  0  0  0  0
   21.1978   21.4499   20.4241 H   0  0  0  0  0  0  0  0  0  0  0  0
   20.0076   20.1469   21.6582 C   0  0  0  0  0  0  0  0  0  0  0  0
   19.0678   20.6912   21.5739 H   0  0  0  0  0  0  0  0  0  0  0  0
   20.2215   19.3561   22.7164 C   0  0  0  0  0  0  0  0  0  0  0  0
   21.1521   18.8001   22.8245 H   0  0  0  0  0  0  0  0  0  0  0  0
   19.2264   19.1598   23.8385 C   0  0  0  0  0  0  0  0  0  0  0  0
   19.7330   19.2717   24.8067 H   0  0  0  0  0  0  0  0  0  0  0  0
   18.4456   19.9319   23.8004 H   0  0  0  0  0  0  0  0  0  0  0  0
   18.5708   17.7673   23.7598 C   0  0  0  0  0  0  0  0  0  0  0  0
   17.8509   17.6299   24.5771 H   0  0  0  0  0  0  0  0  0  0  0  0
   18.0357   17.6417   22.8093 H   0  0  0  0  0  0  0  0  0  0  0  0
   19.3263   16.9741   23.8341 H   0  0  0  0  0  0  0  0  0  0  0  0
  1  2  1  0  0  0  0
  1  3  2  0  0  0  0
  1  4  1  0  0  0  0
  4  5  1  0  0  0  0
  4  6  1  0  0  0  0
  4  7  1  0  0  0  0
  7  8  1  0  0  0  0
  7  9  2  0  0  0  0
  9 10  1  0  0  0  0
  9 11  1  0  0  0  0
 11 12  1  0  0  0  0
 11 13  1  0  0  0  0
 11 14  1  0  0  0  0
 14 15  1  0  0  0  0
 14 16  1  0  0  0  0
 14 17  1  0  0  0  0
M  END
> <VConfSearch Rank>
960

> <Conf_Id>
39

> <Delta U+W>
-0.422

> <U+W>
-49.849

> <U>
14.465

> <W>
-64.314

> <W(PB)>
-66.406

> <W(SA)>
2.093

> <Valence>
14.072

> <Coulomb>
-0.199

> <VdW>
0.592

> <VdW6>
-5.019

> <VdW12>
5.611

> <Bond>
0.085

> <Angle>
2.748

> <Pdih>
11.238

> <Idih>
0.001

> <Tether>
0.000

$$$$
VeraChem MOL file


 17 16  0  0  0  0  0  0  0  0999 V2000     
   17.8469   17.0604   22.0821 C   0  0  0  0  0  0  0  0  0  0  0  0
   17.6934   16.4301   23.1098 O   0  5  0  0  0  0  0  0  0  0  0  0
   17.7877   16.5642   20.9743 O   0  0  0  0  0  0  0  0  0  0  0  0
   18.1230   18.5542   22.1904 C   0  0  0  0  0  0  0  0  0  0  0  0
   17.4767   18.9580   22.9783 H   0  0  0  0  0  0  0  0  0  0  0  0
   17.8172   19.0287   21.2502 H   0  0  0  0  0  0  0  0  0  0  0  0
   19.5763   18.8551   22.5038 C   0  0  0  0  0  0  0  0  0  0  0  0
   19.9102   18.5533   23.4961 H   0  0  0  0  0  0  0  0  0  0  0  0
   20.4218   19.4439   21.6526 C   0  0  0  0  0  0  0  0  0  0  0  0
   20.0881   19.7427   20.6595 H   0  0  0  0  0  0  0  0  0  0  0  0
   21.8716   19.7398   21.9655 C   0  0  0  0  0  0  0  0  0  0  0  0
   22.1921   19.1884   22.8602 H   0  0  0  0  0  0  0  0  0  0  0  0
   22.5071   19.3952   21.1385 H   0  0  0  0  0  0  0  0  0  0  0  0
   22.0933   21.2483   22.1895 C   0  0  0  0  0  0  0  0  0  0  0  0
   21.4864   21.6110   23.0297 H   0  0  0  0  0  0  0  0  0  0  0  0
   23.1471   21.4568   22.4155 H   0  0  0  0  0  0  0  0  0  0  0  0
   21.8167   21.8220   21.2952 H   0  0  0  0  0  0  0  0  0  0  0  0
  1  2  1  0  0  0  0
  1  3  2  0  0  0  0
  1  4  1  0  0  0  0
  4  5  1  0  0  0  0
  4  6  1  0  0  0  0
  4  7  1  0  0  0  0
  7  8  1  0  0  0  0
  7  9  2  0  0  0  0
  9 10  1  0  0  0  0
  9 11  1  0  0  0  0
 11 12  1  0  0  0  0
 11 13  1  0  0  0  0
 11 14  1  0  0  0  0
 14 15  1  0  0  0  0
 14 16  1  0  0  0  0
 14 17  1  0  0  0  0
M  END
> <VConfSearch Rank>
961

> <Conf_Id>
38

> <Delta U+W>
0.000

> <U+W>
-49.427

> <U>
13.666

> <W>
-63.093

> <W(PB)>
-65.225

> <W(SA)>
2.132

> <Valence>
15.226

> <Coulomb>
-1.822

> <VdW>
0.261

> <VdW6>
-4.165

> <VdW12>
4.426

> <Bond>
0.044

> <Angle>
2.229

> <Pdih>
12.953

> <Idih>
0.000

> <Tether>
0.000

$$$$
VeraChem MOL file


 17 16  0  0  0  0  0  0  0  0999 V2000     
   21.6365   16.5456   21.6548 C   0  0  0  0  0  0  0  0  0  0  0  0
   21.8715   16.4133   20.4699 O   0  5  0  0  0  0  0  0  0  0  0  0
   21.3381   15.6234   22.3878 O   0  0  0  0  0  0  0  0  0  0  0  0
   21.7256   17.9416   22.2572 C   0  0  0  0  0  0  0  0  0  0  0  0
   22.3868   18.5466   21.6251 H   0  0  0  0  0  0  0  0  0  0  0  0
   22.2104   17.8536   23.2363 H   0  0  0  0  0  0  0  0  0  0  0  0
   20.3662   18.5977   22.4063 C   0  0  0  0  0  0  0  0  0  0  0  0
   19.7080   18.1413   23.1450 H   0  0  0  0  0  0  0  0  0  0  0  0
   19.9628   19.6588   21.7009 C   0  0  0  0  0  0  0  0  0  0  0  0
   20.6203   20.1128   20.9601 H   0  0  0  0  0  0  0  0  0  0  0  0
   18.6054   20.3093   21.8481 C   0  0  0  0  0  0  0  0  0  0  0  0
   18.1560   20.4577   20.8568 H   0  0  0  0  0  0  0  0  0  0  0  0
   17.9240   19.6543   22.4083 H   0  0  0  0  0  0  0  0  0  0  0  0
   18.7169   21.6663   22.5700 C   0  0  0  0  0  0  0  0  0  0  0  0
   19.3632   22.3556   22.0108 H   0  0  0  0  0  0  0  0  0  0  0  0
   17.7290   22.1337   22.6732 H   0  0  0  0  0  0  0  0  0  0  0  0
   19.1406   21.5396   23.5750 H   0  0  0  0  0  0  0  0  0  0  0  0
  1  2  1  0  0  0  0
  1  3  2  0  0  0  0
  1  4  1  0  0  0  0
  4  5  1  0  0  0  0
  4  6  1  0  0  0  0
  4  7  1  0  0  0  0
  7  8  1  0  0  0  0
  7  9  2  0  0  0  0
  9 10  1  0  0  0  0
  9 11  1  0  0  0  0
 11 12  1  0  0  0  0
 11 13  1  0  0  0  0
 11 14  1  0  0  0  0
 14 15  1  0  0  0  0
 14 16  1  0  0  0  0
 14 17  1  0  0  0  0
M  END
> <VConfSearch Rank>
962

> <Conf_Id>
35

> <Delta U+W>
-0.102

> <U+W>
-49.529

> <U>
13.666

> <W>
-63.195

> <W(PB)>
-65.299

> <W(SA)>
2.103

> <Valence>
15.226

> <Coulomb>
-1.822

> <VdW>
0.261

> <VdW6>
-4.165

> <VdW12>
4.426

> <Bond>
0.044

> <Angle>
2.229

> <Pdih>
12.953

> <Idih>
0.000

> <Tether>
0.000

$$$$
VeraChem MOL file


 17 16  0  0  0  0  0  0  0  0999 V2000     
   20.2970   18.2429   25.0261 C   0  0  0  0  0  0  0  0  0  0  0  0
   19.4003   17.4512   25.2413 O   0  5  0  0  0  0  0  0  0  0  0  0
   21.4387   18.0863   25.4120 O   0  0  0  0  0  0  0  0  0  0  0  0
   19.9677   19.5037   24.2378 C   0  0  0  0  0  0  0  0  0  0  0  0
   20.7076   20.2715   24.4941 H   0  0  0  0  0  0  0  0  0  0  0  0
   18.9937   19.8695   24.5830 H   0  0  0  0  0  0  0  0  0  0  0  0
   19.9312   19.2595   22.7410 C   0  0  0  0  0  0  0  0  0  0  0  0
   19.1127   18.6259   22.4039 H   0  0  0  0  0  0  0  0  0  0  0  0
   20.8233   19.7645   21.8797 C   0  0  0  0  0  0  0  0  0  0  0  0
   21.6318   20.3911   22.2547 H   0  0  0  0  0  0  0  0  0  0  0  0
   20.8489   19.5584   20.3745 C   0  0  0  0  0  0  0  0  0  0  0  0
   20.8093   20.5381   19.8796 H   0  0  0  0  0  0  0  0  0  0  0  0
   21.8169   19.1235   20.0909 H   0  0  0  0  0  0  0  0  0  0  0  0
   19.7157   18.6678   19.8189 C   0  0  0  0  0  0  0  0  0  0  0  0
   18.7309   19.1013   20.0374 H   0  0  0  0  0  0  0  0  0  0  0  0
   19.8043   18.5672   18.7294 H   0  0  0  0  0  0  0  0  0  0  0  0
   19.7571   17.6606   20.2539 H   0  0  0  0  0  0  0  0  0  0  0  0
  1  2  1  0  0  0  0
  1  3  2  0  0  0  0
  1  4  1  0  0  0  0
  4  5  1  0  0  0  0
  4  6  1  0  0  0  0
  4  7  1  0  0  0  0
  7  8  1  0  0  0  0
  7  9  2  0  0  0  0
  9 10  1  0  0  0  0
  9 11  1  0  0  0  0
 11 12  1  0  0  0  0
 11 13  1  0  0  0  0
 11 14  1  0  0  0  0
 14 15  1  0  0  0  0
 14 16  1  0  0  0  0
 14 17  1  0  0  0  0
M  END
> <VConfSearch Rank>
963

> <Conf_Id>
19

> <Delta U+W>
-0.496

> <U+W>
-49.923

> <U>
13.863

> <W>
-63.786

> <W(PB)>
-65.856

> <W(SA)>
2.070

> <Valence>
14.117

> <Coulomb>
-1.228

> <VdW>
0.974

> <VdW6>
-4.885

> <VdW12>
5.859

> <Bond>
0.094

> <Angle>
2.818

> <Pdih>
11.205

> <Idih>
0.000

> <Tether>
0.000

$$$$
VeraChem MOL file


 17 16  0  0  0  0  0  0  0  0999 V2000     
   18.6739   21.5734   22.5625 C   0  0  0  0  0  0  0  0  0  0  0  0
   18.8934   22.1517   21.5165 O   0  5  0  0  0  0  0  0  0  0  0  0
   17.5696   21.4844   23.0622 O   0  0  0  0  0  0  0  0  0  0  0  0
   19.8466   20.9338   23.2943 C   0  0  0  0  0  0  0  0  0  0  0  0
   19.7285   21.1440   24.3636 H   0  0  0  0  0  0  0  0  0  0  0  0
   20.7674   21.4327   22.9690 H   0  0  0  0  0  0  0  0  0  0  0  0
   19.9285   19.4369   23.0636 C   0  0  0  0  0  0  0  0  0  0  0  0
   19.1178   18.8541   23.4999 H   0  0  0  0  0  0  0  0  0  0  0  0
   20.9027   18.8353   22.3742 C   0  0  0  0  0  0  0  0  0  0  0  0
   21.7103   19.4192   21.9338 H   0  0  0  0  0  0  0  0  0  0  0  0
   20.9810   17.3428   22.1428 C   0  0  0  0  0  0  0  0  0  0  0  0
   21.9925   16.9837   22.3763 H   0  0  0  0  0  0  0  0  0  0  0  0
   20.2946   16.8127   22.8174 H   0  0  0  0  0  0  0  0  0  0  0  0
   20.6347   16.9902   20.6831 C   0  0  0  0  0  0  0  0  0  0  0  0
   21.3306   17.4766   19.9870 H   0  0  0  0  0  0  0  0  0  0  0  0
   20.6926   15.9061   20.5209 H   0  0  0  0  0  0  0  0  0  0  0  0
   19.6169   17.3184   20.4339 H   0  0  0  0  0  0  0  0  0  0  0  0
  1  2  1  0  0  0  0
  1  3  2  0  0  0  0
  1  4  1  0  0  0  0
  4  5  1  0  0  0  0
  4  6  1  0  0  0  0
  4  7  1  0  0  0  0
  7  8  1  0  0  0  0
  7  9  2  0  0  0  0
  9 10  1  0  0  0  0
  9 11  1  0  0  0  0
 11 12  1  0  0  0  0
 11 13  1  0  0  0  0
 11 14  1  0  0  0  0
 14 15  1  0  0  0  0
 14 16  1  0  0  0  0
 14 17  1  0  0  0  0
M  END
> <VConfSearch Rank>
964

> <Conf_Id>
7

> <Delta U+W>
-0.041

> <U+W>
-49.468

> <U>
14.121

> <W>
-63.589

> <W(PB)>
-65.660

> <W(SA)>
2.071

> <Valence>
15.230

> <Coulomb>
-1.333

> <VdW>
0.224

> <VdW6>
-4.212

> <VdW12>
4.436

> <Bond>
0.044

> <Angle>
2.230

> <Pdih>
12.956

> <Idih>
0.000

> <Tether>
0.000

$$$$
VeraChem MOL file


 17 16  0  0  0  0  0  0  0  0999 V2000     
   20.4051   17.0372   20.6683 C   0  0  0  0  0  0  0  0  0  0  0  0
   19.3338   16.4922   20.8481 O   0  5  0  0  0  0  0  0  0  0  0  0
   21.4752   16.4849   20.8330 O   0  0  0  0  0  0  0  0  0  0  0  0
   20.4068   18.4836   20.1832 C   0  0  0  0  0  0  0  0  0  0  0  0
   19.5200   18.6288   19.5553 H   0  0  0  0  0  0  0  0  0  0  0  0
   21.2701   18.6143   19.5203 H   0  0  0  0  0  0  0  0  0  0  0  0
   20.4374   19.5431   21.2757 C   0  0  0  0  0  0  0  0  0  0  0  0
   20.4382   20.5683   20.9076 H   0  0  0  0  0  0  0  0  0  0  0  0
   20.4600   19.3133   22.5939 C   0  0  0  0  0  0  0  0  0  0  0  0
   20.4587   18.2978   22.9883 H   0  0  0  0  0  0  0  0  0  0  0  0
   20.4914   20.4048   23.6406 C   0  0  0  0  0  0  0  0  0  0  0  0
   21.2724   20.1854   24.3812 H   0  0  0  0  0  0  0  0  0  0  0  0
   20.7525   21.3692   23.1837 H   0  0  0  0  0  0  0  0  0  0  0  0
   19.1298   20.5294   24.3516 C   0  0  0  0  0  0  0  0  0  0  0  0
   19.1588   21.3217   25.1108 H   0  0  0  0  0  0  0  0  0  0  0  0
   18.3361   20.7742   23.6334 H   0  0  0  0  0  0  0  0  0  0  0  0
   18.8611   19.5889   24.8504 H   0  0  0  0  0  0  0  0  0  0  0  0
  1  2  1  0  0  0  0
  1  3  2  0  0  0  0
  1  4  1  0  0  0  0
  4  5  1  0  0  0  0
  4  6  1  0  0  0  0
  4  7  1  0  0  0  0
  7  8  1  0  0  0  0
  7  9  2  0  0  0  0
  9 10  1  0  0  0  0
  9 11  1  0  0  0  0
 11 12  1  0  0  0  0
 11 13  1  0  0  0  0
 11 14  1  0  0  0  0
 14 15  1  0  0  0  0
 14 16  1  0  0  0  0
 14 17  1  0  0  0  0
M  END
> <VConfSearch Rank>
965

> <Conf_Id>
39

> <Delta U+W>
-0.422

> <U+W>
-49.849

> <U>
14.465

> <W>
-64.314

> <W(PB)>
-66.406

> <W(SA)>
2.093

> <Valence>
14.072

> <Coulomb>
-0.199

> <VdW>
0.592

> <VdW6>
-5.019

> <VdW12>
5.611

> <Bond>
0.085

> <Angle>
2.748

> <Pdih>
11.238

> <Idih>
0.001

> <Tether>
0.000

$$$$
VeraChem MOL file


 17 16  0  0  0  0  0  0  0  0999 V2000     
   18.6381   18.5975   19.3858 C   0  0  0  0  0  0  0  0  0  0  0  0
   18.1430   17.4912   19.2969 O   0  5  0  0  0  0  0  0  0  0  0  0
   19.2188   19.1493   18.4720 O   0  0  0  0  0  0  0  0  0  0  0  0
   18.5183   19.3330   20.7142 C   0  0  0  0  0  0  0  0  0  0  0  0
   17.5070   19.1628   21.1012 H   0  0  0  0  0  0  0  0  0  0  0  0
   18.6110   20.4084   20.5205 H   0  0  0  0  0  0  0  0  0  0  0  0
   19.5483   18.8725   21.7280 C   0  0  0  0  0  0  0  0  0  0  0  0
   19.4197   17.8534   22.0916 H   0  0  0  0  0  0  0  0  0  0  0  0
   20.5584   19.6285   22.1690 C   0  0  0  0  0  0  0  0  0  0  0  0
   20.6881   20.6464   21.8028 H   0  0  0  0  0  0  0  0  0  0  0  0
   21.5867   19.1663   23.1771 C   0  0  0  0  0  0  0  0  0  0  0  0
   21.5440   18.0750   23.2970 H   0  0  0  0  0  0  0  0  0  0  0  0
   22.5954   19.4042   22.8134 H   0  0  0  0  0  0  0  0  0  0  0  0
   21.3620   19.8388   24.5454 C   0  0  0  0  0  0  0  0  0  0  0  0
   20.3678   19.5938   24.9417 H   0  0  0  0  0  0  0  0  0  0  0  0
   22.1115   19.5001   25.2725 H   0  0  0  0  0  0  0  0  0  0  0  0
   21.4375   20.9310   24.4622 H   0  0  0  0  0  0  0  0  0  0  0  0
  1  2  1  0  0  0  0
  1  3  2  0  0  0  0
  1  4  1  0  0  0  0
  4  5  1  0  0  0  0
  4  6  1  0  0  0  0
  4  7  1  0  0  0  0
  7  8  1  0  0  0  0
  7  9  2  0  0  0  0
  9 10  1  0  0  0  0
  9 11  1  0  0  0  0
 11 12  1  0  0  0  0
 11 13  1  0  0  0  0
 11 14  1  0  0  0  0
 14 15  1  0  0  0  0
 14 16  1  0  0  0  0
 14 17  1  0  0  0  0
M  END
> <VConfSearch Rank>
966

> <Conf_Id>
38

> <Delta U+W>
0.000

> <U+W>
-49.427

> <U>
13.666

> <W>
-63.093

> <W(PB)>
-65.225

> <W(SA)>
2.132

> <Valence>
15.226

> <Coulomb>
-1.822

> <VdW>
0.261

> <VdW6>
-4.165

> <VdW12>
4.426

> <Bond>
0.044

> <Angle>
2.229

> <Pdih>
12.953

> <Idih>
0.000

> <Tether>
0.000

$$$$
VeraChem MOL file


 17 16  0  0  0  0  0  0  0  0999 V2000     
   18.4026   18.0249   24.4795 C   0  0  0  0  0  0  0  0  0  0  0  0
   17.5198   18.8004   24.7895 O   0  5  0  0  0  0  0  0  0  0  0  0
   19.0142   17.3474   25.2820 O   0  0  0  0  0  0  0  0  0  0  0  0
   18.7598   17.8890   23.0052 C   0  0  0  0  0  0  0  0  0  0  0  0
   17.8921   18.2014   22.4118 H   0  0  0  0  0  0  0  0  0  0  0  0
   18.9244   16.8255   22.7972 H   0  0  0  0  0  0  0  0  0  0  0  0
   19.9920   18.6899   22.6299 C   0  0  0  0  0  0  0  0  0  0  0  0
   20.9275   18.3328   23.0596 H   0  0  0  0  0  0  0  0  0  0  0  0
   19.9762   19.7642   21.8349 C   0  0  0  0  0  0  0  0  0  0  0  0
   19.0400   20.1226   21.4082 H   0  0  0  0  0  0  0  0  0  0  0  0
   21.2053   20.5639   21.4649 C   0  0  0  0  0  0  0  0  0  0  0  0
   21.0084   21.6348   21.6101 H   0  0  0  0  0  0  0  0  0  0  0  0
   22.0451   20.3055   22.1247 H   0  0  0  0  0  0  0  0  0  0  0  0
   21.6109   20.3102   19.9999 C   0  0  0  0  0  0  0  0  0  0  0  0
   20.8024   20.5965   19.3145 H   0  0  0  0  0  0  0  0  0  0  0  0
   22.5028   20.8937   19.7371 H   0  0  0  0  0  0  0  0  0  0  0  0
   21.8380   19.2484   19.8366 H   0  0  0  0  0  0  0  0  0  0  0  0
  1  2  1  0  0  0  0
  1  3  2  0  0  0  0
  1  4  1  0  0  0  0
  4  5  1  0  0  0  0
  4  6  1  0  0  0  0
  4  7  1  0  0  0  0
  7  8  1  0  0  0  0
  7  9  2  0  0  0  0
  9 10  1  0  0  0  0
  9 11  1  0  0  0  0
 11 12  1  0  0  0  0
 11 13  1  0  0  0  0
 11 14  1  0  0  0  0
 14 15  1  0  0  0  0
 14 16  1  0  0  0  0
 14 17  1  0  0  0  0
M  END
> <VConfSearch Rank>
967

> <Conf_Id>
35

> <Delta U+W>
-0.102

> <U+W>
-49.529

> <U>
13.666

> <W>
-63.195

> <W(PB)>
-65.299

> <W(SA)>
2.103

> <Valence>
15.226

> <Coulomb>
-1.822

> <VdW>
0.261

> <VdW6>
-4.165

> <VdW12>
4.426

> <Bond>
0.044

> <Angle>
2.229

> <Pdih>
12.953

> <Idih>
0.000

> <Tether>
0.000

$$$$
VeraChem MOL file


 17 16  0  0  0  0  0  0  0  0999 V2000     
   18.3584   17.0836   23.2842 C   0  0  0  0  0  0  0  0  0  0  0  0
   17.2205   17.3548   22.9548 O   0  5  0  0  0  0  0  0  0  0  0  0
   18.8283   15.9648   23.2188 O   0  0  0  0  0  0  0  0  0  0  0  0
   19.2387   18.2066   23.8167 C   0  0  0  0  0  0  0  0  0  0  0  0
   20.0193   17.7616   24.4455 H   0  0  0  0  0  0  0  0  0  0  0  0
   18.6215   18.8351   24.4691 H   0  0  0  0  0  0  0  0  0  0  0  0
   19.8444   19.0452   22.7071 C   0  0  0  0  0  0  0  0  0  0  0  0
   19.1271   19.6398   22.1439 H   0  0  0  0  0  0  0  0  0  0  0  0
   21.1512   19.0684   22.4165 C   0  0  0  0  0  0  0  0  0  0  0  0
   21.8386   18.4564   22.9995 H   0  0  0  0  0  0  0  0  0  0  0  0
   21.8230   19.8789   21.3209 C   0  0  0  0  0  0  0  0  0  0  0  0
   22.5897   20.5228   21.7727 H   0  0  0  0  0  0  0  0  0  0  0  0
   22.3668   19.1956   20.6547 H   0  0  0  0  0  0  0  0  0  0  0  0
   20.8681   20.7507   20.4759 C   0  0  0  0  0  0  0  0  0  0  0  0
   20.3457   21.4848   21.1033 H   0  0  0  0  0  0  0  0  0  0  0  0
   21.4274   21.3018   19.7088 H   0  0  0  0  0  0  0  0  0  0  0  0
   20.1180   20.1323   19.9656 H   0  0  0  0  0  0  0  0  0  0  0  0
  1  2  1  0  0  0  0
  1  3  2  0  0  0  0
  1  4  1  0  0  0  0
  4  5  1  0  0  0  0
  4  6  1  0  0  0  0
  4  7  1  0  0  0  0
  7  8  1  0  0  0  0
  7  9  2  0  0  0  0
  9 10  1  0  0  0  0
  9 11  1  0  0  0  0
 11 12  1  0  0  0  0
 11 13  1  0  0  0  0
 11 14  1  0  0  0  0
 14 15  1  0  0  0  0
 14 16  1  0  0  0  0
 14 17  1  0  0  0  0
M  END
> <VConfSearch Rank>
968

> <Conf_Id>
19

> <Delta U+W>
-0.496

> <U+W>
-49.923

> <U>
13.863

> <W>
-63.786

> <W(PB)>
-65.856

> <W(SA)>
2.070

> <Valence>
14.117

> <Coulomb>
-1.228

> <VdW>
0.974

> <VdW6>
-4.885

> <VdW12>
5.859

> <Bond>
0.094

> <Angle>
2.818

> <Pdih>
11.205

> <Idih>
0.000

> <Tether>
0.000

$$$$
VeraChem MOL file


 17 16  0  0  0  0  0  0  0  0999 V2000     
   18.5235   19.0505   19.7728 C   0  0  0  0  0  0  0  0  0  0  0  0
   17.9480   17.9832   19.8536 O   0  5  0  0  0  0  0  0  0  0  0  0
   17.9686   20.0932   19.4865 O   0  0  0  0  0  0  0  0  0  0  0  0
   20.0237   19.0839   20.0335 C   0  0  0  0  0  0  0  0  0  0  0  0
   20.4793   19.7398   19.2828 H   0  0  0  0  0  0  0  0  0  0  0  0
   20.4239   18.0768   19.8651 H   0  0  0  0  0  0  0  0  0  0  0  0
   20.3601   19.5762   21.4283 C   0  0  0  0  0  0  0  0  0  0  0  0
   20.1311   20.6242   21.6193 H   0  0  0  0  0  0  0  0  0  0  0  0
   20.8922   18.8118   22.3868 C   0  0  0  0  0  0  0  0  0  0  0  0
   21.1161   17.7626   22.1968 H   0  0  0  0  0  0  0  0  0  0  0  0
   21.2241   19.3039   23.7778 C   0  0  0  0  0  0  0  0  0  0  0  0
   22.2415   18.9912   24.0490 H   0  0  0  0  0  0  0  0  0  0  0  0
   21.2125   20.4021   23.8099 H   0  0  0  0  0  0  0  0  0  0  0  0
   20.2240   18.7531   24.8129 C   0  0  0  0  0  0  0  0  0  0  0  0
   20.2426   17.6555   24.8299 H   0  0  0  0  0  0  0  0  0  0  0  0
   20.4692   19.1137   25.8204 H   0  0  0  0  0  0  0  0  0  0  0  0
   19.2011   19.0741   24.5755 H   0  0  0  0  0  0  0  0  0  0  0  0
  1  2  1  0  0  0  0
  1  3  2  0  0  0  0
  1  4  1  0  0  0  0
  4  5  1  0  0  0  0
  4  6  1  0  0  0  0
  4  7  1  0  0  0  0
  7  8  1  0  0  0  0
  7  9  2  0  0  0  0
  9 10  1  0  0  0  0
  9 11  1  0  0  0  0
 11 12  1  0  0  0  0
 11 13  1  0  0  0  0
 11 14  1  0  0  0  0
 14 15  1  0  0  0  0
 14 16  1  0  0  0  0
 14 17  1  0  0  0  0
M  END
> <VConfSearch Rank>
969

> <Conf_Id>
7

> <Delta U+W>
-0.041

> <U+W>
-49.468

> <U>
14.121

> <W>
-63.589

> <W(PB)>
-65.660

> <W(SA)>
2.071

> <Valence>
15.230

> <Coulomb>
-1.333

> <VdW>
0.224

> <VdW6>
-4.212

> <VdW12>
4.436

> <Bond>
0.044

> <Angle>
2.230

> <Pdih>
12.956

> <Idih>
0.000

> <Tether>
0.000

$$$$
VeraChem MOL file


 17 16  0  0  0  0  0  0  0  0999 V2000     
   18.2709   17.2425   22.0444 C   0  0  0  0  0  0  0  0  0  0  0  0
   18.4082   16.6864   23.1162 O   0  5  0  0  0  0  0  0  0  0  0  0
   18.3445   16.6682   20.9758 O   0  0  0  0  0  0  0  0  0  0  0  0
   17.9619   18.7365   22.0406 C   0  0  0  0  0  0  0  0  0  0  0  0
   17.3758   18.9610   22.9395 H   0  0  0  0  0  0  0  0  0  0  0  0
   17.3003   18.9404   21.1907 H   0  0  0  0  0  0  0  0  0  0  0  0
   19.1720   19.6577   21.9776 C   0  0  0  0  0  0  0  0  0  0  0  0
   18.9290   20.7195   21.9759 H   0  0  0  0  0  0  0  0  0  0  0  0
   20.4526   19.2719   21.9288 C   0  0  0  0  0  0  0  0  0  0  0  0
   20.7229   18.2166   21.9303 H   0  0  0  0  0  0  0  0  0  0  0  0
   21.6211   20.2302   21.8656 C   0  0  0  0  0  0  0  0  0  0  0  0
   22.3127   19.9193   21.0709 H   0  0  0  0  0  0  0  0  0  0  0  0
   21.2769   21.2408   21.6061 H   0  0  0  0  0  0  0  0  0  0  0  0
   22.3720   20.2771   23.2106 C   0  0  0  0  0  0  0  0  0  0  0  0
   23.2196   20.9728   23.1585 H   0  0  0  0  0  0  0  0  0  0  0  0
   21.7061   20.6107   24.0173 H   0  0  0  0  0  0  0  0  0  0  0  0
   22.7609   19.2854   23.4765 H   0  0  0  0  0  0  0  0  0  0  0  0
  1  2  1  0  0  0  0
  1  3  2  0  0  0  0
  1  4  1  0  0  0  0
  4  5  1  0  0  0  0
  4  6  1  0  0  0  0
  4  7  1  0  0  0  0
  7  8  1  0  0  0  0
  7  9  2  0  0  0  0
  9 10  1  0  0  0  0
  9 11  1  0  0  0  0
 11 12  1  0  0  0  0
 11 13  1  0  0  0  0
 11 14  1  0  0  0  0
 14 15  1  0  0  0  0
 14 16  1  0  0  0  0
 14 17  1  0  0  0  0
M  END
> <VConfSearch Rank>
970

> <Conf_Id>
39

> <Delta U+W>
-0.422

> <U+W>
-49.849

> <U>
14.465

> <W>
-64.314

> <W(PB)>
-66.406

> <W(SA)>
2.093

> <Valence>
14.072

> <Coulomb>
-0.199

> <VdW>
0.592

> <VdW6>
-5.019

> <VdW12>
5.611

> <Bond>
0.085

> <Angle>
2.748

> <Pdih>
11.238

> <Idih>
0.001

> <Tether>
0.000

$$$$
VeraChem MOL file


 17 16  0  0  0  0  0  0  0  0999 V2000     
   20.8992   19.7670   19.0806 C   0  0  0  0  0  0  0  0  0  0  0  0
   19.9837   19.8316   18.2840 O   0  5  0  0  0  0  0  0  0  0  0  0
   21.9533   19.2084   18.8489 O   0  0  0  0  0  0  0  0  0  0  0  0
   20.7154   20.4273   20.4406 C   0  0  0  0  0  0  0  0  0  0  0  0
   20.2062   21.3849   20.2820 H   0  0  0  0  0  0  0  0  0  0  0  0
   21.7076   20.6553   20.8483 H   0  0  0  0  0  0  0  0  0  0  0  0
   19.9177   19.5662   21.4013 C   0  0  0  0  0  0  0  0  0  0  0  0
   18.8684   19.4291   21.1415 H   0  0  0  0  0  0  0  0  0  0  0  0
   20.4260   18.9954   22.4977 C   0  0  0  0  0  0  0  0  0  0  0  0
   21.4760   19.1305   22.7554 H   0  0  0  0  0  0  0  0  0  0  0  0
   19.6299   18.1340   23.4525 C   0  0  0  0  0  0  0  0  0  0  0  0
   18.6745   17.8380   22.9977 H   0  0  0  0  0  0  0  0  0  0  0  0
   20.1802   17.2066   23.6617 H   0  0  0  0  0  0  0  0  0  0  0  0
   19.3568   18.8785   24.7739 C   0  0  0  0  0  0  0  0  0  0  0  0
   18.7845   19.7978   24.5923 H   0  0  0  0  0  0  0  0  0  0  0  0
   18.7795   18.2483   25.4628 H   0  0  0  0  0  0  0  0  0  0  0  0
   20.2968   19.1533   25.2702 H   0  0  0  0  0  0  0  0  0  0  0  0
  1  2  1  0  0  0  0
  1  3  2  0  0  0  0
  1  4  1  0  0  0  0
  4  5  1  0  0  0  0
  4  6  1  0  0  0  0
  4  7  1  0  0  0  0
  7  8  1  0  0  0  0
  7  9  2  0  0  0  0
  9 10  1  0  0  0  0
  9 11  1  0  0  0  0
 11 12  1  0  0  0  0
 11 13  1  0  0  0  0
 11 14  1  0  0  0  0
 14 15  1  0  0  0  0
 14 16  1  0  0  0  0
 14 17  1  0  0  0  0
M  END
> <VConfSearch Rank>
971

> <Conf_Id>
38

> <Delta U+W>
0.000

> <U+W>
-49.427

> <U>
13.666

> <W>
-63.093

> <W(PB)>
-65.225

> <W(SA)>
2.132

> <Valence>
15.226

> <Coulomb>
-1.822

> <VdW>
0.261

> <VdW6>
-4.165

> <VdW12>
4.426

> <Bond>
0.044

> <Angle>
2.229

> <Pdih>
12.953

> <Idih>
0.000

> <Tether>
0.000

$$$$
VeraChem MOL file


 17 16  0  0  0  0  0  0  0  0999 V2000     
   19.2525   17.2482   24.3949 C   0  0  0  0  0  0  0  0  0  0  0  0
   18.4627   17.7950   25.1392 O   0  5  0  0  0  0  0  0  0  0  0  0
   20.1096   16.4751   24.7752 O   0  0  0  0  0  0  0  0  0  0  0  0
   19.1614   17.5420   22.9032 C   0  0  0  0  0  0  0  0  0  0  0  0
   18.1414   17.8782   22.6814 H   0  0  0  0  0  0  0  0  0  0  0  0
   19.3119   16.5984   22.3662 H   0  0  0  0  0  0  0  0  0  0  0  0
   20.1827   18.5678   22.4499 C   0  0  0  0  0  0  0  0  0  0  0  0
   21.2209   18.2396   22.4900 H   0  0  0  0  0  0  0  0  0  0  0  0
   19.8751   19.7977   22.0269 C   0  0  0  0  0  0  0  0  0  0  0  0
   18.8369   20.1263   21.9900 H   0  0  0  0  0  0  0  0  0  0  0  0
   20.8950   20.8206   21.5790 C   0  0  0  0  0  0  0  0  0  0  0  0
   20.6947   21.7830   22.0690 H   0  0  0  0  0  0  0  0  0  0  0  0
   21.9053   20.5154   21.8846 H   0  0  0  0  0  0  0  0  0  0  0  0
   20.8590   21.0056   20.0494 C   0  0  0  0  0  0  0  0  0  0  0  0
   19.8695   21.3482   19.7195 H   0  0  0  0  0  0  0  0  0  0  0  0
   21.6007   21.7495   19.7305 H   0  0  0  0  0  0  0  0  0  0  0  0
   21.0822   20.0605   19.5370 H   0  0  0  0  0  0  0  0  0  0  0  0
  1  2  1  0  0  0  0
  1  3  2  0  0  0  0
  1  4  1  0  0  0  0
  4  5  1  0  0  0  0
  4  6  1  0  0  0  0
  4  7  1  0  0  0  0
  7  8  1  0  0  0  0
  7  9  2  0  0  0  0
  9 10  1  0  0  0  0
  9 11  1  0  0  0  0
 11 12  1  0  0  0  0
 11 13  1  0  0  0  0
 11 14  1  0  0  0  0
 14 15  1  0  0  0  0
 14 16  1  0  0  0  0
 14 17  1  0  0  0  0
M  END
> <VConfSearch Rank>
972

> <Conf_Id>
35

> <Delta U+W>
-0.102

> <U+W>
-49.529

> <U>
13.666

> <W>
-63.195

> <W(PB)>
-65.299

> <W(SA)>
2.103

> <Valence>
15.226

> <Coulomb>
-1.822

> <VdW>
0.261

> <VdW6>
-4.165

> <VdW12>
4.426

> <Bond>
0.044

> <Angle>
2.229

> <Pdih>
12.953

> <Idih>
0.000

> <Tether>
0.000

$$$$
VeraChem MOL file


 17 16  0  0  0  0  0  0  0  0999 V2000     
   17.6921   20.4763   21.5671 C   0  0  0  0  0  0  0  0  0  0  0  0
   16.8724   20.2570   22.4372 O   0  5  0  0  0  0  0  0  0  0  0  0
   17.8934   21.5782   21.0959 O   0  0  0  0  0  0  0  0  0  0  0  0
   18.5035   19.3032   21.0330 C   0  0  0  0  0  0  0  0  0  0  0  0
   18.8471   19.5557   20.0227 H   0  0  0  0  0  0  0  0  0  0  0  0
   17.8281   18.4453   20.9366 H   0  0  0  0  0  0  0  0  0  0  0  0
   19.6715   18.9475   21.9333 C   0  0  0  0  0  0  0  0  0  0  0  0
   19.3902   18.5369   22.9015 H   0  0  0  0  0  0  0  0  0  0  0  0
   20.9554   19.1189   21.5942 C   0  0  0  0  0  0  0  0  0  0  0  0
   21.1984   19.5370   20.6178 H   0  0  0  0  0  0  0  0  0  0  0  0
   22.1705   18.7893   22.4448 C   0  0  0  0  0  0  0  0  0  0  0  0
   22.8095   18.0843   21.8960 H   0  0  0  0  0  0  0  0  0  0  0  0
   22.7744   19.6982   22.5708 H   0  0  0  0  0  0  0  0  0  0  0  0
   21.8518   18.2007   23.8369 C   0  0  0  0  0  0  0  0  0  0  0  0
   21.2937   17.2594   23.7483 H   0  0  0  0  0  0  0  0  0  0  0  0
   22.7781   17.9916   24.3875 H   0  0  0  0  0  0  0  0  0  0  0  0
   21.2567   18.9035   24.4348 H   0  0  0  0  0  0  0  0  0  0  0  0
  1  2  1  0  0  0  0
  1  3  2  0  0  0  0
  1  4  1  0  0  0  0
  4  5  1  0  0  0  0
  4  6  1  0  0  0  0
  4  7  1  0  0  0  0
  7  8  1  0  0  0  0
  7  9  2  0  0  0  0
  9 10  1  0  0  0  0
  9 11  1  0  0  0  0
 11 12  1  0  0  0  0
 11 13  1  0  0  0  0
 11 14  1  0  0  0  0
 14 15  1  0  0  0  0
 14 16  1  0  0  0  0
 14 17  1  0  0  0  0
M  END
> <VConfSearch Rank>
973

> <Conf_Id>
19

> <Delta U+W>
-0.496

> <U+W>
-49.923

> <U>
13.863

> <W>
-63.786

> <W(PB)>
-65.856

> <W(SA)>
2.070

> <Valence>
14.117

> <Coulomb>
-1.228

> <VdW>
0.974

> <VdW6>
-4.885

> <VdW12>
5.859

> <Bond>
0.094

> <Angle>
2.818

> <Pdih>
11.205

> <Idih>
0.000

> <Tether>
0.000

$$$$
VeraChem MOL file


 17 16  0  0  0  0  0  0  0  0999 V2000     
   17.5171   19.0535   23.4949 C   0  0  0  0  0  0  0  0  0  0  0  0
   17.7835   19.3723   24.6369 O   0  5  0  0  0  0  0  0  0  0  0  0
   16.6031   19.5387   22.8576 O   0  0  0  0  0  0  0  0  0  0  0  0
   18.3668   17.9799   22.8277 C   0  0  0  0  0  0  0  0  0  0  0  0
   17.6928   17.3154   22.2747 H   0  0  0  0  0  0  0  0  0  0  0  0
   18.8379   17.3774   23.6136 H   0  0  0  0  0  0  0  0  0  0  0  0
   19.4083   18.5622   21.8912 C   0  0  0  0  0  0  0  0  0  0  0  0
   19.0126   19.0450   20.9982 H   0  0  0  0  0  0  0  0  0  0  0  0
   20.7258   18.5158   22.1109 C   0  0  0  0  0  0  0  0  0  0  0  0
   21.1206   18.0374   23.0066 H   0  0  0  0  0  0  0  0  0  0  0  0
   21.7625   19.0997   21.1773 C   0  0  0  0  0  0  0  0  0  0  0  0
   22.5563   18.3623   20.9967 H   0  0  0  0  0  0  0  0  0  0  0  0
   21.3150   19.3271   20.1999 H   0  0  0  0  0  0  0  0  0  0  0  0
   22.3780   20.3834   21.7672 C   0  0  0  0  0  0  0  0  0  0  0  0
   22.8672   20.1774   22.7283 H   0  0  0  0  0  0  0  0  0  0  0  0
   23.1292   20.8031   21.0856 H   0  0  0  0  0  0  0  0  0  0  0  0
   21.6050   21.1454   21.9336 H   0  0  0  0  0  0  0  0  0  0  0  0
  1  2  1  0  0  0  0
  1  3  2  0  0  0  0
  1  4  1  0  0  0  0
  4  5  1  0  0  0  0
  4  6  1  0  0  0  0
  4  7  1  0  0  0  0
  7  8  1  0  0  0  0
  7  9  2  0  0  0  0
  9 10  1  0  0  0  0
  9 11  1  0  0  0  0
 11 12  1  0  0  0  0
 11 13  1  0  0  0  0
 11 14  1  0  0  0  0
 14 15  1  0  0  0  0
 14 16  1  0  0  0  0
 14 17  1  0  0  0  0
M  END
> <VConfSearch Rank>
974

> <Conf_Id>
7

> <Delta U+W>
-0.041

> <U+W>
-49.468

> <U>
14.121

> <W>
-63.589

> <W(PB)>
-65.660

> <W(SA)>
2.071

> <Valence>
15.230

> <Coulomb>
-1.333

> <VdW>
0.224

> <VdW6>
-4.212

> <VdW12>
4.436

> <Bond>
0.044

> <Angle>
2.230

> <Pdih>
12.956

> <Idih>
0.000

> <Tether>
0.000

$$$$
VeraChem MOL file


 17 16  0  0  0  0  0  0  0  0999 V2000     
   19.3740   17.3169   24.0634 C   0  0  0  0  0  0  0  0  0  0  0  0
   19.0624   17.9941   25.0233 O   0  5  0  0  0  0  0  0  0  0  0  0
   20.1783   16.4073   24.1163 O   0  0  0  0  0  0  0  0  0  0  0  0
   18.6986   17.6059   22.7263 C   0  0  0  0  0  0  0  0  0  0  0  0
   17.6839   17.9657   22.9329 H   0  0  0  0  0  0  0  0  0  0  0  0
   18.5788   16.6530   22.1978 H   0  0  0  0  0  0  0  0  0  0  0  0
   19.4195   18.6007   21.8275 C   0  0  0  0  0  0  0  0  0  0  0  0
   18.9205   18.7924   20.8784 H   0  0  0  0  0  0  0  0  0  0  0  0
   20.5675   19.2277   22.1100 C   0  0  0  0  0  0  0  0  0  0  0  0
   21.0862   19.0547   23.0522 H   0  0  0  0  0  0  0  0  0  0  0  0
   21.2449   20.2087   21.1790 C   0  0  0  0  0  0  0  0  0  0  0  0
   22.3114   19.9608   21.0918 H   0  0  0  0  0  0  0  0  0  0  0  0
   20.8208   20.1360   20.1681 H   0  0  0  0  0  0  0  0  0  0  0  0
   21.0938   21.6539   21.6926 C   0  0  0  0  0  0  0  0  0  0  0  0
   21.5882   22.3612   21.0141 H   0  0  0  0  0  0  0  0  0  0  0  0
   20.0344   21.9335   21.7637 H   0  0  0  0  0  0  0  0  0  0  0  0
   21.5441   21.7647   22.6878 H   0  0  0  0  0  0  0  0  0  0  0  0
  1  2  1  0  0  0  0
  1  3  2  0  0  0  0
  1  4  1  0  0  0  0
  4  5  1  0  0  0  0
  4  6  1  0  0  0  0
  4  7  1  0  0  0  0
  7  8  1  0  0  0  0
  7  9  2  0  0  0  0
  9 10  1  0  0  0  0
  9 11  1  0  0  0  0
 11 12  1  0  0  0  0
 11 13  1  0  0  0  0
 11 14  1  0  0  0  0
 14 15  1  0  0  0  0
 14 16  1  0  0  0  0
 14 17  1  0  0  0  0
M  END
> <VConfSearch Rank>
975

> <Conf_Id>
39

> <Delta U+W>
-0.422

> <U+W>
-49.849

> <U>
14.465

> <W>
-64.314

> <W(PB)>
-66.406

> <W(SA)>
2.093

> <Valence>
14.072

> <Coulomb>
-0.199

> <VdW>
0.592

> <VdW6>
-5.019

> <VdW12>
5.611

> <Bond>
0.085

> <Angle>
2.748

> <Pdih>
11.238

> <Idih>
0.001

> <Tether>
0.000

$$$$
VeraChem MOL file


 17 16  0  0  0  0  0  0  0  0999 V2000     
   18.3447   18.3780   24.5755 C   0  0  0  0  0  0  0  0  0  0  0  0
   17.3817   17.6786   24.3296 O   0  5  0  0  0  0  0  0  0  0  0  0
   18.3342   19.2701   25.4007 O   0  0  0  0  0  0  0  0  0  0  0  0
   19.6356   18.1170   23.8105 C   0  0  0  0  0  0  0  0  0  0  0  0
   19.7646   17.0314   23.7317 H   0  0  0  0  0  0  0  0  0  0  0  0
   20.4721   18.4968   24.4095 H   0  0  0  0  0  0  0  0  0  0  0  0
   19.6284   18.7423   22.4286 C   0  0  0  0  0  0  0  0  0  0  0  0
   18.9260   18.3010   21.7221 H   0  0  0  0  0  0  0  0  0  0  0  0
   20.4087   19.7637   22.0623 C   0  0  0  0  0  0  0  0  0  0  0  0
   21.1087   20.2065   22.7702 H   0  0  0  0  0  0  0  0  0  0  0  0
   20.3975   20.3884   20.6850 C   0  0  0  0  0  0  0  0  0  0  0  0
   19.5071   20.0697   20.1256 H   0  0  0  0  0  0  0  0  0  0  0  0
   20.3391   21.4816   20.7743 H   0  0  0  0  0  0  0  0  0  0  0  0
   21.6622   20.0045   19.8924 C   0  0  0  0  0  0  0  0  0  0  0  0
   21.7288   18.9156   19.7680 H   0  0  0  0  0  0  0  0  0  0  0  0
   21.6487   20.4612   18.8943 H   0  0  0  0  0  0  0  0  0  0  0  0
   22.5679   20.3456   20.4108 H   0  0  0  0  0  0  0  0  0  0  0  0
  1  2  1  0  0  0  0
  1  3  2  0  0  0  0
  1  4  1  0  0  0  0
  4  5  1  0  0  0  0
  4  6  1  0  0  0  0
  4  7  1  0  0  0  0
  7  8  1  0  0  0  0
  7  9  2  0  0  0  0
  9 10  1  0  0  0  0
  9 11  1  0  0  0  0
 11 12  1  0  0  0  0
 11 13  1  0  0  0  0
 11 14  1  0  0  0  0
 14 15  1  0  0  0  0
 14 16  1  0  0  0  0
 14 17  1  0  0  0  0
M  END
> <VConfSearch Rank>
976

> <Conf_Id>
38

> <Delta U+W>
0.000

> <U+W>
-49.427

> <U>
13.666

> <W>
-63.093

> <W(PB)>
-65.225

> <W(SA)>
2.132

> <Valence>
15.226

> <Coulomb>
-1.822

> <VdW>
0.261

> <VdW6>
-4.165

> <VdW12>
4.426

> <Bond>
0.044

> <Angle>
2.229

> <Pdih>
12.953

> <Idih>
0.000

> <Tether>
0.000

$$$$
VeraChem MOL file


 17 16  0  0  0  0  0  0  0  0999 V2000     
   18.2222   19.6337   24.6366 C   0  0  0  0  0  0  0  0  0  0  0  0
   17.9731   20.8145   24.7795 O   0  5  0  0  0  0  0  0  0  0  0  0
   18.4086   18.8693   25.5629 O   0  0  0  0  0  0  0  0  0  0  0  0
   18.3001   19.0782   23.2206 C   0  0  0  0  0  0  0  0  0  0  0  0
   17.7156   19.7326   22.5627 H   0  0  0  0  0  0  0  0  0  0  0  0
   17.8082   18.0986   23.2176 H   0  0  0  0  0  0  0  0  0  0  0  0
   19.7280   18.9455   22.7265 C   0  0  0  0  0  0  0  0  0  0  0  0
   20.3271   18.1895   23.2331 H   0  0  0  0  0  0  0  0  0  0  0  0
   20.2548   19.6841   21.7451 C   0  0  0  0  0  0  0  0  0  0  0  0
   19.6561   20.4421   21.2410 H   0  0  0  0  0  0  0  0  0  0  0  0
   21.6800   19.5532   21.2563 C   0  0  0  0  0  0  0  0  0  0  0  0
   22.1439   20.5470   21.1956 H   0  0  0  0  0  0  0  0  0  0  0  0
   22.2786   18.9688   21.9687 H   0  0  0  0  0  0  0  0  0  0  0  0
   21.7310   18.8771   19.8724 C   0  0  0  0  0  0  0  0  0  0  0  0
   21.1715   19.4614   19.1301 H   0  0  0  0  0  0  0  0  0  0  0  0
   22.7675   18.7854   19.5227 H   0  0  0  0  0  0  0  0  0  0  0  0
   21.2953   17.8701   19.9141 H   0  0  0  0  0  0  0  0  0  0  0  0
  1  2  1  0  0  0  0
  1  3  2  0  0  0  0
  1  4  1  0  0  0  0
  4  5  1  0  0  0  0
  4  6  1  0  0  0  0
  4  7  1  0  0  0  0
  7  8  1  0  0  0  0
  7  9  2  0  0  0  0
  9 10  1  0  0  0  0
  9 11  1  0  0  0  0
 11 12  1  0  0  0  0
 11 13  1  0  0  0  0
 11 14  1  0  0  0  0
 14 15  1  0  0  0  0
 14 16  1  0  0  0  0
 14 17  1  0  0  0  0
M  END
> <VConfSearch Rank>
977

> <Conf_Id>
35

> <Delta U+W>
-0.102

> <U+W>
-49.529

> <U>
13.666

> <W>
-63.195

> <W(PB)>
-65.299

> <W(SA)>
2.103

> <Valence>
15.226

> <Coulomb>
-1.822

> <VdW>
0.261

> <VdW6>
-4.165

> <VdW12>
4.426

> <Bond>
0.044

> <Angle>
2.229

> <Pdih>
12.953

> <Idih>
0.000

> <Tether>
0.000

$$$$
VeraChem MOL file


 17 16  0  0  0  0  0  0  0  0999 V2000     
   20.2032   16.1644   22.5096 C   0  0  0  0  0  0  0  0  0  0  0  0
   19.6387   15.8606   23.5421 O   0  5  0  0  0  0  0  0  0  0  0  0
   20.0052   15.6091   21.4469 O   0  0  0  0  0  0  0  0  0  0  0  0
   21.2209   17.2967   22.5541 C   0  0  0  0  0  0  0  0  0  0  0  0
   21.9187   17.1637   21.7187 H   0  0  0  0  0  0  0  0  0  0  0  0
   21.8020   17.1884   23.4772 H   0  0  0  0  0  0  0  0  0  0  0  0
   20.5686   18.6656   22.5072 C   0  0  0  0  0  0  0  0  0  0  0  0
   19.9860   18.9217   23.3904 H   0  0  0  0  0  0  0  0  0  0  0  0
   20.6780   19.5102   21.4741 C   0  0  0  0  0  0  0  0  0  0  0  0
   21.2663   19.2173   20.6050 H   0  0  0  0  0  0  0  0  0  0  0  0
   20.0509   20.8894   21.3591 C   0  0  0  0  0  0  0  0  0  0  0  0
   20.8449   21.6295   21.1910 H   0  0  0  0  0  0  0  0  0  0  0  0
   19.4226   20.9211   20.4586 H   0  0  0  0  0  0  0  0  0  0  0  0
   19.2063   21.3253   22.5767 C   0  0  0  0  0  0  0  0  0  0  0  0
   19.8170   21.3576   23.4886 H   0  0  0  0  0  0  0  0  0  0  0  0
   18.7886   22.3277   22.4164 H   0  0  0  0  0  0  0  0  0  0  0  0
   18.3689   20.6349   22.7427 H   0  0  0  0  0  0  0  0  0  0  0  0
  1  2  1  0  0  0  0
  1  3  2  0  0  0  0
  1  4  1  0  0  0  0
  4  5  1  0  0  0  0
  4  6  1  0  0  0  0
  4  7  1  0  0  0  0
  7  8  1  0  0  0  0
  7  9  2  0  0  0  0
  9 10  1  0  0  0  0
  9 11  1  0  0  0  0
 11 12  1  0  0  0  0
 11 13  1  0  0  0  0
 11 14  1  0  0  0  0
 14 15  1  0  0  0  0
 14 16  1  0  0  0  0
 14 17  1  0  0  0  0
M  END
> <VConfSearch Rank>
978

> <Conf_Id>
19

> <Delta U+W>
-0.496

> <U+W>
-49.923

> <U>
13.863

> <W>
-63.786

> <W(PB)>
-65.856

> <W(SA)>
2.070

> <Valence>
14.117

> <Coulomb>
-1.228

> <VdW>
0.974

> <VdW6>
-4.885

> <VdW12>
5.859

> <Bond>
0.094

> <Angle>
2.818

> <Pdih>
11.205

> <Idih>
0.000

> <Tether>
0.000

$$$$
VeraChem MOL file


 17 16  0  0  0  0  0  0  0  0999 V2000     
   17.6523   17.5644   22.5152 C   0  0  0  0  0  0  0  0  0  0  0  0
   17.8836   16.5466   21.8928 O   0  5  0  0  0  0  0  0  0  0  0  0
   17.1441   17.5761   23.6191 O   0  0  0  0  0  0  0  0  0  0  0  0
   18.0078   18.8997   21.8745 C   0  0  0  0  0  0  0  0  0  0  0  0
   17.1850   19.5959   22.0736 H   0  0  0  0  0  0  0  0  0  0  0  0
   18.0525   18.7579   20.7880 H   0  0  0  0  0  0  0  0  0  0  0  0
   19.3109   19.4686   22.4026 C   0  0  0  0  0  0  0  0  0  0  0  0
   19.2930   19.7805   23.4464 H   0  0  0  0  0  0  0  0  0  0  0  0
   20.4268   19.5892   21.6769 C   0  0  0  0  0  0  0  0  0  0  0  0
   20.4456   19.2723   20.6346 H   0  0  0  0  0  0  0  0  0  0  0  0
   21.7260   20.1541   22.2062 C   0  0  0  0  0  0  0  0  0  0  0  0
   22.1203   20.8998   21.5027 H   0  0  0  0  0  0  0  0  0  0  0  0
   21.5585   20.6763   23.1583 H   0  0  0  0  0  0  0  0  0  0  0  0
   22.7704   19.0398   22.4128 C   0  0  0  0  0  0  0  0  0  0  0  0
   22.9865   18.5253   21.4673 H   0  0  0  0  0  0  0  0  0  0  0  0
   23.7110   19.4552   22.7974 H   0  0  0  0  0  0  0  0  0  0  0  0
   22.4075   18.2942   23.1326 H   0  0  0  0  0  0  0  0  0  0  0  0
  1  2  1  0  0  0  0
  1  3  2  0  0  0  0
  1  4  1  0  0  0  0
  4  5  1  0  0  0  0
  4  6  1  0  0  0  0
  4  7  1  0  0  0  0
  7  8  1  0  0  0  0
  7  9  2  0  0  0  0
  9 10  1  0  0  0  0
  9 11  1  0  0  0  0
 11 12  1  0  0  0  0
 11 13  1  0  0  0  0
 11 14  1  0  0  0  0
 14 15  1  0  0  0  0
 14 16  1  0  0  0  0
 14 17  1  0  0  0  0
M  END
> <VConfSearch Rank>
979

> <Conf_Id>
7

> <Delta U+W>
-0.041

> <U+W>
-49.468

> <U>
14.121

> <W>
-63.589

> <W(PB)>
-65.660

> <W(SA)>
2.071

> <Valence>
15.230

> <Coulomb>
-1.333

> <VdW>
0.224

> <VdW6>
-4.212

> <VdW12>
4.436

> <Bond>
0.044

> <Angle>
2.230

> <Pdih>
12.956

> <Idih>
0.000

> <Tether>
0.000

$$$$
VeraChem MOL file


 17 16  0  0  0  0  0  0  0  0999 V2000     
   18.7865   21.0606   23.8867 C   0  0  0  0  0  0  0  0  0  0  0  0
   18.4534   20.3353   24.8032 O   0  5  0  0  0  0  0  0  0  0  0  0
   18.0073   21.7514   23.2600 O   0  0  0  0  0  0  0  0  0  0  0  0
   20.2662   21.1288   23.5212 C   0  0  0  0  0  0  0  0  0  0  0  0
   20.8466   20.9763   24.4387 H   0  0  0  0  0  0  0  0  0  0  0  0
   20.4842   22.1518   23.1932 H   0  0  0  0  0  0  0  0  0  0  0  0
   20.7262   20.1427   22.4569 C   0  0  0  0  0  0  0  0  0  0  0  0
   21.7854   20.2084   22.2110 H   0  0  0  0  0  0  0  0  0  0  0  0
   19.9570   19.2423   21.8335 C   0  0  0  0  0  0  0  0  0  0  0  0
   18.8952   19.1552   22.0613 H   0  0  0  0  0  0  0  0  0  0  0  0
   20.4645   18.2838   20.7792 C   0  0  0  0  0  0  0  0  0  0  0  0
   19.7928   18.2994   19.9102 H   0  0  0  0  0  0  0  0  0  0  0  0
   21.4539   18.5969   20.4182 H   0  0  0  0  0  0  0  0  0  0  0  0
   20.5545   16.8485   21.3331 C   0  0  0  0  0  0  0  0  0  0  0  0
   20.9220   16.1572   20.5636 H   0  0  0  0  0  0  0  0  0  0  0  0
   21.2417   16.8032   22.1883 H   0  0  0  0  0  0  0  0  0  0  0  0
   19.5700   16.4952   21.6667 H   0  0  0  0  0  0  0  0  0  0  0  0
  1  2  1  0  0  0  0
  1  3  2  0  0  0  0
  1  4  1  0  0  0  0
  4  5  1  0  0  0  0
  4  6  1  0  0  0  0
  4  7  1  0  0  0  0
  7  8  1  0  0  0  0
  7  9  2  0  0  0  0
  9 10  1  0  0  0  0
  9 11  1  0  0  0  0
 11 12  1  0  0  0  0
 11 13  1  0  0  0  0
 11 14  1  0  0  0  0
 14 15  1  0  0  0  0
 14 16  1  0  0  0  0
 14 17  1  0  0  0  0
M  END
> <VConfSearch Rank>
980

> <Conf_Id>
39

> <Delta U+W>
-0.422

> <U+W>
-49.849

> <U>
14.465

> <W>
-64.314

> <W(PB)>
-66.406

> <W(SA)>
2.093

> <Valence>
14.072

> <Coulomb>
-0.199

> <VdW>
0.592

> <VdW6>
-5.019

> <VdW12>
5.611

> <Bond>
0.085

> <Angle>
2.748

> <Pdih>
11.238

> <Idih>
0.001

> <Tether>
0.000

$$$$
VeraChem MOL file


 17 16  0  0  0  0  0  0  0  0999 V2000     
   18.5527   17.8547   19.7430 C   0  0  0  0  0  0  0  0  0  0  0  0
   19.1191   17.8113   18.6686 O   0  5  0  0  0  0  0  0  0  0  0  0
   17.3626   18.0668   19.8672 O   0  0  0  0  0  0  0  0  0  0  0  0
   19.3805   17.6250   21.0006 C   0  0  0  0  0  0  0  0  0  0  0  0
   20.0831   16.8092   20.7948 H   0  0  0  0  0  0  0  0  0  0  0  0
   18.7088   17.2770   21.7946 H   0  0  0  0  0  0  0  0  0  0  0  0
   20.1364   18.8668   21.4333 C   0  0  0  0  0  0  0  0  0  0  0  0
   20.9369   19.1807   20.7642 H   0  0  0  0  0  0  0  0  0  0  0  0
   19.8710   19.5580   22.5460 C   0  0  0  0  0  0  0  0  0  0  0  0
   19.0684   19.2453   23.2131 H   0  0  0  0  0  0  0  0  0  0  0  0
   20.6234   20.7983   22.9739 C   0  0  0  0  0  0  0  0  0  0  0  0
   21.2250   21.1891   22.1418 H   0  0  0  0  0  0  0  0  0  0  0  0
   19.9108   21.5886   23.2461 H   0  0  0  0  0  0  0  0  0  0  0  0
   21.5441   20.5012   24.1735 C   0  0  0  0  0  0  0  0  0  0  0  0
   22.2830   19.7307   23.9165 H   0  0  0  0  0  0  0  0  0  0  0  0
   22.0868   21.4049   24.4799 H   0  0  0  0  0  0  0  0  0  0  0  0
   20.9633   20.1445   25.0342 H   0  0  0  0  0  0  0  0  0  0  0  0
  1  2  1  0  0  0  0
  1  3  2  0  0  0  0
  1  4  1  0  0  0  0
  4  5  1  0  0  0  0
  4  6  1  0  0  0  0
  4  7  1  0  0  0  0
  7  8  1  0  0  0  0
  7  9  2  0  0  0  0
  9 10  1  0  0  0  0
  9 11  1  0  0  0  0
 11 12  1  0  0  0  0
 11 13  1  0  0  0  0
 11 14  1  0  0  0  0
 14 15  1  0  0  0  0
 14 16  1  0  0  0  0
 14 17  1  0  0  0  0
M  END
> <VConfSearch Rank>
981

> <Conf_Id>
38

> <Delta U+W>
0.000

> <U+W>
-49.427

> <U>
13.666

> <W>
-63.093

> <W(PB)>
-65.225

> <W(SA)>
2.132

> <Valence>
15.226

> <Coulomb>
-1.822

> <VdW>
0.261

> <VdW6>
-4.165

> <VdW12>
4.426

> <Bond>
0.044

> <Angle>
2.229

> <Pdih>
12.953

> <Idih>
0.000

> <Tether>
0.000

$$$$
VeraChem MOL file


 17 16  0  0  0  0  0  0  0  0999 V2000     
   21.5481   18.3185   24.7466 C   0  0  0  0  0  0  0  0  0  0  0  0
   22.5928   18.9283   24.8638 O   0  5  0  0  0  0  0  0  0  0  0  0
   21.4147   17.1494   25.0506 O   0  0  0  0  0  0  0  0  0  0  0  0
   20.3376   19.0592   24.1939 C   0  0  0  0  0  0  0  0  0  0  0  0
   20.4805   20.1317   24.3726 H   0  0  0  0  0  0  0  0  0  0  0  0
   19.4617   18.7510   24.7764 H   0  0  0  0  0  0  0  0  0  0  0  0
   20.1081   18.7794   22.7208 C   0  0  0  0  0  0  0  0  0  0  0  0
   19.8009   17.7614   22.4832 H   0  0  0  0  0  0  0  0  0  0  0  0
   20.2627   19.6860   21.7511 C   0  0  0  0  0  0  0  0  0  0  0  0
   20.5730   20.7029   21.9892 H   0  0  0  0  0  0  0  0  0  0  0  0
   20.0373   19.4042   20.2824 C   0  0  0  0  0  0  0  0  0  0  0  0
   20.8885   19.7790   19.6981 H   0  0  0  0  0  0  0  0  0  0  0  0
   19.9836   18.3216   20.1026 H   0  0  0  0  0  0  0  0  0  0  0  0
   18.7394   20.0690   19.7838 C   0  0  0  0  0  0  0  0  0  0  0  0
   18.7811   21.1580   19.9164 H   0  0  0  0  0  0  0  0  0  0  0  0
   18.5816   19.8615   18.7174 H   0  0  0  0  0  0  0  0  0  0  0  0
   17.8699   19.6901   20.3369 H   0  0  0  0  0  0  0  0  0  0  0  0
  1  2  1  0  0  0  0
  1  3  2  0  0  0  0
  1  4  1  0  0  0  0
  4  5  1  0  0  0  0
  4  6  1  0  0  0  0
  4  7  1  0  0  0  0
  7  8  1  0  0  0  0
  7  9  2  0  0  0  0
  9 10  1  0  0  0  0
  9 11  1  0  0  0  0
 11 12  1  0  0  0  0
 11 13  1  0  0  0  0
 11 14  1  0  0  0  0
 14 15  1  0  0  0  0
 14 16  1  0  0  0  0
 14 17  1  0  0  0  0
M  END
> <VConfSearch Rank>
982

> <Conf_Id>
35

> <Delta U+W>
-0.102

> <U+W>
-49.529

> <U>
13.666

> <W>
-63.195

> <W(PB)>
-65.299

> <W(SA)>
2.103

> <Valence>
15.226

> <Coulomb>
-1.822

> <VdW>
0.261

> <VdW6>
-4.165

> <VdW12>
4.426

> <Bond>
0.044

> <Angle>
2.229

> <Pdih>
12.953

> <Idih>
0.000

> <Tether>
0.000

$$$$
VeraChem MOL file


 17 16  0  0  0  0  0  0  0  0999 V2000     
   19.3436   16.4092   21.3680 C   0  0  0  0  0  0  0  0  0  0  0  0
   20.3098   15.6888   21.2118 O   0  5  0  0  0  0  0  0  0  0  0  0
   18.3391   16.0672   21.9604 O   0  0  0  0  0  0  0  0  0  0  0  0
   19.3925   17.8134   20.7802 C   0  0  0  0  0  0  0  0  0  0  0  0
   18.3625   18.1546   20.6209 H   0  0  0  0  0  0  0  0  0  0  0  0
   19.8642   17.7469   19.7931 H   0  0  0  0  0  0  0  0  0  0  0  0
   20.1587   18.7841   21.6589 C   0  0  0  0  0  0  0  0  0  0  0  0
   21.2273   18.5880   21.7280 H   0  0  0  0  0  0  0  0  0  0  0  0
   19.5928   19.8056   22.3138 C   0  0  0  0  0  0  0  0  0  0  0  0
   18.5192   19.9680   22.2241 H   0  0  0  0  0  0  0  0  0  0  0  0
   20.2966   20.8103   23.2104 C   0  0  0  0  0  0  0  0  0  0  0  0
   20.1127   21.8224   22.8252 H   0  0  0  0  0  0  0  0  0  0  0  0
   19.8336   20.7849   24.2062 H   0  0  0  0  0  0  0  0  0  0  0  0
   21.8193   20.5973   23.3588 C   0  0  0  0  0  0  0  0  0  0  0  0
   22.3239   20.6703   22.3864 H   0  0  0  0  0  0  0  0  0  0  0  0
   22.2519   21.3595   24.0198 H   0  0  0  0  0  0  0  0  0  0  0  0
   22.0390   19.6127   23.7921 H   0  0  0  0  0  0  0  0  0  0  0  0
  1  2  1  0  0  0  0
  1  3  2  0  0  0  0
  1  4  1  0  0  0  0
  4  5  1  0  0  0  0
  4  6  1  0  0  0  0
  4  7  1  0  0  0  0
  7  8  1  0  0  0  0
  7  9  2  0  0  0  0
  9 10  1  0  0  0  0
  9 11  1  0  0  0  0
 11 12  1  0  0  0  0
 11 13  1  0  0  0  0
 11 14  1  0  0  0  0
 14 15  1  0  0  0  0
 14 16  1  0  0  0  0
 14 17  1  0  0  0  0
M  END
> <VConfSearch Rank>
983

> <Conf_Id>
19

> <Delta U+W>
-0.496

> <U+W>
-49.923

> <U>
13.863

> <W>
-63.786

> <W(PB)>
-65.856

> <W(SA)>
2.070

> <Valence>
14.117

> <Coulomb>
-1.228

> <VdW>
0.974

> <VdW6>
-4.885

> <VdW12>
5.859

> <Bond>
0.094

> <Angle>
2.818

> <Pdih>
11.205

> <Idih>
0.000

> <Tether>
0.000

$$$$
VeraChem MOL file


 17 16  0  0  0  0  0  0  0  0999 V2000     
   21.7956   18.5947   19.8209 C   0  0  0  0  0  0  0  0  0  0  0  0
   21.3583   17.5372   19.4120 O   0  5  0  0  0  0  0  0  0  0  0  0
   22.0021   19.5571   19.1081 O   0  0  0  0  0  0  0  0  0  0  0  0
   22.1129   18.7197   21.3053 C   0  0  0  0  0  0  0  0  0  0  0  0
   23.0634   19.2573   21.4002 H   0  0  0  0  0  0  0  0  0  0  0  0
   22.2723   17.7123   21.7082 H   0  0  0  0  0  0  0  0  0  0  0  0
   21.0247   19.4462   22.0727 C   0  0  0  0  0  0  0  0  0  0  0  0
   20.9134   20.5033   21.8332 H   0  0  0  0  0  0  0  0  0  0  0  0
   20.2315   18.8683   22.9799 C   0  0  0  0  0  0  0  0  0  0  0  0
   20.3398   17.8100   23.2152 H   0  0  0  0  0  0  0  0  0  0  0  0
   19.1451   19.5939   23.7419 C   0  0  0  0  0  0  0  0  0  0  0  0
   19.2260   19.3636   24.8128 H   0  0  0  0  0  0  0  0  0  0  0  0
   19.2669   20.6813   23.6429 H   0  0  0  0  0  0  0  0  0  0  0  0
   17.7478   19.1890   23.2333 C   0  0  0  0  0  0  0  0  0  0  0  0
   17.5835   18.1105   23.3563 H   0  0  0  0  0  0  0  0  0  0  0  0
   16.9633   19.7188   23.7893 H   0  0  0  0  0  0  0  0  0  0  0  0
   17.6349   19.4328   22.1687 H   0  0  0  0  0  0  0  0  0  0  0  0
  1  2  1  0  0  0  0
  1  3  2  0  0  0  0
  1  4  1  0  0  0  0
  4  5  1  0  0  0  0
  4  6  1  0  0  0  0
  4  7  1  0  0  0  0
  7  8  1  0  0  0  0
  7  9  2  0  0  0  0
  9 10  1  0  0  0  0
  9 11  1  0  0  0  0
 11 12  1  0  0  0  0
 11 13  1  0  0  0  0
 11 14  1  0  0  0  0
 14 15  1  0  0  0  0
 14 16  1  0  0  0  0
 14 17  1  0  0  0  0
M  END
> <VConfSearch Rank>
984

> <Conf_Id>
7

> <Delta U+W>
-0.041

> <U+W>
-49.468

> <U>
14.121

> <W>
-63.589

> <W(PB)>
-65.660

> <W(SA)>
2.071

> <Valence>
15.230

> <Coulomb>
-1.333

> <VdW>
0.224

> <VdW6>
-4.212

> <VdW12>
4.436

> <Bond>
0.044

> <Angle>
2.230

> <Pdih>
12.956

> <Idih>
0.000

> <Tether>
0.000

$$$$
VeraChem MOL file


 17 16  0  0  0  0  0  0  0  0999 V2000     
   21.3275   19.6447   24.7267 C   0  0  0  0  0  0  0  0  0  0  0  0
   20.3601   19.6093   25.4615 O   0  5  0  0  0  0  0  0  0  0  0  0
   22.1274   20.5595   24.7137 O   0  0  0  0  0  0  0  0  0  0  0  0
   21.5661   18.4643   23.7900 C   0  0  0  0  0  0  0  0  0  0  0  0
   21.1917   17.5608   24.2854 H   0  0  0  0  0  0  0  0  0  0  0  0
   22.6492   18.3273   23.6918 H   0  0  0  0  0  0  0  0  0  0  0  0
   20.9396   18.5851   22.4081 C   0  0  0  0  0  0  0  0  0  0  0  0
   21.1222   17.7320   21.7557 H   0  0  0  0  0  0  0  0  0  0  0  0
   20.2131   19.6162   21.9611 C   0  0  0  0  0  0  0  0  0  0  0  0
   20.0149   20.4810   22.5932 H   0  0  0  0  0  0  0  0  0  0  0  0
   19.6126   19.6878   20.5746 C   0  0  0  0  0  0  0  0  0  0  0  0
   19.8378   20.6636   20.1233 H   0  0  0  0  0  0  0  0  0  0  0  0
   20.0612   18.9272   19.9208 H   0  0  0  0  0  0  0  0  0  0  0  0
   18.0858   19.4836   20.6214 C   0  0  0  0  0  0  0  0  0  0  0  0
   17.6553   19.5378   19.6131 H   0  0  0  0  0  0  0  0  0  0  0  0
   17.8367   18.5022   21.0461 H   0  0  0  0  0  0  0  0  0  0  0  0
   17.6064   20.2547   21.2387 H   0  0  0  0  0  0  0  0  0  0  0  0
  1  2  1  0  0  0  0
  1  3  2  0  0  0  0
  1  4  1  0  0  0  0
  4  5  1  0  0  0  0
  4  6  1  0  0  0  0
  4  7  1  0  0  0  0
  7  8  1  0  0  0  0
  7  9  2  0  0  0  0
  9 10  1  0  0  0  0
  9 11  1  0  0  0  0
 11 12  1  0  0  0  0
 11 13  1  0  0  0  0
 11 14  1  0  0  0  0
 14 15  1  0  0  0  0
 14 16  1  0  0  0  0
 14 17  1  0  0  0  0
M  END
> <VConfSearch Rank>
985

> <Conf_Id>
39

> <Delta U+W>
-0.422

> <U+W>
-49.849

> <U>
14.465

> <W>
-64.314

> <W(PB)>
-66.406

> <W(SA)>
2.093

> <Valence>
14.072

> <Coulomb>
-0.199

> <VdW>
0.592

> <VdW6>
-5.019

> <VdW12>
5.611

> <Bond>
0.085

> <Angle>
2.748

> <Pdih>
11.238

> <Idih>
0.001

> <Tether>
0.000

$$$$
VeraChem MOL file


 17 16  0  0  0  0  0  0  0  0999 V2000     
   18.9331   22.0838   22.9638 C   0  0  0  0  0  0  0  0  0  0  0  0
   19.1799   22.4530   24.0950 O   0  5  0  0  0  0  0  0  0  0  0  0
   17.8564   22.2457   22.4240 O   0  0  0  0  0  0  0  0  0  0  0  0
   20.0362   21.3852   22.1798 C   0  0  0  0  0  0  0  0  0  0  0  0
   20.9758   21.9127   22.3811 H   0  0  0  0  0  0  0  0  0  0  0  0
   19.8248   21.5037   21.1102 H   0  0  0  0  0  0  0  0  0  0  0  0
   20.1722   19.9201   22.5481 C   0  0  0  0  0  0  0  0  0  0  0  0
   20.5379   19.7260   23.5559 H   0  0  0  0  0  0  0  0  0  0  0  0
   19.8736   18.9085   21.7274 C   0  0  0  0  0  0  0  0  0  0  0  0
   19.5051   19.1033   20.7207 H   0  0  0  0  0  0  0  0  0  0  0  0
   20.0063   17.4481   22.0977 C   0  0  0  0  0  0  0  0  0  0  0  0
   20.1290   17.3366   23.1838 H   0  0  0  0  0  0  0  0  0  0  0  0
   19.0862   16.9122   21.8278 H   0  0  0  0  0  0  0  0  0  0  0  0
   21.2069   16.8015   21.3797 C   0  0  0  0  0  0  0  0  0  0  0  0
   22.1430   17.3052   21.6546 H   0  0  0  0  0  0  0  0  0  0  0  0
   21.2976   15.7419   21.6519 H   0  0  0  0  0  0  0  0  0  0  0  0
   21.0918   16.8646   20.2897 H   0  0  0  0  0  0  0  0  0  0  0  0
  1  2  1  0  0  0  0
  1  3  2  0  0  0  0
  1  4  1  0  0  0  0
  4  5  1  0  0  0  0
  4  6  1  0  0  0  0
  4  7  1  0  0  0  0
  7  8  1  0  0  0  0
  7  9  2  0  0  0  0
  9 10  1  0  0  0  0
  9 11  1  0  0  0  0
 11 12  1  0  0  0  0
 11 13  1  0  0  0  0
 11 14  1  0  0  0  0
 14 15  1  0  0  0  0
 14 16  1  0  0  0  0
 14 17  1  0  0  0  0
M  END
> <VConfSearch Rank>
986

> <Conf_Id>
38

> <Delta U+W>
0.000

> <U+W>
-49.427

> <U>
13.666

> <W>
-63.093

> <W(PB)>
-65.225

> <W(SA)>
2.132

> <Valence>
15.226

> <Coulomb>
-1.822

> <VdW>
0.261

> <VdW6>
-4.165

> <VdW12>
4.426

> <Bond>
0.044

> <Angle>
2.229

> <Pdih>
12.953

> <Idih>
0.000

> <Tether>
0.000

$$$$
VeraChem MOL file


 17 16  0  0  0  0  0  0  0  0999 V2000     
   19.1465   16.5927   23.5117 C   0  0  0  0  0  0  0  0  0  0  0  0
   19.7331   16.4725   24.5692 O   0  5  0  0  0  0  0  0  0  0  0  0
   18.8815   15.6590   22.7803 O   0  0  0  0  0  0  0  0  0  0  0  0
   18.7143   17.9879   23.0801 C   0  0  0  0  0  0  0  0  0  0  0  0
   18.6318   18.6142   23.9765 H   0  0  0  0  0  0  0  0  0  0  0  0
   17.7090   17.9092   22.6504 H   0  0  0  0  0  0  0  0  0  0  0  0
   19.6649   18.6046   22.0717 C   0  0  0  0  0  0  0  0  0  0  0  0
   19.6788   18.1263   21.0928 H   0  0  0  0  0  0  0  0  0  0  0  0
   20.4489   19.6570   22.3246 C   0  0  0  0  0  0  0  0  0  0  0  0
   20.4369   20.1328   23.3046 H   0  0  0  0  0  0  0  0  0  0  0  0
   21.3991   20.2681   21.3190 C   0  0  0  0  0  0  0  0  0  0  0  0
   22.3864   20.4082   21.7796 H   0  0  0  0  0  0  0  0  0  0  0  0
   21.5427   19.5915   20.4653 H   0  0  0  0  0  0  0  0  0  0  0  0
   20.8716   21.6244   20.8118 C   0  0  0  0  0  0  0  0  0  0  0  0
   20.7549   22.3342   21.6413 H   0  0  0  0  0  0  0  0  0  0  0  0
   21.5656   22.0632   20.0832 H   0  0  0  0  0  0  0  0  0  0  0  0
   19.8954   21.5052   20.3236 H   0  0  0  0  0  0  0  0  0  0  0  0
  1  2  1  0  0  0  0
  1  3  2  0  0  0  0
  1  4  1  0  0  0  0
  4  5  1  0  0  0  0
  4  6  1  0  0  0  0
  4  7  1  0  0  0  0
  7  8  1  0  0  0  0
  7  9  2  0  0  0  0
  9 10  1  0  0  0  0
  9 11  1  0  0  0  0
 11 12  1  0  0  0  0
 11 13  1  0  0  0  0
 11 14  1  0  0  0  0
 14 15  1  0  0  0  0
 14 16  1  0  0  0  0
 14 17  1  0  0  0  0
M  END
> <VConfSearch Rank>
987

> <Conf_Id>
35

> <Delta U+W>
-0.102

> <U+W>
-49.529

> <U>
13.666

> <W>
-63.195

> <W(PB)>
-65.299

> <W(SA)>
2.103

> <Valence>
15.226

> <Coulomb>
-1.822

> <VdW>
0.261

> <VdW6>
-4.165

> <VdW12>
4.426

> <Bond>
0.044

> <Angle>
2.229

> <Pdih>
12.953

> <Idih>
0.000

> <Tether>
0.000

$$$$
VeraChem MOL file


 17 16  0  0  0  0  0  0  0  0999 V2000     
   20.1401   18.7427   19.2756 C   0  0  0  0  0  0  0  0  0  0  0  0
   20.5826   19.7324   18.7264 O   0  5  0  0  0  0  0  0  0  0  0  0
   20.4387   17.6082   18.9585 O   0  0  0  0  0  0  0  0  0  0  0  0
   19.1505   18.9368   20.4169 C   0  0  0  0  0  0  0  0  0  0  0  0
   18.5441   18.0272   20.5034 H   0  0  0  0  0  0  0  0  0  0  0  0
   18.4708   19.7496   20.1360 H   0  0  0  0  0  0  0  0  0  0  0  0
   19.8360   19.2621   21.7306 C   0  0  0  0  0  0  0  0  0  0  0  0
   20.3258   20.2340   21.7589 H   0  0  0  0  0  0  0  0  0  0  0  0
   19.8587   18.4381   22.7856 C   0  0  0  0  0  0  0  0  0  0  0  0
   19.3610   17.4712   22.7185 H   0  0  0  0  0  0  0  0  0  0  0  0
   20.5268   18.6972   24.1254 C   0  0  0  0  0  0  0  0  0  0  0  0
   19.7732   18.6200   24.9207 H   0  0  0  0  0  0  0  0  0  0  0  0
   21.2492   17.8940   24.3245 H   0  0  0  0  0  0  0  0  0  0  0  0
   21.2450   20.0597   24.2433 C   0  0  0  0  0  0  0  0  0  0  0  0
   20.5403   20.8899   24.1033 H   0  0  0  0  0  0  0  0  0  0  0  0
   21.7010   20.1698   25.2357 H   0  0  0  0  0  0  0  0  0  0  0  0
   22.0431   20.1503   23.4948 H   0  0  0  0  0  0  0  0  0  0  0  0
  1  2  1  0  0  0  0
  1  3  2  0  0  0  0
  1  4  1  0  0  0  0
  4  5  1  0  0  0  0
  4  6  1  0  0  0  0
  4  7  1  0  0  0  0
  7  8  1  0  0  0  0
  7  9  2  0  0  0  0
  9 10  1  0  0  0  0
  9 11  1  0  0  0  0
 11 12  1  0  0  0  0
 11 13  1  0  0  0  0
 11 14  1  0  0  0  0
 14 15  1  0  0  0  0
 14 16  1  0  0  0  0
 14 17  1  0  0  0  0
M  END
> <VConfSearch Rank>
988

> <Conf_Id>
19

> <Delta U+W>
-0.496

> <U+W>
-49.923

> <U>
13.863

> <W>
-63.786

> <W(PB)>
-65.856

> <W(SA)>
2.070

> <Valence>
14.117

> <Coulomb>
-1.228

> <VdW>
0.974

> <VdW6>
-4.885

> <VdW12>
5.859

> <Bond>
0.094

> <Angle>
2.818

> <Pdih>
11.205

> <Idih>
0.000

> <Tether>
0.000

$$$$
VeraChem MOL file


 17 16  0  0  0  0  0  0  0  0999 V2000     
   18.2267   21.2288   22.6664 C   0  0  0  0  0  0  0  0  0  0  0  0
   17.4133   21.0388   21.7838 O   0  5  0  0  0  0  0  0  0  0  0  0
   17.9245   21.4512   23.8224 O   0  0  0  0  0  0  0  0  0  0  0  0
   19.7059   21.1976   22.3046 C   0  0  0  0  0  0  0  0  0  0  0  0
   20.1971   22.0227   22.8332 H   0  0  0  0  0  0  0  0  0  0  0  0
   19.8011   21.4022   21.2314 H   0  0  0  0  0  0  0  0  0  0  0  0
   20.3651   19.8806   22.6676 C   0  0  0  0  0  0  0  0  0  0  0  0
   20.4472   19.6805   23.7355 H   0  0  0  0  0  0  0  0  0  0  0  0
   20.8193   18.9965   21.7741 C   0  0  0  0  0  0  0  0  0  0  0  0
   20.7322   19.1949   20.7063 H   0  0  0  0  0  0  0  0  0  0  0  0
   21.4736   17.6825   22.1381 C   0  0  0  0  0  0  0  0  0  0  0  0
   22.4040   17.5607   21.5672 H   0  0  0  0  0  0  0  0  0  0  0  0
   21.7521   17.6732   23.2009 H   0  0  0  0  0  0  0  0  0  0  0  0
   20.5332   16.4968   21.8471 C   0  0  0  0  0  0  0  0  0  0  0  0
   20.2689   16.4586   20.7822 H   0  0  0  0  0  0  0  0  0  0  0  0
   21.0127   15.5459   22.1135 H   0  0  0  0  0  0  0  0  0  0  0  0
   19.6047   16.5845   22.4268 H   0  0  0  0  0  0  0  0  0  0  0  0
  1  2  1  0  0  0  0
  1  3  2  0  0  0  0
  1  4  1  0  0  0  0
  4  5  1  0  0  0  0
  4  6  1  0  0  0  0
  4  7  1  0  0  0  0
  7  8  1  0  0  0  0
  7  9  2  0  0  0  0
  9 10  1  0  0  0  0
  9 11  1  0  0  0  0
 11 12  1  0  0  0  0
 11 13  1  0  0  0  0
 11 14  1  0  0  0  0
 14 15  1  0  0  0  0
 14 16  1  0  0  0  0
 14 17  1  0  0  0  0
M  END
> <VConfSearch Rank>
989

> <Conf_Id>
7

> <Delta U+W>
-0.041

> <U+W>
-49.468

> <U>
14.121

> <W>
-63.589

> <W(PB)>
-65.660

> <W(SA)>
2.071

> <Valence>
15.230

> <Coulomb>
-1.333

> <VdW>
0.224

> <VdW6>
-4.212

> <VdW12>
4.436

> <Bond>
0.044

> <Angle>
2.230

> <Pdih>
12.956

> <Idih>
0.000

> <Tether>
0.000

$$$$
VeraChem MOL file


 17 16  0  0  0  0  0  0  0  0999 V2000     
   21.1221   21.3816   20.7846 C   0  0  0  0  0  0  0  0  0  0  0  0
   21.1641   22.2558   21.6278 O   0  5  0  0  0  0  0  0  0  0  0  0
   20.5495   21.5032   19.7196 O   0  0  0  0  0  0  0  0  0  0  0  0
   21.8508   20.0712   21.0665 C   0  0  0  0  0  0  0  0  0  0  0  0
   22.7266   20.2997   21.6851 H   0  0  0  0  0  0  0  0  0  0  0  0
   22.2439   19.6943   20.1151 H   0  0  0  0  0  0  0  0  0  0  0  0
   21.0192   18.9886   21.7399 C   0  0  0  0  0  0  0  0  0  0  0  0
   21.5585   18.0619   21.9317 H   0  0  0  0  0  0  0  0  0  0  0  0
   19.7337   19.0923   22.0973 C   0  0  0  0  0  0  0  0  0  0  0  0
   19.1718   20.0081   21.9177 H   0  0  0  0  0  0  0  0  0  0  0  0
   18.9509   17.9831   22.7641 C   0  0  0  0  0  0  0  0  0  0  0  0
   17.9864   17.8526   22.2550 H   0  0  0  0  0  0  0  0  0  0  0  0
   19.4856   17.0274   22.6759 H   0  0  0  0  0  0  0  0  0  0  0  0
   18.7073   18.2955   24.2535 C   0  0  0  0  0  0  0  0  0  0  0  0
   18.1377   17.4882   24.7319 H   0  0  0  0  0  0  0  0  0  0  0  0
   19.6593   18.4051   24.7895 H   0  0  0  0  0  0  0  0  0  0  0  0
   18.1400   19.2283   24.3701 H   0  0  0  0  0  0  0  0  0  0  0  0
  1  2  1  0  0  0  0
  1  3  2  0  0  0  0
  1  4  1  0  0  0  0
  4  5  1  0  0  0  0
  4  6  1  0  0  0  0
  4  7  1  0  0  0  0
  7  8  1  0  0  0  0
  7  9  2  0  0  0  0
  9 10  1  0  0  0  0
  9 11  1  0  0  0  0
 11 12  1  0  0  0  0
 11 13  1  0  0  0  0
 11 14  1  0  0  0  0
 14 15  1  0  0  0  0
 14 16  1  0  0  0  0
 14 17  1  0  0  0  0
M  END
> <VConfSearch Rank>
990

> <Conf_Id>
39

> <Delta U+W>
-0.422

> <U+W>
-49.849

> <U>
14.465

> <W>
-64.314

> <W(PB)>
-66.406

> <W(SA)>
2.093

> <Valence>
14.072

> <Coulomb>
-0.199

> <VdW>
0.592

> <VdW6>
-5.019

> <VdW12>
5.611

> <Bond>
0.085

> <Angle>
2.748

> <Pdih>
11.238

> <Idih>
0.001

> <Tether>
0.000

$$$$
VeraChem MOL file


 17 16  0  0  0  0  0  0  0  0999 V2000     
   17.5261   17.4977   22.5418 C   0  0  0  0  0  0  0  0  0  0  0  0
   16.6006   17.6885   21.7776 O   0  5  0  0  0  0  0  0  0  0  0  0
   17.3838   17.2884   23.7304 O   0  0  0  0  0  0  0  0  0  0  0  0
   18.9400   17.5170   21.9761 C   0  0  0  0  0  0  0  0  0  0  0  0
   18.9219   16.9964   21.0116 H   0  0  0  0  0  0  0  0  0  0  0  0
   19.5847   16.9329   22.6438 H   0  0  0  0  0  0  0  0  0  0  0  0
   19.4752   18.9250   21.7980 C   0  0  0  0  0  0  0  0  0  0  0  0
   18.9813   19.5163   21.0276 H   0  0  0  0  0  0  0  0  0  0  0  0
   20.4769   19.4440   22.5146 C   0  0  0  0  0  0  0  0  0  0  0  0
   20.9684   18.8532   23.2869 H   0  0  0  0  0  0  0  0  0  0  0  0
   21.0067   20.8495   22.3383 C   0  0  0  0  0  0  0  0  0  0  0  0
   20.3081   21.4516   21.7411 H   0  0  0  0  0  0  0  0  0  0  0  0
   21.0885   21.3404   23.3175 H   0  0  0  0  0  0  0  0  0  0  0  0
   22.3866   20.8392   21.6520 C   0  0  0  0  0  0  0  0  0  0  0  0
   22.3246   20.3753   20.6587 H   0  0  0  0  0  0  0  0  0  0  0  0
   22.7662   21.8616   21.5274 H   0  0  0  0  0  0  0  0  0  0  0  0
   23.1162   20.2752   22.2479 H   0  0  0  0  0  0  0  0  0  0  0  0
  1  2  1  0  0  0  0
  1  3  2  0  0  0  0
  1  4  1  0  0  0  0
  4  5  1  0  0  0  0
  4  6  1  0  0  0  0
  4  7  1  0  0  0  0
  7  8  1  0  0  0  0
  7  9  2  0  0  0  0
  9 10  1  0  0  0  0
  9 11  1  0  0  0  0
 11 12  1  0  0  0  0
 11 13  1  0  0  0  0
 11 14  1  0  0  0  0
 14 15  1  0  0  0  0
 14 16  1  0  0  0  0
 14 17  1  0  0  0  0
M  END
> <VConfSearch Rank>
991

> <Conf_Id>
38

> <Delta U+W>
0.000

> <U+W>
-49.427

> <U>
13.666

> <W>
-63.093

> <W(PB)>
-65.225

> <W(SA)>
2.132

> <Valence>
15.226

> <Coulomb>
-1.822

> <VdW>
0.261

> <VdW6>
-4.165

> <VdW12>
4.426

> <Bond>
0.044

> <Angle>
2.229

> <Pdih>
12.953

> <Idih>
0.000

> <Tether>
0.000

$$$$
VeraChem MOL file


 17 16  0  0  0  0  0  0  0  0999 V2000     
   22.2452   19.2914   19.7912 C   0  0  0  0  0  0  0  0  0  0  0  0
   23.2497   18.7281   20.1791 O   0  5  0  0  0  0  0  0  0  0  0  0
   22.2592   20.2708   19.0719 O   0  0  0  0  0  0  0  0  0  0  0  0
   20.8940   18.7381   20.2244 C   0  0  0  0  0  0  0  0  0  0  0  0
   21.0225   17.6792   20.4791 H   0  0  0  0  0  0  0  0  0  0  0  0
   20.2218   18.7806   19.3597 H   0  0  0  0  0  0  0  0  0  0  0  0
   20.2966   19.5081   21.3867 C   0  0  0  0  0  0  0  0  0  0  0  0
   19.9915   20.5293   21.1602 H   0  0  0  0  0  0  0  0  0  0  0  0
   20.1400   19.0095   22.6168 C   0  0  0  0  0  0  0  0  0  0  0  0
   20.4483   17.9894   22.8434 H   0  0  0  0  0  0  0  0  0  0  0  0
   19.5478   19.7802   23.7755 C   0  0  0  0  0  0  0  0  0  0  0  0
   20.1923   19.6749   24.6588 H   0  0  0  0  0  0  0  0  0  0  0  0
   19.5055   20.8530   23.5421 H   0  0  0  0  0  0  0  0  0  0  0  0
   18.1309   19.2749   24.1103 C   0  0  0  0  0  0  0  0  0  0  0  0
   18.1488   18.2121   24.3852 H   0  0  0  0  0  0  0  0  0  0  0  0
   17.7067   19.8373   24.9522 H   0  0  0  0  0  0  0  0  0  0  0  0
   17.4607   19.3941   23.2488 H   0  0  0  0  0  0  0  0  0  0  0  0
  1  2  1  0  0  0  0
  1  3  2  0  0  0  0
  1  4  1  0  0  0  0
  4  5  1  0  0  0  0
  4  6  1  0  0  0  0
  4  7  1  0  0  0  0
  7  8  1  0  0  0  0
  7  9  2  0  0  0  0
  9 10  1  0  0  0  0
  9 11  1  0  0  0  0
 11 12  1  0  0  0  0
 11 13  1  0  0  0  0
 11 14  1  0  0  0  0
 14 15  1  0  0  0  0
 14 16  1  0  0  0  0
 14 17  1  0  0  0  0
M  END
> <VConfSearch Rank>
992

> <Conf_Id>
35

> <Delta U+W>
-0.102

> <U+W>
-49.529

> <U>
13.666

> <W>
-63.195

> <W(PB)>
-65.299

> <W(SA)>
2.103

> <Valence>
15.226

> <Coulomb>
-1.822

> <VdW>
0.261

> <VdW6>
-4.165

> <VdW12>
4.426

> <Bond>
0.044

> <Angle>
2.229

> <Pdih>
12.953

> <Idih>
0.000

> <Tether>
0.000

$$$$
VeraChem MOL file


 17 16  0  0  0  0  0  0  0  0999 V2000     
   18.2442   21.2215   22.7386 C   0  0  0  0  0  0  0  0  0  0  0  0
   18.0378   21.8589   21.7247 O   0  5  0  0  0  0  0  0  0  0  0  0
   17.3623   20.8295   23.4771 O   0  0  0  0  0  0  0  0  0  0  0  0
   19.6880   20.9060   23.1069 C   0  0  0  0  0  0  0  0  0  0  0  0
   19.7364   20.7353   24.1891 H   0  0  0  0  0  0  0  0  0  0  0  0
   20.2897   21.7976   22.8960 H   0  0  0  0  0  0  0  0  0  0  0  0
   20.2354   19.7158   22.3420 C   0  0  0  0  0  0  0  0  0  0  0  0
   20.3615   19.8815   21.2735 H   0  0  0  0  0  0  0  0  0  0  0  0
   20.5423   18.5415   22.9072 C   0  0  0  0  0  0  0  0  0  0  0  0
   20.3985   18.4113   23.9794 H   0  0  0  0  0  0  0  0  0  0  0  0
   21.0889   17.3108   22.2035 C   0  0  0  0  0  0  0  0  0  0  0  0
   22.0441   17.0295   22.6671 H   0  0  0  0  0  0  0  0  0  0  0  0
   20.4119   16.4655   22.3865 H   0  0  0  0  0  0  0  0  0  0  0  0
   21.2959   17.4684   20.6809 C   0  0  0  0  0  0  0  0  0  0  0  0
   22.0113   18.2718   20.4615 H   0  0  0  0  0  0  0  0  0  0  0  0
   21.6903   16.5399   20.2480 H   0  0  0  0  0  0  0  0  0  0  0  0
   20.3483   17.6985   20.1763 H   0  0  0  0  0  0  0  0  0  0  0  0
  1  2  1  0  0  0  0
  1  3  2  0  0  0  0
  1  4  1  0  0  0  0
  4  5  1  0  0  0  0
  4  6  1  0  0  0  0
  4  7  1  0  0  0  0
  7  8  1  0  0  0  0
  7  9  2  0  0  0  0
  9 10  1  0  0  0  0
  9 11  1  0  0  0  0
 11 12  1  0  0  0  0
 11 13  1  0  0  0  0
 11 14  1  0  0  0  0
 14 15  1  0  0  0  0
 14 16  1  0  0  0  0
 14 17  1  0  0  0  0
M  END
> <VConfSearch Rank>
993

> <Conf_Id>
19

> <Delta U+W>
-0.496

> <U+W>
-49.923

> <U>
13.863

> <W>
-63.786

> <W(PB)>
-65.856

> <W(SA)>
2.070

> <Valence>
14.117

> <Coulomb>
-1.228

> <VdW>
0.974

> <VdW6>
-4.885

> <VdW12>
5.859

> <Bond>
0.094

> <Angle>
2.818

> <Pdih>
11.205

> <Idih>
0.000

> <Tether>
0.000

$$$$
VeraChem MOL file


 17 16  0  0  0  0  0  0  0  0999 V2000     
   20.9710   17.3012   24.4139 C   0  0  0  0  0  0  0  0  0  0  0  0
   22.1225   17.6399   24.6042 O   0  5  0  0  0  0  0  0  0  0  0  0
   20.1617   17.1402   25.3061 O   0  0  0  0  0  0  0  0  0  0  0  0
   20.5182   17.0540   22.9808 C   0  0  0  0  0  0  0  0  0  0  0  0
   19.8958   16.1517   22.9775 H   0  0  0  0  0  0  0  0  0  0  0  0
   21.4047   16.8346   22.3738 H   0  0  0  0  0  0  0  0  0  0  0  0
   19.7422   18.2242   22.4069 C   0  0  0  0  0  0  0  0  0  0  0  0
   18.7697   18.4060   22.8634 H   0  0  0  0  0  0  0  0  0  0  0  0
   20.1853   19.0068   21.4182 C   0  0  0  0  0  0  0  0  0  0  0  0
   21.1601   18.8277   20.9657 H   0  0  0  0  0  0  0  0  0  0  0  0
   19.4112   20.1749   20.8494 C   0  0  0  0  0  0  0  0  0  0  0  0
   19.4092   20.1197   19.7523 H   0  0  0  0  0  0  0  0  0  0  0  0
   18.3610   20.1325   21.1693 H   0  0  0  0  0  0  0  0  0  0  0  0
   20.0261   21.5159   21.2952 C   0  0  0  0  0  0  0  0  0  0  0  0
   21.0663   21.6023   20.9546 H   0  0  0  0  0  0  0  0  0  0  0  0
   19.4603   22.3600   20.8800 H   0  0  0  0  0  0  0  0  0  0  0  0
   20.0163   21.6043   22.3896 H   0  0  0  0  0  0  0  0  0  0  0  0
  1  2  1  0  0  0  0
  1  3  2  0  0  0  0
  1  4  1  0  0  0  0
  4  5  1  0  0  0  0
  4  6  1  0  0  0  0
  4  7  1  0  0  0  0
  7  8  1  0  0  0  0
  7  9  2  0  0  0  0
  9 10  1  0  0  0  0
  9 11  1  0  0  0  0
 11 12  1  0  0  0  0
 11 13  1  0  0  0  0
 11 14  1  0  0  0  0
 14 15  1  0  0  0  0
 14 16  1  0  0  0  0
 14 17  1  0  0  0  0
M  END
> <VConfSearch Rank>
994

> <Conf_Id>
7

> <Delta U+W>
-0.041

> <U+W>
-49.468

> <U>
14.121

> <W>
-63.589

> <W(PB)>
-65.660

> <W(SA)>
2.071

> <Valence>
15.230

> <Coulomb>
-1.333

> <VdW>
0.224

> <VdW6>
-4.212

> <VdW12>
4.436

> <Bond>
0.044

> <Angle>
2.230

> <Pdih>
12.956

> <Idih>
0.000

> <Tether>
0.000

$$$$
VeraChem MOL file


 17 16  0  0  0  0  0  0  0  0999 V2000     
   17.5079   18.4500   22.5406 C   0  0  0  0  0  0  0  0  0  0  0  0
   17.2487   18.8730   23.6501 O   0  5  0  0  0  0  0  0  0  0  0  0
   17.3546   17.2901   22.2117 O   0  0  0  0  0  0  0  0  0  0  0  0
   18.0275   19.4334   21.4964 C   0  0  0  0  0  0  0  0  0  0  0  0
   17.5764   20.4113   21.7015 H   0  0  0  0  0  0  0  0  0  0  0  0
   17.6399   19.1216   20.5195 H   0  0  0  0  0  0  0  0  0  0  0  0
   19.5412   19.5753   21.4231 C   0  0  0  0  0  0  0  0  0  0  0  0
   19.8905   20.2819   20.6713 H   0  0  0  0  0  0  0  0  0  0  0  0
   20.4300   18.9248   22.1834 C   0  0  0  0  0  0  0  0  0  0  0  0
   20.1072   18.2137   22.9429 H   0  0  0  0  0  0  0  0  0  0  0  0
   21.9279   19.1013   22.0692 C   0  0  0  0  0  0  0  0  0  0  0  0
   22.4150   18.1175   22.0318 H   0  0  0  0  0  0  0  0  0  0  0  0
   22.1849   19.6159   21.1332 H   0  0  0  0  0  0  0  0  0  0  0  0
   22.4832   19.9042   23.2617 C   0  0  0  0  0  0  0  0  0  0  0  0
   23.5704   20.0280   23.1744 H   0  0  0  0  0  0  0  0  0  0  0  0
   22.0287   20.9029   23.3045 H   0  0  0  0  0  0  0  0  0  0  0  0
   22.2734   19.3923   24.2100 H   0  0  0  0  0  0  0  0  0  0  0  0
  1  2  1  0  0  0  0
  1  3  2  0  0  0  0
  1  4  1  0  0  0  0
  4  5  1  0  0  0  0
  4  6  1  0  0  0  0
  4  7  1  0  0  0  0
  7  8  1  0  0  0  0
  7  9  2  0  0  0  0
  9 10  1  0  0  0  0
  9 11  1  0  0  0  0
 11 12  1  0  0  0  0
 11 13  1  0  0  0  0
 11 14  1  0  0  0  0
 14 15  1  0  0  0  0
 14 16  1  0  0  0  0
 14 17  1  0  0  0  0
M  END
> <VConfSearch Rank>
995

> <Conf_Id>
39

> <Delta U+W>
-0.422

> <U+W>
-49.849

> <U>
14.465

> <W>
-64.314

> <W(PB)>
-66.406

> <W(SA)>
2.093

> <Valence>
14.072

> <Coulomb>
-0.199

> <VdW>
0.592

> <VdW6>
-5.019

> <VdW12>
5.611

> <Bond>
0.085

> <Angle>
2.748

> <Pdih>
11.238

> <Idih>
0.001

> <Tether>
0.000

$$$$
VeraChem MOL file


 17 16  0  0  0  0  0  0  0  0999 V2000     
   18.5647   19.5925   24.8494 C   0  0  0  0  0  0  0  0  0  0  0  0
   18.0252   20.6634   25.0475 O   0  5  0  0  0  0  0  0  0  0  0  0
   19.1502   18.9657   25.7103 O   0  0  0  0  0  0  0  0  0  0  0  0
   18.4974   19.0033   23.4466 C   0  0  0  0  0  0  0  0  0  0  0  0
   17.4873   19.1775   23.0583 H   0  0  0  0  0  0  0  0  0  0  0  0
   18.6286   17.9173   23.5239 H   0  0  0  0  0  0  0  0  0  0  0  0
   19.5264   19.6100   22.5118 C   0  0  0  0  0  0  0  0  0  0  0  0
   19.3645   20.6574   22.2587 H   0  0  0  0  0  0  0  0  0  0  0  0
   20.5730   18.9448   22.0133 C   0  0  0  0  0  0  0  0  0  0  0  0
   20.7359   17.8984   22.2692 H   0  0  0  0  0  0  0  0  0  0  0  0
   21.6001   19.5524   21.0844 C   0  0  0  0  0  0  0  0  0  0  0  0
   21.5170   20.6480   21.0832 H   0  0  0  0  0  0  0  0  0  0  0  0
   22.6108   19.3135   21.4421 H   0  0  0  0  0  0  0  0  0  0  0  0
   21.4263   19.0263   19.6463 C   0  0  0  0  0  0  0  0  0  0  0  0
   20.4305   19.2764   19.2574 H   0  0  0  0  0  0  0  0  0  0  0  0
   22.1748   19.4702   18.9771 H   0  0  0  0  0  0  0  0  0  0  0  0
   21.5429   17.9351   19.6117 H   0  0  0  0  0  0  0  0  0  0  0  0
  1  2  1  0  0  0  0
  1  3  2  0  0  0  0
  1  4  1  0  0  0  0
  4  5  1  0  0  0  0
  4  6  1  0  0  0  0
  4  7  1  0  0  0  0
  7  8  1  0  0  0  0
  7  9  2  0  0  0  0
  9 10  1  0  0  0  0
  9 11  1  0  0  0  0
 11 12  1  0  0  0  0
 11 13  1  0  0  0  0
 11 14  1  0  0  0  0
 14 15  1  0  0  0  0
 14 16  1  0  0  0  0
 14 17  1  0  0  0  0
M  END
> <VConfSearch Rank>
996

> <Conf_Id>
38

> <Delta U+W>
0.000

> <U+W>
-49.427

> <U>
13.666

> <W>
-63.093

> <W(PB)>
-65.225

> <W(SA)>
2.132

> <Valence>
15.226

> <Coulomb>
-1.822

> <VdW>
0.261

> <VdW6>
-4.165

> <VdW12>
4.426

> <Bond>
0.044

> <Angle>
2.229

> <Pdih>
12.953

> <Idih>
0.000

> <Tether>
0.000

$$$$
VeraChem MOL file


 17 16  0  0  0  0  0  0  0  0999 V2000     
   17.8299   18.3586   24.1300 C   0  0  0  0  0  0  0  0  0  0  0  0
   17.3564   19.3416   24.6651 O   0  5  0  0  0  0  0  0  0  0  0  0
   18.0087   17.3020   24.7031 O   0  0  0  0  0  0  0  0  0  0  0  0
   18.2159   18.4521   22.6596 C   0  0  0  0  0  0  0  0  0  0  0  0
   17.6294   19.2576   22.2015 H   0  0  0  0  0  0  0  0  0  0  0  0
   17.9120   17.5179   22.1735 H   0  0  0  0  0  0  0  0  0  0  0  0
   19.7022   18.6821   22.4627 C   0  0  0  0  0  0  0  0  0  0  0  0
   20.3436   17.8491   22.7488 H   0  0  0  0  0  0  0  0  0  0  0  0
   20.2300   19.8107   21.9791 C   0  0  0  0  0  0  0  0  0  0  0  0
   19.5882   20.6445   21.6963 H   0  0  0  0  0  0  0  0  0  0  0  0
   21.7125   20.0398   21.7872 C   0  0  0  0  0  0  0  0  0  0  0  0
   21.9962   21.0106   22.2158 H   0  0  0  0  0  0  0  0  0  0  0  0
   22.2921   19.2765   22.3244 H   0  0  0  0  0  0  0  0  0  0  0  0
   22.0890   20.0082   20.2931 C   0  0  0  0  0  0  0  0  0  0  0  0
   21.5518   20.7878   19.7372 H   0  0  0  0  0  0  0  0  0  0  0  0
   23.1657   20.1757   20.1601 H   0  0  0  0  0  0  0  0  0  0  0  0
   21.8379   19.0363   19.8482 H   0  0  0  0  0  0  0  0  0  0  0  0
  1  2  1  0  0  0  0
  1  3  2  0  0  0  0
  1  4  1  0  0  0  0
  4  5  1  0  0  0  0
  4  6  1  0  0  0  0
  4  7  1  0  0  0  0
  7  8  1  0  0  0  0
  7  9  2  0  0  0  0
  9 10  1  0  0  0  0
  9 11  1  0  0  0  0
 11 12  1  0  0  0  0
 11 13  1  0  0  0  0
 11 14  1  0  0  0  0
 14 15  1  0  0  0  0
 14 16  1  0  0  0  0
 14 17  1  0  0  0  0
M  END
> <VConfSearch Rank>
997

> <Conf_Id>
35

> <Delta U+W>
-0.102

> <U+W>
-49.529

> <U>
13.666

> <W>
-63.195

> <W(PB)>
-65.299

> <W(SA)>
2.103

> <Valence>
15.226

> <Coulomb>
-1.822

> <VdW>
0.261

> <VdW6>
-4.165

> <VdW12>
4.426

> <Bond>
0.044

> <Angle>
2.229

> <Pdih>
12.953

> <Idih>
0.000

> <Tether>
0.000

$$$$
VeraChem MOL file


 17 16  0  0  0  0  0  0  0  0999 V2000     
   21.6658   16.6241   21.4974 C   0  0  0  0  0  0  0  0  0  0  0  0
   22.8518   16.8587   21.3730 O   0  5  0  0  0  0  0  0  0  0  0  0
   21.2304   15.6676   22.1075 O   0  0  0  0  0  0  0  0  0  0  0  0
   20.6732   17.5768   20.8441 C   0  0  0  0  0  0  0  0  0  0  0  0
   19.7375   17.0317   20.6713 H   0  0  0  0  0  0  0  0  0  0  0  0
   21.0705   17.8513   19.8601 H   0  0  0  0  0  0  0  0  0  0  0  0
   20.4326   18.8235   21.6745 C   0  0  0  0  0  0  0  0  0  0  0  0
   21.2892   19.4911   21.7502 H   0  0  0  0  0  0  0  0  0  0  0  0
   19.2729   19.1042   22.2819 C   0  0  0  0  0  0  0  0  0  0  0  0
   18.4388   18.4097   22.1871 H   0  0  0  0  0  0  0  0  0  0  0  0
   18.9648   20.3276   23.1287 C   0  0  0  0  0  0  0  0  0  0  0  0
   18.1019   20.8523   22.6968 H   0  0  0  0  0  0  0  0  0  0  0  0
   18.6414   19.9987   24.1256 H   0  0  0  0  0  0  0  0  0  0  0  0
   20.1342   21.3249   23.2834 C   0  0  0  0  0  0  0  0  0  0  0  0
   20.4491   21.7173   22.3076 H   0  0  0  0  0  0  0  0  0  0  0  0
   19.8335   22.1769   23.9069 H   0  0  0  0  0  0  0  0  0  0  0  0
   20.9990   20.8468   23.7620 H   0  0  0  0  0  0  0  0  0  0  0  0
  1  2  1  0  0  0  0
  1  3  2  0  0  0  0
  1  4  1  0  0  0  0
  4  5  1  0  0  0  0
  4  6  1  0  0  0  0
  4  7  1  0  0  0  0
  7  8  1  0  0  0  0
  7  9  2  0  0  0  0
  9 10  1  0  0  0  0
  9 11  1  0  0  0  0
 11 12  1  0  0  0  0
 11 13  1  0  0  0  0
 11 14  1  0  0  0  0
 14 15  1  0  0  0  0
 14 16  1  0  0  0  0
 14 17  1  0  0  0  0
M  END
> <VConfSearch Rank>
998

> <Conf_Id>
19

> <Delta U+W>
-0.496

> <U+W>
-49.923

> <U>
13.863

> <W>
-63.786

> <W(PB)>
-65.856

> <W(SA)>
2.070

> <Valence>
14.117

> <Coulomb>
-1.228

> <VdW>
0.974

> <VdW6>
-4.885

> <VdW12>
5.859

> <Bond>
0.094

> <Angle>
2.818

> <Pdih>
11.205

> <Idih>
0.000

> <Tether>
0.000

$$$$
VeraChem MOL file


 17 16  0  0  0  0  0  0  0  0999 V2000     
   20.2100   16.4553   20.8668 C   0  0  0  0  0  0  0  0  0  0  0  0
   20.4094   16.7656   19.7089 O   0  5  0  0  0  0  0  0  0  0  0  0
   20.8087   15.5641   21.4363 O   0  0  0  0  0  0  0  0  0  0  0  0
   19.1448   17.2161   21.6454 C   0  0  0  0  0  0  0  0  0  0  0  0
   18.5775   16.4874   22.2359 H   0  0  0  0  0  0  0  0  0  0  0  0
   18.4460   17.6604   20.9265 H   0  0  0  0  0  0  0  0  0  0  0  0
   19.7363   18.2762   22.5550 C   0  0  0  0  0  0  0  0  0  0  0  0
   20.3206   17.8967   23.3927 H   0  0  0  0  0  0  0  0  0  0  0  0
   19.5835   19.5915   22.3741 C   0  0  0  0  0  0  0  0  0  0  0  0
   19.0035   19.9705   21.5332 H   0  0  0  0  0  0  0  0  0  0  0  0
   20.1766   20.6469   23.2805 C   0  0  0  0  0  0  0  0  0  0  0  0
   19.4067   21.3847   23.5442 H   0  0  0  0  0  0  0  0  0  0  0  0
   20.5178   20.1967   24.2229 H   0  0  0  0  0  0  0  0  0  0  0  0
   21.3601   21.3605   22.5986 C   0  0  0  0  0  0  0  0  0  0  0  0
   21.0388   21.8535   21.6717 H   0  0  0  0  0  0  0  0  0  0  0  0
   21.7870   22.1249   23.2608 H   0  0  0  0  0  0  0  0  0  0  0  0
   22.1542   20.6449   22.3476 H   0  0  0  0  0  0  0  0  0  0  0  0
  1  2  1  0  0  0  0
  1  3  2  0  0  0  0
  1  4  1  0  0  0  0
  4  5  1  0  0  0  0
  4  6  1  0  0  0  0
  4  7  1  0  0  0  0
  7  8  1  0  0  0  0
  7  9  2  0  0  0  0
  9 10  1  0  0  0  0
  9 11  1  0  0  0  0
 11 12  1  0  0  0  0
 11 13  1  0  0  0  0
 11 14  1  0  0  0  0
 14 15  1  0  0  0  0
 14 16  1  0  0  0  0
 14 17  1  0  0  0  0
M  END
> <VConfSearch Rank>
999

> <Conf_Id>
7

> <Delta U+W>
-0.041

> <U+W>
-49.468

> <U>
14.121

> <W>
-63.589

> <W(PB)>
-65.660

> <W(SA)>
2.071

> <Valence>
15.230

> <Coulomb>
-1.333

> <VdW>
0.224

> <VdW6>
-4.212

> <VdW12>
4.436

> <Bond>
0.044

> <Angle>
2.230

> <Pdih>
12.956

> <Idih>
0.000

> <Tether>
0.000

$$$$
VeraChem MOL file


 17 16  0  0  0  0  0  0  0  0999 V2000     
   17.4258   19.7075   22.6212 C   0  0  0  0  0  0  0  0  0  0  0  0
   17.0596   18.6040   22.9751 O   0  5  0  0  0  0  0  0  0  0  0  0
   16.9323   20.3117   21.6893 O   0  0  0  0  0  0  0  0  0  0  0  0
   18.5464   20.3824   23.4063 C   0  0  0  0  0  0  0  0  0  0  0  0
   18.4701   20.0554   24.4498 H   0  0  0  0  0  0  0  0  0  0  0  0
   18.3491   21.4607   23.4132 H   0  0  0  0  0  0  0  0  0  0  0  0
   19.9559   20.1248   22.8927 C   0  0  0  0  0  0  0  0  0  0  0  0
   20.7403   20.6159   23.4673 H   0  0  0  0  0  0  0  0  0  0  0  0
   20.2828   19.3712   21.8362 C   0  0  0  0  0  0  0  0  0  0  0  0
   19.5180   18.8686   21.2452 H   0  0  0  0  0  0  0  0  0  0  0  0
   21.7028   19.1480   21.3653 C   0  0  0  0  0  0  0  0  0  0  0  0
   21.7630   19.3093   20.2805 H   0  0  0  0  0  0  0  0  0  0  0  0
   22.3817   19.8761   21.8303 H   0  0  0  0  0  0  0  0  0  0  0  0
   22.1790   17.7210   21.6997 C   0  0  0  0  0  0  0  0  0  0  0  0
   23.2092   17.5642   21.3546 H   0  0  0  0  0  0  0  0  0  0  0  0
   22.1518   17.5449   22.7831 H   0  0  0  0  0  0  0  0  0  0  0  0
   21.5395   16.9713   21.2154 H   0  0  0  0  0  0  0  0  0  0  0  0
  1  2  1  0  0  0  0
  1  3  2  0  0  0  0
  1  4  1  0  0  0  0
  4  5  1  0  0  0  0
  4  6  1  0  0  0  0
  4  7  1  0  0  0  0
  7  8  1  0  0  0  0
  7  9  2  0  0  0  0
  9 10  1  0  0  0  0
  9 11  1  0  0  0  0
 11 12  1  0  0  0  0
 11 13  1  0  0  0  0
 11 14  1  0  0  0  0
 14 15  1  0  0  0  0
 14 16  1  0  0  0  0
 14 17  1  0  0  0  0
M  END
> <VConfSearch Rank>
1000

> <Conf_Id>
39

> <Delta U+W>
-0.422

> <U+W>
-49.849

> <U>
14.465

> <W>
-64.314

> <W(PB)>
-66.406

> <W(SA)>
2.093

> <Valence>
14.072

> <Coulomb>
-0.199

> <VdW>
0.592

> <VdW6>
-5.019

> <VdW12>
5.611

> <Bond>
0.085

> <Angle>
2.748

> <Pdih>
11.238

> <Idih>
0.001

> <Tether>
0.000

$$$$
