@<TRIPOS>MOLECULE
guest-s20_confgen4.mol2 : confsearch ligand conformer 1
          17          16           1
SMALL
USER_CHARGES
 
@<TRIPOS>ATOM
       1    C1      20.108434   19.022061   25.260307 C.2        1 MOL1         0.6132
       2    O1      21.195366   19.002336   25.803583 O.co2      1 MOL1        -0.6749
       3    O2      19.173038   18.326220   25.603322 O.co2      1 MOL1        -0.6749
       4    C2      19.908217   19.975366   24.089527 C.3        1 MOL1        -0.1955
       5    H1      20.402606   20.921221   24.339421 H          1 MOL1         0.0733
       6    H2      18.836113   20.187806   23.999518 H          1 MOL1         0.0733
       7    C3      20.464249   19.424467   22.790264 C.2        1 MOL1        -0.1395
       8    H3      21.549584   19.337818   22.748550 H          1 MOL1         0.0816
       9    C4      19.713056   19.057114   21.747676 C.2        1 MOL1        -0.1394
      10    H4      18.627656   19.141233   21.791172 H          1 MOL1         0.0816
      11    C5      20.269033   18.504454   20.454317 C.3        1 MOL1        -0.1826
      12    H5      21.320491   18.212177   20.581714 H          1 MOL1         0.0736
      13    H6      19.720813   17.594874   20.173862 H          1 MOL1         0.0736
      14    C6      20.161608   19.539981   19.318005 C.3        1 MOL1        -0.2882
      15    H7      20.724367   20.449819   19.565184 H          1 MOL1         0.0749
      16    H8      20.565960   19.133063   18.382055 H          1 MOL1         0.0749
      17    H9      19.115123   19.822097   19.142764 H          1 MOL1         0.0749
@<TRIPOS>BOND
    1     1     2    1
    2     1     3    2
    3     1     4    1
    4     4     5    1
    5     4     6    1
    6     4     7    1
    7     7     8    1
    8     7     9    2
    9     9    10    1
   10     9    11    1
   11    11    12    1
   12    11    13    1
   13    11    14    1
   14    14    15    1
   15    14    16    1
   16    14    17    1
@<TRIPOS>SUBSTRUCTURE
       1 MOL1            1 RESIDUE      1      MOL     
@<SCITEGIC>MOL_PROPERTY
VConf Rank
SciTegic.value.IntegerValue
1

@<SCITEGIC>MOL_PROPERTY
Conf_Id
SciTegic.value.IntegerValue
38

@<SCITEGIC>MOL_PROPERTY
Delta U+W
SciTegic.value.DoubleValue
0.000

@<SCITEGIC>MOL_PROPERTY
U+W
SciTegic.value.DoubleValue
-49.427

@<SCITEGIC>MOL_PROPERTY
Grad RMS
SciTegic.value.DoubleValue
0.000000

@<SCITEGIC>MOL_PROPERTY
U
SciTegic.value.DoubleValue
13.666

@<SCITEGIC>MOL_PROPERTY
W
SciTegic.value.DoubleValue
-63.093

@<SCITEGIC>MOL_PROPERTY
W(PB)
SciTegic.value.DoubleValue
-65.225

@<SCITEGIC>MOL_PROPERTY
W(SA)
SciTegic.value.DoubleValue
2.132

@<SCITEGIC>MOL_PROPERTY
Valence
SciTegic.value.DoubleValue
15.226

@<SCITEGIC>MOL_PROPERTY
Coulomb
SciTegic.value.DoubleValue
-1.822

@<SCITEGIC>MOL_PROPERTY
VdW
SciTegic.value.DoubleValue
0.261

@<SCITEGIC>MOL_PROPERTY
VdW6
SciTegic.value.DoubleValue
-4.165

@<SCITEGIC>MOL_PROPERTY
VdW12
SciTegic.value.DoubleValue
4.426

@<SCITEGIC>MOL_PROPERTY
Bond
SciTegic.value.DoubleValue
0.044

@<SCITEGIC>MOL_PROPERTY
Angle
SciTegic.value.DoubleValue
2.229

@<SCITEGIC>MOL_PROPERTY
Pdih
SciTegic.value.DoubleValue
12.953

@<SCITEGIC>MOL_PROPERTY
Idih
SciTegic.value.DoubleValue
0.000

@<SCITEGIC>MOL_PROPERTY
Tether
SciTegic.value.DoubleValue
0.000

@<TRIPOS>MOLECULE
guest-s20_confgen4.mol2 : confsearch ligand conformer 2
          17          16           1
SMALL
USER_CHARGES
 
@<TRIPOS>ATOM
       1    C1      20.118605   19.024623   25.260424 C.2        1 MOL1         0.6132
       2    O1      21.263143   18.861070   25.634724 O.co2      1 MOL1        -0.6749
       3    O2      19.159876   18.481296   25.772864 O.co2      1 MOL1        -0.6749
       4    C2      19.869322   19.965502   24.089011 C.3        1 MOL1        -0.1955
       5    H1      20.709873   20.667177   24.027632 H          1 MOL1         0.0733
       6    H2      18.974787   20.556070   24.318236 H          1 MOL1         0.0733
       7    C3      19.682663   19.224795   22.778571 C.2        1 MOL1        -0.1395
       8    H3      18.773724   18.628219   22.706947 H          1 MOL1         0.0816
       9    C4      20.547059   19.270443   21.760256 C.2        1 MOL1        -0.1394
      10    H4      21.457316   19.864655   21.833764 H          1 MOL1         0.0816
      11    C5      20.361224   18.528027   20.455800 C.3        1 MOL1        -0.1826
      12    H5      21.286216   17.994812   20.197725 H          1 MOL1         0.0736
      13    H6      19.575604   17.766399   20.555521 H          1 MOL1         0.0736
      14    C6      19.991109   19.496244   19.315348 C.3        1 MOL1        -0.2882
      15    H7      20.778577   20.246940   19.167776 H          1 MOL1         0.0749
      16    H8      19.858268   18.951911   18.371345 H          1 MOL1         0.0749
      17    H9      19.054160   20.022920   19.539712 H          1 MOL1         0.0749
@<TRIPOS>BOND
    1     1     2    1
    2     1     3    2
    3     1     4    1
    4     4     5    1
    5     4     6    1
    6     4     7    1
    7     7     8    1
    8     7     9    2
    9     9    10    1
   10     9    11    1
   11    11    12    1
   12    11    13    1
   13    11    14    1
   14    14    15    1
   15    14    16    1
   16    14    17    1
@<TRIPOS>SUBSTRUCTURE
       1 MOL1            1 RESIDUE      1      MOL     
@<SCITEGIC>MOL_PROPERTY
VConf Rank
SciTegic.value.IntegerValue
2

@<SCITEGIC>MOL_PROPERTY
Conf_Id
SciTegic.value.IntegerValue
35

@<SCITEGIC>MOL_PROPERTY
Delta U+W
SciTegic.value.DoubleValue
-0.102

@<SCITEGIC>MOL_PROPERTY
U+W
SciTegic.value.DoubleValue
-49.529

@<SCITEGIC>MOL_PROPERTY
Grad RMS
SciTegic.value.DoubleValue
0.000000

@<SCITEGIC>MOL_PROPERTY
U
SciTegic.value.DoubleValue
13.666

@<SCITEGIC>MOL_PROPERTY
W
SciTegic.value.DoubleValue
-63.195

@<SCITEGIC>MOL_PROPERTY
W(PB)
SciTegic.value.DoubleValue
-65.299

@<SCITEGIC>MOL_PROPERTY
W(SA)
SciTegic.value.DoubleValue
2.103

@<SCITEGIC>MOL_PROPERTY
Valence
SciTegic.value.DoubleValue
15.226

@<SCITEGIC>MOL_PROPERTY
Coulomb
SciTegic.value.DoubleValue
-1.822

@<SCITEGIC>MOL_PROPERTY
VdW
SciTegic.value.DoubleValue
0.261

@<SCITEGIC>MOL_PROPERTY
VdW6
SciTegic.value.DoubleValue
-4.165

@<SCITEGIC>MOL_PROPERTY
VdW12
SciTegic.value.DoubleValue
4.426

@<SCITEGIC>MOL_PROPERTY
Bond
SciTegic.value.DoubleValue
0.044

@<SCITEGIC>MOL_PROPERTY
Angle
SciTegic.value.DoubleValue
2.229

@<SCITEGIC>MOL_PROPERTY
Pdih
SciTegic.value.DoubleValue
12.953

@<SCITEGIC>MOL_PROPERTY
Idih
SciTegic.value.DoubleValue
0.000

@<SCITEGIC>MOL_PROPERTY
Tether
SciTegic.value.DoubleValue
0.000

@<TRIPOS>MOLECULE
guest-s20_confgen4.mol2 : confsearch ligand conformer 3
          17          16           1
SMALL
USER_CHARGES
 
@<TRIPOS>ATOM
       1    C1      20.089944   19.160976   25.150383 C.2        1 MOL1         0.6132
       2    O1      20.611804   20.176762   25.566091 O.co2      1 MOL1        -0.6749
       3    O2      19.024750   18.738606   25.555122 O.co2      1 MOL1        -0.6749
       4    C2      20.816684   18.370738   24.070075 C.3        1 MOL1        -0.1955
       5    H1      20.474347   17.330002   24.117611 H          1 MOL1         0.0733
       6    H2      21.884382   18.368422   24.318117 H          1 MOL1         0.0733
       7    C3      20.605427   18.951625   22.684670 C.2        1 MOL1        -0.1395
       8    H3      21.065036   19.925540   22.525488 H          1 MOL1         0.0816
       9    C4      19.909640   18.341633   21.716940 C.2        1 MOL1        -0.1394
      10    H4      19.460080   17.369068   21.914670 H          1 MOL1         0.0816
      11    C5      19.656204   18.865375   20.313354 C.3        1 MOL1        -0.1826
      12    H5      20.035384   18.134754   19.586085 H          1 MOL1         0.0736
      13    H6      18.572373   18.916572   20.142446 H          1 MOL1         0.0736
      14    C6      20.278547   20.246286   20.010365 C.3        1 MOL1        -0.2882
      15    H7      21.370750   20.218570   20.118657 H          1 MOL1         0.0749
      16    H8      20.050604   20.553768   18.981518 H          1 MOL1         0.0749
      17    H9      19.880909   21.014427   20.686628 H          1 MOL1         0.0749
@<TRIPOS>BOND
    1     1     2    1
    2     1     3    2
    3     1     4    1
    4     4     5    1
    5     4     6    1
    6     4     7    1
    7     7     8    1
    8     7     9    2
    9     9    10    1
   10     9    11    1
   11    11    12    1
   12    11    13    1
   13    11    14    1
   14    14    15    1
   15    14    16    1
   16    14    17    1
@<TRIPOS>SUBSTRUCTURE
       1 MOL1            1 RESIDUE      1      MOL     
@<SCITEGIC>MOL_PROPERTY
VConf Rank
SciTegic.value.IntegerValue
3

@<SCITEGIC>MOL_PROPERTY
Conf_Id
SciTegic.value.IntegerValue
19

@<SCITEGIC>MOL_PROPERTY
Delta U+W
SciTegic.value.DoubleValue
-0.496

@<SCITEGIC>MOL_PROPERTY
U+W
SciTegic.value.DoubleValue
-49.923

@<SCITEGIC>MOL_PROPERTY
Grad RMS
SciTegic.value.DoubleValue
0.000000

@<SCITEGIC>MOL_PROPERTY
U
SciTegic.value.DoubleValue
13.863

@<SCITEGIC>MOL_PROPERTY
W
SciTegic.value.DoubleValue
-63.786

@<SCITEGIC>MOL_PROPERTY
W(PB)
SciTegic.value.DoubleValue
-65.856

@<SCITEGIC>MOL_PROPERTY
W(SA)
SciTegic.value.DoubleValue
2.070

@<SCITEGIC>MOL_PROPERTY
Valence
SciTegic.value.DoubleValue
14.117

@<SCITEGIC>MOL_PROPERTY
Coulomb
SciTegic.value.DoubleValue
-1.228

@<SCITEGIC>MOL_PROPERTY
VdW
SciTegic.value.DoubleValue
0.974

@<SCITEGIC>MOL_PROPERTY
VdW6
SciTegic.value.DoubleValue
-4.885

@<SCITEGIC>MOL_PROPERTY
VdW12
SciTegic.value.DoubleValue
5.859

@<SCITEGIC>MOL_PROPERTY
Bond
SciTegic.value.DoubleValue
0.094

@<SCITEGIC>MOL_PROPERTY
Angle
SciTegic.value.DoubleValue
2.818

@<SCITEGIC>MOL_PROPERTY
Pdih
SciTegic.value.DoubleValue
11.205

@<SCITEGIC>MOL_PROPERTY
Idih
SciTegic.value.DoubleValue
0.000

@<SCITEGIC>MOL_PROPERTY
Tether
SciTegic.value.DoubleValue
0.000

@<TRIPOS>MOLECULE
guest-s20_confgen4.mol2 : confsearch ligand conformer 4
          17          16           1
SMALL
USER_CHARGES
 
@<TRIPOS>ATOM
       1    C1      20.117181   19.220176   25.143336 C.2        1 MOL1         0.6132
       2    O1      21.028448   19.990466   25.373679 O.co2      1 MOL1        -0.6749
       3    O2      19.023047   19.297909   25.666625 O.co2      1 MOL1        -0.6749
       4    C2      20.360579   18.088557   24.153375 C.3        1 MOL1        -0.1955
       5    H1      19.901459   17.181312   24.562765 H          1 MOL1         0.0733
       6    H2      21.440557   17.905669   24.099944 H          1 MOL1         0.0733
       7    C3      19.790950   18.386204   22.779442 C.2        1 MOL1        -0.1395
       8    H3      18.703462   18.427701   22.725918 H          1 MOL1         0.0816
       9    C4      20.533072   18.596853   21.688068 C.2        1 MOL1        -0.1394
      10    H4      21.620583   18.560333   21.743241 H          1 MOL1         0.0816
      11    C5      19.963128   18.896402   20.319576 C.3        1 MOL1        -0.1826
      12    H5      20.443476   18.254256   19.568952 H          1 MOL1         0.0736
      13    H6      18.889291   18.665555   20.291459 H          1 MOL1         0.0736
      14    C6      20.176595   20.375434   19.942898 C.3        1 MOL1        -0.2882
      15    H7      21.245691   20.624724   19.925203 H          1 MOL1         0.0749
      16    H8      19.760798   20.587388   18.949291 H          1 MOL1         0.0749
      17    H9      19.683258   21.037071   20.667148 H          1 MOL1         0.0749
@<TRIPOS>BOND
    1     1     2    1
    2     1     3    2
    3     1     4    1
    4     4     5    1
    5     4     6    1
    6     4     7    1
    7     7     8    1
    8     7     9    2
    9     9    10    1
   10     9    11    1
   11    11    12    1
   12    11    13    1
   13    11    14    1
   14    14    15    1
   15    14    16    1
   16    14    17    1
@<TRIPOS>SUBSTRUCTURE
       1 MOL1            1 RESIDUE      1      MOL     
@<SCITEGIC>MOL_PROPERTY
VConf Rank
SciTegic.value.IntegerValue
4

@<SCITEGIC>MOL_PROPERTY
Conf_Id
SciTegic.value.IntegerValue
7

@<SCITEGIC>MOL_PROPERTY
Delta U+W
SciTegic.value.DoubleValue
-0.041

@<SCITEGIC>MOL_PROPERTY
U+W
SciTegic.value.DoubleValue
-49.468

@<SCITEGIC>MOL_PROPERTY
Grad RMS
SciTegic.value.DoubleValue
0.000000

@<SCITEGIC>MOL_PROPERTY
U
SciTegic.value.DoubleValue
14.121

@<SCITEGIC>MOL_PROPERTY
W
SciTegic.value.DoubleValue
-63.589

@<SCITEGIC>MOL_PROPERTY
W(PB)
SciTegic.value.DoubleValue
-65.660

@<SCITEGIC>MOL_PROPERTY
W(SA)
SciTegic.value.DoubleValue
2.071

@<SCITEGIC>MOL_PROPERTY
Valence
SciTegic.value.DoubleValue
15.230

@<SCITEGIC>MOL_PROPERTY
Coulomb
SciTegic.value.DoubleValue
-1.333

@<SCITEGIC>MOL_PROPERTY
VdW
SciTegic.value.DoubleValue
0.224

@<SCITEGIC>MOL_PROPERTY
VdW6
SciTegic.value.DoubleValue
-4.212

@<SCITEGIC>MOL_PROPERTY
VdW12
SciTegic.value.DoubleValue
4.436

@<SCITEGIC>MOL_PROPERTY
Bond
SciTegic.value.DoubleValue
0.044

@<SCITEGIC>MOL_PROPERTY
Angle
SciTegic.value.DoubleValue
2.230

@<SCITEGIC>MOL_PROPERTY
Pdih
SciTegic.value.DoubleValue
12.956

@<SCITEGIC>MOL_PROPERTY
Idih
SciTegic.value.DoubleValue
0.000

@<SCITEGIC>MOL_PROPERTY
Tether
SciTegic.value.DoubleValue
0.000

@<TRIPOS>MOLECULE
guest-s20_confgen4.mol2 : confsearch ligand conformer 5
          17          16           1
SMALL
USER_CHARGES
 
@<TRIPOS>ATOM
       1    C1      20.220992   18.939818   25.006201 C.2        1 MOL1         0.6132
       2    O1      21.412723   18.775510   25.178748 O.co2      1 MOL1        -0.6749
       3    O2      19.372287   18.165360   25.402430 O.co2      1 MOL1        -0.6749
       4    C2      19.764082   20.199870   24.277449 C.3        1 MOL1        -0.1955
       5    H1      20.476899   20.999751   24.509510 H          1 MOL1         0.0733
       6    H2      18.808151   20.512085   24.713840 H          1 MOL1         0.0733
       7    C3      19.617536   20.069315   22.768026 C.2        1 MOL1        -0.1395
       8    H3      19.290422   20.979983   22.267801 H          1 MOL1         0.0816
       9    C4      19.853490   18.966715   22.047198 C.2        1 MOL1        -0.1394
      10    H4      20.182305   18.043284   22.522478 H          1 MOL1         0.0816
      11    C5      19.690774   18.889067   20.545388 C.3        1 MOL1        -0.1826
      12    H5      19.115308   17.991579   20.281051 H          1 MOL1         0.0736
      13    H6      19.118533   19.750703   20.174878 H          1 MOL1         0.0736
      14    C6      21.061116   18.846346   19.841559 C.3        1 MOL1        -0.2882
      15    H7      20.937033   18.788645   18.752370 H          1 MOL1         0.0749
      16    H8      21.645303   19.747302   20.070901 H          1 MOL1         0.0749
      17    H9      21.640453   17.971740   20.165427 H          1 MOL1         0.0749
@<TRIPOS>BOND
    1     1     2    1
    2     1     3    2
    3     1     4    1
    4     4     5    1
    5     4     6    1
    6     4     7    1
    7     7     8    1
    8     7     9    2
    9     9    10    1
   10     9    11    1
   11    11    12    1
   12    11    13    1
   13    11    14    1
   14    14    15    1
   15    14    16    1
   16    14    17    1
@<TRIPOS>SUBSTRUCTURE
       1 MOL1            1 RESIDUE      1      MOL     
@<SCITEGIC>MOL_PROPERTY
VConf Rank
SciTegic.value.IntegerValue
5

@<SCITEGIC>MOL_PROPERTY
Conf_Id
SciTegic.value.IntegerValue
39

@<SCITEGIC>MOL_PROPERTY
Delta U+W
SciTegic.value.DoubleValue
-0.422

@<SCITEGIC>MOL_PROPERTY
U+W
SciTegic.value.DoubleValue
-49.849

@<SCITEGIC>MOL_PROPERTY
Grad RMS
SciTegic.value.DoubleValue
0.000000

@<SCITEGIC>MOL_PROPERTY
U
SciTegic.value.DoubleValue
14.465

@<SCITEGIC>MOL_PROPERTY
W
SciTegic.value.DoubleValue
-64.314

@<SCITEGIC>MOL_PROPERTY
W(PB)
SciTegic.value.DoubleValue
-66.406

@<SCITEGIC>MOL_PROPERTY
W(SA)
SciTegic.value.DoubleValue
2.093

@<SCITEGIC>MOL_PROPERTY
Valence
SciTegic.value.DoubleValue
14.072

@<SCITEGIC>MOL_PROPERTY
Coulomb
SciTegic.value.DoubleValue
-0.199

@<SCITEGIC>MOL_PROPERTY
VdW
SciTegic.value.DoubleValue
0.592

@<SCITEGIC>MOL_PROPERTY
VdW6
SciTegic.value.DoubleValue
-5.019

@<SCITEGIC>MOL_PROPERTY
VdW12
SciTegic.value.DoubleValue
5.611

@<SCITEGIC>MOL_PROPERTY
Bond
SciTegic.value.DoubleValue
0.085

@<SCITEGIC>MOL_PROPERTY
Angle
SciTegic.value.DoubleValue
2.748

@<SCITEGIC>MOL_PROPERTY
Pdih
SciTegic.value.DoubleValue
11.238

@<SCITEGIC>MOL_PROPERTY
Idih
SciTegic.value.DoubleValue
0.001

@<SCITEGIC>MOL_PROPERTY
Tether
SciTegic.value.DoubleValue
0.000

@<TRIPOS>MOLECULE
guest-s20_confgen4.mol2 : confsearch ligand conformer 6
          17          16           1
SMALL
USER_CHARGES
 
@<TRIPOS>ATOM
       1    C1      22.840976   19.743662   20.577879 C.2        1 MOL1         0.6132
       2    O1      22.760829   20.135510   19.430276 O.co2      1 MOL1        -0.6749
       3    O2      23.652113   18.919430   20.951398 O.co2      1 MOL1        -0.6749
       4    C2      21.874860   20.322374   21.603217 C.3        1 MOL1        -0.1955
       5    H1      21.781266   21.396596   21.406251 H          1 MOL1         0.0733
       6    H2      22.325671   20.216628   22.597313 H          1 MOL1         0.0733
       7    C3      20.509951   19.662698   21.552261 C.2        1 MOL1        -0.1395
       8    H3      19.931228   19.860436   20.650495 H          1 MOL1         0.0816
       9    C4      20.014841   18.885314   22.520128 C.2        1 MOL1        -0.1394
      10    H4      20.595289   18.685586   23.420266 H          1 MOL1         0.0816
      11    C5      18.655151   18.225294   22.465917 C.3        1 MOL1        -0.1826
      12    H5      18.251932   18.259058   21.444401 H          1 MOL1         0.0736
      13    H6      18.747368   17.163947   22.733451 H          1 MOL1         0.0736
      14    C6      17.666709   18.913473   23.427401 C.3        1 MOL1        -0.2882
      15    H7      17.538488   19.971477   23.163226 H          1 MOL1         0.0749
      16    H8      16.682176   18.429833   23.384131 H          1 MOL1         0.0749
      17    H9      18.026866   18.860794   24.463230 H          1 MOL1         0.0749
@<TRIPOS>BOND
    1     1     2    1
    2     1     3    2
    3     1     4    1
    4     4     5    1
    5     4     6    1
    6     4     7    1
    7     7     8    1
    8     7     9    2
    9     9    10    1
   10     9    11    1
   11    11    12    1
   12    11    13    1
   13    11    14    1
   14    14    15    1
   15    14    16    1
   16    14    17    1
@<TRIPOS>SUBSTRUCTURE
       1 MOL1            1 RESIDUE      1      MOL     
@<SCITEGIC>MOL_PROPERTY
VConf Rank
SciTegic.value.IntegerValue
6

@<SCITEGIC>MOL_PROPERTY
Conf_Id
SciTegic.value.IntegerValue
38

@<SCITEGIC>MOL_PROPERTY
Delta U+W
SciTegic.value.DoubleValue
0.000

@<SCITEGIC>MOL_PROPERTY
U+W
SciTegic.value.DoubleValue
-49.427

@<SCITEGIC>MOL_PROPERTY
Grad RMS
SciTegic.value.DoubleValue
0.000000

@<SCITEGIC>MOL_PROPERTY
U
SciTegic.value.DoubleValue
13.666

@<SCITEGIC>MOL_PROPERTY
W
SciTegic.value.DoubleValue
-63.093

@<SCITEGIC>MOL_PROPERTY
W(PB)
SciTegic.value.DoubleValue
-65.225

@<SCITEGIC>MOL_PROPERTY
W(SA)
SciTegic.value.DoubleValue
2.132

@<SCITEGIC>MOL_PROPERTY
Valence
SciTegic.value.DoubleValue
15.226

@<SCITEGIC>MOL_PROPERTY
Coulomb
SciTegic.value.DoubleValue
-1.822

@<SCITEGIC>MOL_PROPERTY
VdW
SciTegic.value.DoubleValue
0.261

@<SCITEGIC>MOL_PROPERTY
VdW6
SciTegic.value.DoubleValue
-4.165

@<SCITEGIC>MOL_PROPERTY
VdW12
SciTegic.value.DoubleValue
4.426

@<SCITEGIC>MOL_PROPERTY
Bond
SciTegic.value.DoubleValue
0.044

@<SCITEGIC>MOL_PROPERTY
Angle
SciTegic.value.DoubleValue
2.229

@<SCITEGIC>MOL_PROPERTY
Pdih
SciTegic.value.DoubleValue
12.953

@<SCITEGIC>MOL_PROPERTY
Idih
SciTegic.value.DoubleValue
0.000

@<SCITEGIC>MOL_PROPERTY
Tether
SciTegic.value.DoubleValue
0.000

@<TRIPOS>MOLECULE
guest-s20_confgen4.mol2 : confsearch ligand conformer 7
          17          16           1
SMALL
USER_CHARGES
 
@<TRIPOS>ATOM
       1    C1      17.228132   18.029197   22.666685 C.2        1 MOL1         0.6132
       2    O1      17.314876   16.817083   22.675318 O.co2      1 MOL1        -0.6749
       3    O2      16.276344   18.631559   22.210373 O.co2      1 MOL1        -0.6749
       4    C2      18.370826   18.839304   23.264666 C.3        1 MOL1        -0.1955
       5    H1      18.905200   18.202584   23.979978 H          1 MOL1         0.0733
       6    H2      17.932415   19.665567   23.836149 H          1 MOL1         0.0733
       7    C3      19.314647   19.380291   22.207652 C.2        1 MOL1        -0.1395
       8    H3      18.893717   20.145412   21.556032 H          1 MOL1         0.0816
       9    C4      20.578097   18.973995   22.050028 C.2        1 MOL1        -0.1394
      10    H4      20.997380   18.206598   22.699924 H          1 MOL1         0.0816
      11    C5      21.516544   19.511739   20.992924 C.3        1 MOL1        -0.1826
      12    H5      22.004727   18.677283   20.471490 H          1 MOL1         0.0736
      13    H6      20.957334   20.074566   20.232838 H          1 MOL1         0.0736
      14    C6      22.589167   20.425246   21.617461 C.3        1 MOL1        -0.2882
      15    H7      23.189622   19.876767   22.355061 H          1 MOL1         0.0749
      16    H8      23.267489   20.811787   20.845742 H          1 MOL1         0.0749
      17    H9      22.125009   21.282127   22.123337 H          1 MOL1         0.0749
@<TRIPOS>BOND
    1     1     2    1
    2     1     3    2
    3     1     4    1
    4     4     5    1
    5     4     6    1
    6     4     7    1
    7     7     8    1
    8     7     9    2
    9     9    10    1
   10     9    11    1
   11    11    12    1
   12    11    13    1
   13    11    14    1
   14    14    15    1
   15    14    16    1
   16    14    17    1
@<TRIPOS>SUBSTRUCTURE
       1 MOL1            1 RESIDUE      1      MOL     
@<SCITEGIC>MOL_PROPERTY
VConf Rank
SciTegic.value.IntegerValue
7

@<SCITEGIC>MOL_PROPERTY
Conf_Id
SciTegic.value.IntegerValue
35

@<SCITEGIC>MOL_PROPERTY
Delta U+W
SciTegic.value.DoubleValue
-0.102

@<SCITEGIC>MOL_PROPERTY
U+W
SciTegic.value.DoubleValue
-49.529

@<SCITEGIC>MOL_PROPERTY
Grad RMS
SciTegic.value.DoubleValue
0.000000

@<SCITEGIC>MOL_PROPERTY
U
SciTegic.value.DoubleValue
13.666

@<SCITEGIC>MOL_PROPERTY
W
SciTegic.value.DoubleValue
-63.195

@<SCITEGIC>MOL_PROPERTY
W(PB)
SciTegic.value.DoubleValue
-65.299

@<SCITEGIC>MOL_PROPERTY
W(SA)
SciTegic.value.DoubleValue
2.103

@<SCITEGIC>MOL_PROPERTY
Valence
SciTegic.value.DoubleValue
15.226

@<SCITEGIC>MOL_PROPERTY
Coulomb
SciTegic.value.DoubleValue
-1.822

@<SCITEGIC>MOL_PROPERTY
VdW
SciTegic.value.DoubleValue
0.261

@<SCITEGIC>MOL_PROPERTY
VdW6
SciTegic.value.DoubleValue
-4.165

@<SCITEGIC>MOL_PROPERTY
VdW12
SciTegic.value.DoubleValue
4.426

@<SCITEGIC>MOL_PROPERTY
Bond
SciTegic.value.DoubleValue
0.044

@<SCITEGIC>MOL_PROPERTY
Angle
SciTegic.value.DoubleValue
2.229

@<SCITEGIC>MOL_PROPERTY
Pdih
SciTegic.value.DoubleValue
12.953

@<SCITEGIC>MOL_PROPERTY
Idih
SciTegic.value.DoubleValue
0.000

@<SCITEGIC>MOL_PROPERTY
Tether
SciTegic.value.DoubleValue
0.000

@<TRIPOS>MOLECULE
guest-s20_confgen4.mol2 : confsearch ligand conformer 8
          17          16           1
SMALL
USER_CHARGES
 
@<TRIPOS>ATOM
       1    C1      21.916484   17.704043   20.230759 C.2        1 MOL1         0.6132
       2    O1      22.888927   18.383683   19.967293 O.co2      1 MOL1        -0.6749
       3    O2      21.971761   16.511575   20.458385 O.co2      1 MOL1        -0.6749
       4    C2      20.554100   18.383916   20.267872 C.3        1 MOL1        -0.1955
       5    H1      19.785976   17.622873   20.085162 H          1 MOL1         0.0733
       6    H2      20.509935   19.090930   19.431396 H          1 MOL1         0.0733
       7    C3      20.302800   19.109299   21.576334 C.2        1 MOL1        -0.1395
       8    H3      20.935218   19.979767   21.741930 H          1 MOL1         0.0816
       9    C4      19.387892   18.729730   22.477213 C.2        1 MOL1        -0.1394
      10    H4      18.776097   17.850307   22.278705 H          1 MOL1         0.0816
      11    C5      19.086893   19.404706   23.804766 C.3        1 MOL1        -0.1826
      12    H5      18.025625   19.686897   23.828959 H          1 MOL1         0.0736
      13    H6      19.216177   18.673130   24.613842 H          1 MOL1         0.0736
      14    C6      19.946000   20.651085   24.112177 C.3        1 MOL1        -0.2882
      15    H7      19.800089   21.427925   23.350185 H          1 MOL1         0.0749
      16    H8      19.669886   21.078459   25.084875 H          1 MOL1         0.0749
      17    H9      21.013004   20.394798   24.148367 H          1 MOL1         0.0749
@<TRIPOS>BOND
    1     1     2    1
    2     1     3    2
    3     1     4    1
    4     4     5    1
    5     4     6    1
    6     4     7    1
    7     7     8    1
    8     7     9    2
    9     9    10    1
   10     9    11    1
   11    11    12    1
   12    11    13    1
   13    11    14    1
   14    14    15    1
   15    14    16    1
   16    14    17    1
@<TRIPOS>SUBSTRUCTURE
       1 MOL1            1 RESIDUE      1      MOL     
@<SCITEGIC>MOL_PROPERTY
VConf Rank
SciTegic.value.IntegerValue
8

@<SCITEGIC>MOL_PROPERTY
Conf_Id
SciTegic.value.IntegerValue
19

@<SCITEGIC>MOL_PROPERTY
Delta U+W
SciTegic.value.DoubleValue
-0.496

@<SCITEGIC>MOL_PROPERTY
U+W
SciTegic.value.DoubleValue
-49.923

@<SCITEGIC>MOL_PROPERTY
Grad RMS
SciTegic.value.DoubleValue
0.000000

@<SCITEGIC>MOL_PROPERTY
U
SciTegic.value.DoubleValue
13.863

@<SCITEGIC>MOL_PROPERTY
W
SciTegic.value.DoubleValue
-63.786

@<SCITEGIC>MOL_PROPERTY
W(PB)
SciTegic.value.DoubleValue
-65.856

@<SCITEGIC>MOL_PROPERTY
W(SA)
SciTegic.value.DoubleValue
2.070

@<SCITEGIC>MOL_PROPERTY
Valence
SciTegic.value.DoubleValue
14.117

@<SCITEGIC>MOL_PROPERTY
Coulomb
SciTegic.value.DoubleValue
-1.228

@<SCITEGIC>MOL_PROPERTY
VdW
SciTegic.value.DoubleValue
0.974

@<SCITEGIC>MOL_PROPERTY
VdW6
SciTegic.value.DoubleValue
-4.885

@<SCITEGIC>MOL_PROPERTY
VdW12
SciTegic.value.DoubleValue
5.859

@<SCITEGIC>MOL_PROPERTY
Bond
SciTegic.value.DoubleValue
0.094

@<SCITEGIC>MOL_PROPERTY
Angle
SciTegic.value.DoubleValue
2.818

@<SCITEGIC>MOL_PROPERTY
Pdih
SciTegic.value.DoubleValue
11.205

@<SCITEGIC>MOL_PROPERTY
Idih
SciTegic.value.DoubleValue
0.000

@<SCITEGIC>MOL_PROPERTY
Tether
SciTegic.value.DoubleValue
0.000

@<TRIPOS>MOLECULE
guest-s20_confgen4.mol2 : confsearch ligand conformer 9
          17          16           1
SMALL
USER_CHARGES
 
@<TRIPOS>ATOM
       1    C1      18.160415   17.126448   23.146935 C.2        1 MOL1         0.6132
       2    O1      18.207146   17.268932   24.352890 O.co2      1 MOL1        -0.6749
       3    O2      17.122864   17.070885   22.516536 O.co2      1 MOL1        -0.6749
       4    C2      19.472028   16.999611   22.383121 C.3        1 MOL1        -0.1955
       5    H1      19.347403   16.210134   21.633001 H          1 MOL1         0.0733
       6    H2      20.244875   16.658692   23.082504 H          1 MOL1         0.0733
       7    C3      19.880710   18.296679   21.711291 C.2        1 MOL1        -0.1395
       8    H3      19.237935   18.618990   20.892651 H          1 MOL1         0.0816
       9    C4      20.940419   19.027446   22.070755 C.2        1 MOL1        -0.1394
      10    H4      21.579842   18.707328   22.892779 H          1 MOL1         0.0816
      11    C5      21.344505   20.322060   21.401410 C.3        1 MOL1        -0.1826
      12    H5      22.418429   20.301481   21.171661 H          1 MOL1         0.0736
      13    H6      20.819228   20.439857   20.443592 H          1 MOL1         0.0736
      14    C6      21.035278   21.531922   22.304519 C.3        1 MOL1        -0.2882
      15    H7      21.578878   21.459748   23.255684 H          1 MOL1         0.0749
      16    H8      21.330024   22.468628   21.813832 H          1 MOL1         0.0749
      17    H9      19.961596   21.587168   22.527761 H          1 MOL1         0.0749
@<TRIPOS>BOND
    1     1     2    1
    2     1     3    2
    3     1     4    1
    4     4     5    1
    5     4     6    1
    6     4     7    1
    7     7     8    1
    8     7     9    2
    9     9    10    1
   10     9    11    1
   11    11    12    1
   12    11    13    1
   13    11    14    1
   14    14    15    1
   15    14    16    1
   16    14    17    1
@<TRIPOS>SUBSTRUCTURE
       1 MOL1            1 RESIDUE      1      MOL     
@<SCITEGIC>MOL_PROPERTY
VConf Rank
SciTegic.value.IntegerValue
9

@<SCITEGIC>MOL_PROPERTY
Conf_Id
SciTegic.value.IntegerValue
7

@<SCITEGIC>MOL_PROPERTY
Delta U+W
SciTegic.value.DoubleValue
-0.041

@<SCITEGIC>MOL_PROPERTY
U+W
SciTegic.value.DoubleValue
-49.468

@<SCITEGIC>MOL_PROPERTY
Grad RMS
SciTegic.value.DoubleValue
0.000000

@<SCITEGIC>MOL_PROPERTY
U
SciTegic.value.DoubleValue
14.121

@<SCITEGIC>MOL_PROPERTY
W
SciTegic.value.DoubleValue
-63.589

@<SCITEGIC>MOL_PROPERTY
W(PB)
SciTegic.value.DoubleValue
-65.660

@<SCITEGIC>MOL_PROPERTY
W(SA)
SciTegic.value.DoubleValue
2.071

@<SCITEGIC>MOL_PROPERTY
Valence
SciTegic.value.DoubleValue
15.230

@<SCITEGIC>MOL_PROPERTY
Coulomb
SciTegic.value.DoubleValue
-1.333

@<SCITEGIC>MOL_PROPERTY
VdW
SciTegic.value.DoubleValue
0.224

@<SCITEGIC>MOL_PROPERTY
VdW6
SciTegic.value.DoubleValue
-4.212

@<SCITEGIC>MOL_PROPERTY
VdW12
SciTegic.value.DoubleValue
4.436

@<SCITEGIC>MOL_PROPERTY
Bond
SciTegic.value.DoubleValue
0.044

@<SCITEGIC>MOL_PROPERTY
Angle
SciTegic.value.DoubleValue
2.230

@<SCITEGIC>MOL_PROPERTY
Pdih
SciTegic.value.DoubleValue
12.956

@<SCITEGIC>MOL_PROPERTY
Idih
SciTegic.value.DoubleValue
0.000

@<SCITEGIC>MOL_PROPERTY
Tether
SciTegic.value.DoubleValue
0.000

@<TRIPOS>MOLECULE
guest-s20_confgen4.mol2 : confsearch ligand conformer 10
          17          16           1
SMALL
USER_CHARGES
 
@<TRIPOS>ATOM
       1    C1      18.924720   17.285501   20.774464 C.2        1 MOL1         0.6132
       2    O1      19.896765   16.671004   20.381379 O.co2      1 MOL1        -0.6749
       3    O2      18.064282   17.724016   20.036607 O.co2      1 MOL1        -0.6749
       4    C2      18.761340   17.493576   22.276992 C.3        1 MOL1        -0.1955
       5    H1      19.199385   16.627143   22.786089 H          1 MOL1         0.0733
       6    H2      17.689413   17.466938   22.504989 H          1 MOL1         0.0733
       7    C3      19.369660   18.773251   22.833099 C.2        1 MOL1        -0.1395
       8    H3      19.241593   18.901968   23.907146 H          1 MOL1         0.0816
       9    C4      20.021567   19.705439   22.128090 C.2        1 MOL1        -0.1394
      10    H4      20.164247   19.600676   21.053195 H          1 MOL1         0.0816
      11    C5      20.607321   20.963254   22.730365 C.3        1 MOL1        -0.1826
      12    H5      20.313480   21.833788   22.128411 H          1 MOL1         0.0736
      13    H6      20.207553   21.129089   23.740236 H          1 MOL1         0.0736
      14    C6      22.144746   20.880723   22.797799 C.3        1 MOL1        -0.2882
      15    H7      22.564391   21.796405   23.234243 H          1 MOL1         0.0749
      16    H8      22.462676   20.031309   23.416678 H          1 MOL1         0.0749
      17    H9      22.574267   20.752991   21.795474 H          1 MOL1         0.0749
@<TRIPOS>BOND
    1     1     2    1
    2     1     3    2
    3     1     4    1
    4     4     5    1
    5     4     6    1
    6     4     7    1
    7     7     8    1
    8     7     9    2
    9     9    10    1
   10     9    11    1
   11    11    12    1
   12    11    13    1
   13    11    14    1
   14    14    15    1
   15    14    16    1
   16    14    17    1
@<TRIPOS>SUBSTRUCTURE
       1 MOL1            1 RESIDUE      1      MOL     
@<SCITEGIC>MOL_PROPERTY
VConf Rank
SciTegic.value.IntegerValue
10

@<SCITEGIC>MOL_PROPERTY
Conf_Id
SciTegic.value.IntegerValue
39

@<SCITEGIC>MOL_PROPERTY
Delta U+W
SciTegic.value.DoubleValue
-0.422

@<SCITEGIC>MOL_PROPERTY
U+W
SciTegic.value.DoubleValue
-49.849

@<SCITEGIC>MOL_PROPERTY
Grad RMS
SciTegic.value.DoubleValue
0.000000

@<SCITEGIC>MOL_PROPERTY
U
SciTegic.value.DoubleValue
14.465

@<SCITEGIC>MOL_PROPERTY
W
SciTegic.value.DoubleValue
-64.314

@<SCITEGIC>MOL_PROPERTY
W(PB)
SciTegic.value.DoubleValue
-66.406

@<SCITEGIC>MOL_PROPERTY
W(SA)
SciTegic.value.DoubleValue
2.093

@<SCITEGIC>MOL_PROPERTY
Valence
SciTegic.value.DoubleValue
14.072

@<SCITEGIC>MOL_PROPERTY
Coulomb
SciTegic.value.DoubleValue
-0.199

@<SCITEGIC>MOL_PROPERTY
VdW
SciTegic.value.DoubleValue
0.592

@<SCITEGIC>MOL_PROPERTY
VdW6
SciTegic.value.DoubleValue
-5.019

@<SCITEGIC>MOL_PROPERTY
VdW12
SciTegic.value.DoubleValue
5.611

@<SCITEGIC>MOL_PROPERTY
Bond
SciTegic.value.DoubleValue
0.085

@<SCITEGIC>MOL_PROPERTY
Angle
SciTegic.value.DoubleValue
2.748

@<SCITEGIC>MOL_PROPERTY
Pdih
SciTegic.value.DoubleValue
11.238

@<SCITEGIC>MOL_PROPERTY
Idih
SciTegic.value.DoubleValue
0.001

@<SCITEGIC>MOL_PROPERTY
Tether
SciTegic.value.DoubleValue
0.000

@<TRIPOS>MOLECULE
guest-s20_confgen4.mol2 : confsearch ligand conformer 11
          17          16           1
SMALL
USER_CHARGES
 
@<TRIPOS>ATOM
       1    C1      17.100347   18.601723   22.821260 C.2        1 MOL1         0.6132
       2    O1      16.466862   19.475907   23.379346 O.co2      1 MOL1        -0.6749
       3    O2      17.012879   17.423232   23.104679 O.co2      1 MOL1        -0.6749
       4    C2      18.050979   19.006827   21.702424 C.3        1 MOL1        -0.1955
       5    H1      17.553325   19.777700   21.102752 H          1 MOL1         0.0733
       6    H2      18.201106   18.139164   21.048770 H          1 MOL1         0.0733
       7    C3      19.375458   19.528673   22.226043 C.2        1 MOL1        -0.1395
       8    H3      19.324642   20.481427   22.752237 H          1 MOL1         0.0816
       9    C4      20.543548   18.896501   22.077213 C.2        1 MOL1        -0.1394
      10    H4      20.593186   17.942375   21.553532 H          1 MOL1         0.0816
      11    C5      21.862681   19.416536   22.603304 C.3        1 MOL1        -0.1826
      12    H5      21.695637   20.227534   23.325522 H          1 MOL1         0.0736
      13    H6      22.387612   18.616850   23.143197 H          1 MOL1         0.0736
      14    C6      22.752624   19.931276   21.455216 C.3        1 MOL1        -0.2882
      15    H7      22.258473   20.750222   20.916009 H          1 MOL1         0.0749
      16    H8      23.708534   20.306689   21.843014 H          1 MOL1         0.0749
      17    H9      22.967820   19.129474   20.736723 H          1 MOL1         0.0749
@<TRIPOS>BOND
    1     1     2    1
    2     1     3    2
    3     1     4    1
    4     4     5    1
    5     4     6    1
    6     4     7    1
    7     7     8    1
    8     7     9    2
    9     9    10    1
   10     9    11    1
   11    11    12    1
   12    11    13    1
   13    11    14    1
   14    14    15    1
   15    14    16    1
   16    14    17    1
@<TRIPOS>SUBSTRUCTURE
       1 MOL1            1 RESIDUE      1      MOL     
@<SCITEGIC>MOL_PROPERTY
VConf Rank
SciTegic.value.IntegerValue
11

@<SCITEGIC>MOL_PROPERTY
Conf_Id
SciTegic.value.IntegerValue
38

@<SCITEGIC>MOL_PROPERTY
Delta U+W
SciTegic.value.DoubleValue
0.000

@<SCITEGIC>MOL_PROPERTY
U+W
SciTegic.value.DoubleValue
-49.427

@<SCITEGIC>MOL_PROPERTY
Grad RMS
SciTegic.value.DoubleValue
0.000000

@<SCITEGIC>MOL_PROPERTY
U
SciTegic.value.DoubleValue
13.666

@<SCITEGIC>MOL_PROPERTY
W
SciTegic.value.DoubleValue
-63.093

@<SCITEGIC>MOL_PROPERTY
W(PB)
SciTegic.value.DoubleValue
-65.225

@<SCITEGIC>MOL_PROPERTY
W(SA)
SciTegic.value.DoubleValue
2.132

@<SCITEGIC>MOL_PROPERTY
Valence
SciTegic.value.DoubleValue
15.226

@<SCITEGIC>MOL_PROPERTY
Coulomb
SciTegic.value.DoubleValue
-1.822

@<SCITEGIC>MOL_PROPERTY
VdW
SciTegic.value.DoubleValue
0.261

@<SCITEGIC>MOL_PROPERTY
VdW6
SciTegic.value.DoubleValue
-4.165

@<SCITEGIC>MOL_PROPERTY
VdW12
SciTegic.value.DoubleValue
4.426

@<SCITEGIC>MOL_PROPERTY
Bond
SciTegic.value.DoubleValue
0.044

@<SCITEGIC>MOL_PROPERTY
Angle
SciTegic.value.DoubleValue
2.229

@<SCITEGIC>MOL_PROPERTY
Pdih
SciTegic.value.DoubleValue
12.953

@<SCITEGIC>MOL_PROPERTY
Idih
SciTegic.value.DoubleValue
0.000

@<SCITEGIC>MOL_PROPERTY
Tether
SciTegic.value.DoubleValue
0.000

@<TRIPOS>MOLECULE
guest-s20_confgen4.mol2 : confsearch ligand conformer 12
          17          16           1
SMALL
USER_CHARGES
 
@<TRIPOS>ATOM
       1    C1      22.621358   20.980848   22.913496 C.2        1 MOL1         0.6132
       2    O1      22.264221   22.104016   23.209749 O.co2      1 MOL1        -0.6749
       3    O2      23.652444   20.738836   22.317465 O.co2      1 MOL1        -0.6749
       4    C2      21.732574   19.810972   23.314818 C.3        1 MOL1        -0.1955
       5    H1      21.116463   20.124422   24.166168 H          1 MOL1         0.0733
       6    H2      22.382565   19.002867   23.669762 H          1 MOL1         0.0733
       7    C3      20.867840   19.318946   22.169878 C.2        1 MOL1        -0.1395
       8    H3      21.406818   18.843031   21.351216 H          1 MOL1         0.0816
       9    C4      19.537761   19.442335   22.126359 C.2        1 MOL1        -0.1394
      10    H4      18.999758   19.921180   22.943867 H          1 MOL1         0.0816
      11    C5      18.677513   18.954654   20.982041 C.3        1 MOL1        -0.1826
      12    H5      17.980578   19.747426   20.678189 H          1 MOL1         0.0736
      13    H6      19.298162   18.727059   20.104421 H          1 MOL1         0.0736
      14    C6      17.881903   17.697458   21.383941 C.3        1 MOL1        -0.2882
      15    H7      17.222925   17.906935   22.236756 H          1 MOL1         0.0749
      16    H8      17.259120   17.348723   20.549908 H          1 MOL1         0.0749
      17    H9      18.559523   16.881397   21.667624 H          1 MOL1         0.0749
@<TRIPOS>BOND
    1     1     2    1
    2     1     3    2
    3     1     4    1
    4     4     5    1
    5     4     6    1
    6     4     7    1
    7     7     8    1
    8     7     9    2
    9     9    10    1
   10     9    11    1
   11    11    12    1
   12    11    13    1
   13    11    14    1
   14    14    15    1
   15    14    16    1
   16    14    17    1
@<TRIPOS>SUBSTRUCTURE
       1 MOL1            1 RESIDUE      1      MOL     
@<SCITEGIC>MOL_PROPERTY
VConf Rank
SciTegic.value.IntegerValue
12

@<SCITEGIC>MOL_PROPERTY
Conf_Id
SciTegic.value.IntegerValue
35

@<SCITEGIC>MOL_PROPERTY
Delta U+W
SciTegic.value.DoubleValue
-0.102

@<SCITEGIC>MOL_PROPERTY
U+W
SciTegic.value.DoubleValue
-49.529

@<SCITEGIC>MOL_PROPERTY
Grad RMS
SciTegic.value.DoubleValue
0.000000

@<SCITEGIC>MOL_PROPERTY
U
SciTegic.value.DoubleValue
13.666

@<SCITEGIC>MOL_PROPERTY
W
SciTegic.value.DoubleValue
-63.195

@<SCITEGIC>MOL_PROPERTY
W(PB)
SciTegic.value.DoubleValue
-65.299

@<SCITEGIC>MOL_PROPERTY
W(SA)
SciTegic.value.DoubleValue
2.103

@<SCITEGIC>MOL_PROPERTY
Valence
SciTegic.value.DoubleValue
15.226

@<SCITEGIC>MOL_PROPERTY
Coulomb
SciTegic.value.DoubleValue
-1.822

@<SCITEGIC>MOL_PROPERTY
VdW
SciTegic.value.DoubleValue
0.261

@<SCITEGIC>MOL_PROPERTY
VdW6
SciTegic.value.DoubleValue
-4.165

@<SCITEGIC>MOL_PROPERTY
VdW12
SciTegic.value.DoubleValue
4.426

@<SCITEGIC>MOL_PROPERTY
Bond
SciTegic.value.DoubleValue
0.044

@<SCITEGIC>MOL_PROPERTY
Angle
SciTegic.value.DoubleValue
2.229

@<SCITEGIC>MOL_PROPERTY
Pdih
SciTegic.value.DoubleValue
12.953

@<SCITEGIC>MOL_PROPERTY
Idih
SciTegic.value.DoubleValue
0.000

@<SCITEGIC>MOL_PROPERTY
Tether
SciTegic.value.DoubleValue
0.000

@<TRIPOS>MOLECULE
guest-s20_confgen4.mol2 : confsearch ligand conformer 13
          17          16           1
SMALL
USER_CHARGES
 
@<TRIPOS>ATOM
       1    C1      18.973034   16.563025   23.047836 C.2        1 MOL1         0.6132
       2    O1      17.823132   16.762078   23.387062 O.co2      1 MOL1        -0.6749
       3    O2      19.312543   15.641555   22.331962 O.co2      1 MOL1        -0.6749
       4    C2      20.046816   17.515951   23.556380 C.3        1 MOL1        -0.1955
       5    H1      21.008414   16.989018   23.540390 H          1 MOL1         0.0733
       6    H2      19.823350   17.743034   24.605192 H          1 MOL1         0.0733
       7    C3      20.114260   18.798562   22.749059 C.2        1 MOL1        -0.1395
       8    H3      19.245314   19.446228   22.851776 H          1 MOL1         0.0816
       9    C4      21.143745   19.131675   21.960447 C.2        1 MOL1        -0.1394
      10    H4      21.994490   18.455856   21.879290 H          1 MOL1         0.0816
      11    C5      21.275231   20.393403   21.124179 C.3        1 MOL1        -0.1826
      12    H5      22.190540   20.923686   21.420010 H          1 MOL1         0.0736
      13    H6      21.424705   20.110457   20.073408 H          1 MOL1         0.0736
      14    C6      20.078265   21.365297   21.217563 C.3        1 MOL1        -0.2882
      15    H7      19.932271   21.712649   22.248792 H          1 MOL1         0.0749
      16    H8      20.248670   22.247435   20.586829 H          1 MOL1         0.0749
      17    H9      19.152084   20.883213   20.878044 H          1 MOL1         0.0749
@<TRIPOS>BOND
    1     1     2    1
    2     1     3    2
    3     1     4    1
    4     4     5    1
    5     4     6    1
    6     4     7    1
    7     7     8    1
    8     7     9    2
    9     9    10    1
   10     9    11    1
   11    11    12    1
   12    11    13    1
   13    11    14    1
   14    14    15    1
   15    14    16    1
   16    14    17    1
@<TRIPOS>SUBSTRUCTURE
       1 MOL1            1 RESIDUE      1      MOL     
@<SCITEGIC>MOL_PROPERTY
VConf Rank
SciTegic.value.IntegerValue
13

@<SCITEGIC>MOL_PROPERTY
Conf_Id
SciTegic.value.IntegerValue
19

@<SCITEGIC>MOL_PROPERTY
Delta U+W
SciTegic.value.DoubleValue
-0.496

@<SCITEGIC>MOL_PROPERTY
U+W
SciTegic.value.DoubleValue
-49.923

@<SCITEGIC>MOL_PROPERTY
Grad RMS
SciTegic.value.DoubleValue
0.000000

@<SCITEGIC>MOL_PROPERTY
U
SciTegic.value.DoubleValue
13.863

@<SCITEGIC>MOL_PROPERTY
W
SciTegic.value.DoubleValue
-63.786

@<SCITEGIC>MOL_PROPERTY
W(PB)
SciTegic.value.DoubleValue
-65.856

@<SCITEGIC>MOL_PROPERTY
W(SA)
SciTegic.value.DoubleValue
2.070

@<SCITEGIC>MOL_PROPERTY
Valence
SciTegic.value.DoubleValue
14.117

@<SCITEGIC>MOL_PROPERTY
Coulomb
SciTegic.value.DoubleValue
-1.228

@<SCITEGIC>MOL_PROPERTY
VdW
SciTegic.value.DoubleValue
0.974

@<SCITEGIC>MOL_PROPERTY
VdW6
SciTegic.value.DoubleValue
-4.885

@<SCITEGIC>MOL_PROPERTY
VdW12
SciTegic.value.DoubleValue
5.859

@<SCITEGIC>MOL_PROPERTY
Bond
SciTegic.value.DoubleValue
0.094

@<SCITEGIC>MOL_PROPERTY
Angle
SciTegic.value.DoubleValue
2.818

@<SCITEGIC>MOL_PROPERTY
Pdih
SciTegic.value.DoubleValue
11.205

@<SCITEGIC>MOL_PROPERTY
Idih
SciTegic.value.DoubleValue
0.000

@<SCITEGIC>MOL_PROPERTY
Tether
SciTegic.value.DoubleValue
0.000

@<TRIPOS>MOLECULE
guest-s20_confgen4.mol2 : confsearch ligand conformer 14
          17          16           1
SMALL
USER_CHARGES
 
@<TRIPOS>ATOM
       1    C1      20.477601   17.897247   24.886694 C.2        1 MOL1         0.6132
       2    O1      19.874746   16.847090   24.783996 O.co2      1 MOL1        -0.6749
       3    O2      21.578937   17.993275   25.391512 O.co2      1 MOL1        -0.6749
       4    C2      19.814254   19.165067   24.364745 C.3        1 MOL1        -0.1955
       5    H1      19.997103   19.962866   25.093832 H          1 MOL1         0.0733
       6    H2      18.730680   18.998630   24.336112 H          1 MOL1         0.0733
       7    C3      20.337487   19.575352   23.001419 C.2        1 MOL1        -0.1395
       8    H3      21.375395   19.906389   22.982006 H          1 MOL1         0.0816
       9    C4      19.614506   19.541165   21.877878 C.2        1 MOL1        -0.1394
      10    H4      18.578265   19.205163   21.897023 H          1 MOL1         0.0816
      11    C5      20.139064   19.947944   20.518942 C.3        1 MOL1        -0.1826
      12    H5      19.423776   20.624963   20.032599 H          1 MOL1         0.0736
      13    H6      21.080774   20.504644   20.621288 H          1 MOL1         0.0736
      14    C6      20.370370   18.715253   19.623419 C.3        1 MOL1        -0.2882
      15    H7      19.435286   18.160190   19.471933 H          1 MOL1         0.0749
      16    H8      20.751373   19.016096   18.638839 H          1 MOL1         0.0749
      17    H9      21.101961   18.034674   20.078686 H          1 MOL1         0.0749
@<TRIPOS>BOND
    1     1     2    1
    2     1     3    2
    3     1     4    1
    4     4     5    1
    5     4     6    1
    6     4     7    1
    7     7     8    1
    8     7     9    2
    9     9    10    1
   10     9    11    1
   11    11    12    1
   12    11    13    1
   13    11    14    1
   14    14    15    1
   15    14    16    1
   16    14    17    1
@<TRIPOS>SUBSTRUCTURE
       1 MOL1            1 RESIDUE      1      MOL     
@<SCITEGIC>MOL_PROPERTY
VConf Rank
SciTegic.value.IntegerValue
14

@<SCITEGIC>MOL_PROPERTY
Conf_Id
SciTegic.value.IntegerValue
7

@<SCITEGIC>MOL_PROPERTY
Delta U+W
SciTegic.value.DoubleValue
-0.041

@<SCITEGIC>MOL_PROPERTY
U+W
SciTegic.value.DoubleValue
-49.468

@<SCITEGIC>MOL_PROPERTY
Grad RMS
SciTegic.value.DoubleValue
0.000000

@<SCITEGIC>MOL_PROPERTY
U
SciTegic.value.DoubleValue
14.121

@<SCITEGIC>MOL_PROPERTY
W
SciTegic.value.DoubleValue
-63.589

@<SCITEGIC>MOL_PROPERTY
W(PB)
SciTegic.value.DoubleValue
-65.660

@<SCITEGIC>MOL_PROPERTY
W(SA)
SciTegic.value.DoubleValue
2.071

@<SCITEGIC>MOL_PROPERTY
Valence
SciTegic.value.DoubleValue
15.230

@<SCITEGIC>MOL_PROPERTY
Coulomb
SciTegic.value.DoubleValue
-1.333

@<SCITEGIC>MOL_PROPERTY
VdW
SciTegic.value.DoubleValue
0.224

@<SCITEGIC>MOL_PROPERTY
VdW6
SciTegic.value.DoubleValue
-4.212

@<SCITEGIC>MOL_PROPERTY
VdW12
SciTegic.value.DoubleValue
4.436

@<SCITEGIC>MOL_PROPERTY
Bond
SciTegic.value.DoubleValue
0.044

@<SCITEGIC>MOL_PROPERTY
Angle
SciTegic.value.DoubleValue
2.230

@<SCITEGIC>MOL_PROPERTY
Pdih
SciTegic.value.DoubleValue
12.956

@<SCITEGIC>MOL_PROPERTY
Idih
SciTegic.value.DoubleValue
0.000

@<SCITEGIC>MOL_PROPERTY
Tether
SciTegic.value.DoubleValue
0.000

@<TRIPOS>MOLECULE
guest-s20_confgen4.mol2 : confsearch ligand conformer 15
          17          16           1
SMALL
USER_CHARGES
 
@<TRIPOS>ATOM
       1    C1      20.377459   16.522374   22.294971 C.2        1 MOL1         0.6132
       2    O1      21.572689   16.396807   22.114276 O.co2      1 MOL1        -0.6749
       3    O2      19.534112   15.978911   21.609044 O.co2      1 MOL1        -0.6749
       4    C2      19.910748   17.386253   23.462649 C.3        1 MOL1        -0.1955
       5    H1      20.657108   17.303827   24.261349 H          1 MOL1         0.0733
       6    H2      18.991471   16.942404   23.862207 H          1 MOL1         0.0733
       7    C3      19.669941   18.853962   23.139046 C.2        1 MOL1        -0.1395
       8    H3      19.337335   19.452303   23.986340 H          1 MOL1         0.0816
       9    C4      19.832802   19.432925   21.943523 C.2        1 MOL1        -0.1394
      10    H4      20.165263   18.857655   21.080235 H          1 MOL1         0.0816
      11    C5      19.577715   20.899271   21.673890 C.3        1 MOL1        -0.1826
      12    H5      18.963886   21.008309   20.769543 H          1 MOL1         0.0736
      13    H6      19.007054   21.348900   22.498107 H          1 MOL1         0.0736
      14    C6      20.901457   21.667127   21.491848 C.3        1 MOL1        -0.2882
      15    H7      20.710359   22.730068   21.295130 H          1 MOL1         0.0749
      16    H8      21.521967   21.593668   22.394714 H          1 MOL1         0.0749
      17    H9      21.476042   21.262310   20.648383 H          1 MOL1         0.0749
@<TRIPOS>BOND
    1     1     2    1
    2     1     3    2
    3     1     4    1
    4     4     5    1
    5     4     6    1
    6     4     7    1
    7     7     8    1
    8     7     9    2
    9     9    10    1
   10     9    11    1
   11    11    12    1
   12    11    13    1
   13    11    14    1
   14    14    15    1
   15    14    16    1
   16    14    17    1
@<TRIPOS>SUBSTRUCTURE
       1 MOL1            1 RESIDUE      1      MOL     
@<SCITEGIC>MOL_PROPERTY
VConf Rank
SciTegic.value.IntegerValue
15

@<SCITEGIC>MOL_PROPERTY
Conf_Id
SciTegic.value.IntegerValue
39

@<SCITEGIC>MOL_PROPERTY
Delta U+W
SciTegic.value.DoubleValue
-0.422

@<SCITEGIC>MOL_PROPERTY
U+W
SciTegic.value.DoubleValue
-49.849

@<SCITEGIC>MOL_PROPERTY
Grad RMS
SciTegic.value.DoubleValue
0.000000

@<SCITEGIC>MOL_PROPERTY
U
SciTegic.value.DoubleValue
14.465

@<SCITEGIC>MOL_PROPERTY
W
SciTegic.value.DoubleValue
-64.314

@<SCITEGIC>MOL_PROPERTY
W(PB)
SciTegic.value.DoubleValue
-66.406

@<SCITEGIC>MOL_PROPERTY
W(SA)
SciTegic.value.DoubleValue
2.093

@<SCITEGIC>MOL_PROPERTY
Valence
SciTegic.value.DoubleValue
14.072

@<SCITEGIC>MOL_PROPERTY
Coulomb
SciTegic.value.DoubleValue
-0.199

@<SCITEGIC>MOL_PROPERTY
VdW
SciTegic.value.DoubleValue
0.592

@<SCITEGIC>MOL_PROPERTY
VdW6
SciTegic.value.DoubleValue
-5.019

@<SCITEGIC>MOL_PROPERTY
VdW12
SciTegic.value.DoubleValue
5.611

@<SCITEGIC>MOL_PROPERTY
Bond
SciTegic.value.DoubleValue
0.085

@<SCITEGIC>MOL_PROPERTY
Angle
SciTegic.value.DoubleValue
2.748

@<SCITEGIC>MOL_PROPERTY
Pdih
SciTegic.value.DoubleValue
11.238

@<SCITEGIC>MOL_PROPERTY
Idih
SciTegic.value.DoubleValue
0.001

@<SCITEGIC>MOL_PROPERTY
Tether
SciTegic.value.DoubleValue
0.000

@<TRIPOS>MOLECULE
guest-s20_confgen4.mol2 : confsearch ligand conformer 16
          17          16           1
SMALL
USER_CHARGES
 
@<TRIPOS>ATOM
       1    C1      19.074169   17.056650   24.113011 C.2        1 MOL1         0.6132
       2    O1      19.729507   16.035297   24.178811 O.co2      1 MOL1        -0.6749
       3    O2      17.859359   17.078304   24.137233 O.co2      1 MOL1        -0.6749
       4    C2      19.817978   18.380835   23.999505 C.3        1 MOL1        -0.1955
       5    H1      20.682524   18.338097   24.671994 H          1 MOL1         0.0733
       6    H2      19.161164   19.176295   24.371632 H          1 MOL1         0.0733
       7    C3      20.274344   18.671088   22.582385 C.2        1 MOL1        -0.1395
       8    H3      21.052812   18.011452   22.200196 H          1 MOL1         0.0816
       9    C4      19.782225   19.653184   21.821113 C.2        1 MOL1        -0.1394
      10    H4      19.001705   20.310546   22.202852 H          1 MOL1         0.0816
      11    C5      20.235847   19.938748   20.406899 C.3        1 MOL1        -0.1826
      12    H5      20.819178   19.095253   20.012612 H          1 MOL1         0.0736
      13    H6      19.360840   20.050172   19.752313 H          1 MOL1         0.0736
      14    C6      21.088791   21.220922   20.347091 C.3        1 MOL1        -0.2882
      15    H7      21.984247   21.123128   20.974940 H          1 MOL1         0.0749
      16    H8      21.414430   21.423270   19.318451 H          1 MOL1         0.0749
      17    H9      20.516593   22.088868   20.700204 H          1 MOL1         0.0749
@<TRIPOS>BOND
    1     1     2    1
    2     1     3    2
    3     1     4    1
    4     4     5    1
    5     4     6    1
    6     4     7    1
    7     7     8    1
    8     7     9    2
    9     9    10    1
   10     9    11    1
   11    11    12    1
   12    11    13    1
   13    11    14    1
   14    14    15    1
   15    14    16    1
   16    14    17    1
@<TRIPOS>SUBSTRUCTURE
       1 MOL1            1 RESIDUE      1      MOL     
@<SCITEGIC>MOL_PROPERTY
VConf Rank
SciTegic.value.IntegerValue
16

@<SCITEGIC>MOL_PROPERTY
Conf_Id
SciTegic.value.IntegerValue
38

@<SCITEGIC>MOL_PROPERTY
Delta U+W
SciTegic.value.DoubleValue
0.000

@<SCITEGIC>MOL_PROPERTY
U+W
SciTegic.value.DoubleValue
-49.427

@<SCITEGIC>MOL_PROPERTY
Grad RMS
SciTegic.value.DoubleValue
0.000000

@<SCITEGIC>MOL_PROPERTY
U
SciTegic.value.DoubleValue
13.666

@<SCITEGIC>MOL_PROPERTY
W
SciTegic.value.DoubleValue
-63.093

@<SCITEGIC>MOL_PROPERTY
W(PB)
SciTegic.value.DoubleValue
-65.225

@<SCITEGIC>MOL_PROPERTY
W(SA)
SciTegic.value.DoubleValue
2.132

@<SCITEGIC>MOL_PROPERTY
Valence
SciTegic.value.DoubleValue
15.226

@<SCITEGIC>MOL_PROPERTY
Coulomb
SciTegic.value.DoubleValue
-1.822

@<SCITEGIC>MOL_PROPERTY
VdW
SciTegic.value.DoubleValue
0.261

@<SCITEGIC>MOL_PROPERTY
VdW6
SciTegic.value.DoubleValue
-4.165

@<SCITEGIC>MOL_PROPERTY
VdW12
SciTegic.value.DoubleValue
4.426

@<SCITEGIC>MOL_PROPERTY
Bond
SciTegic.value.DoubleValue
0.044

@<SCITEGIC>MOL_PROPERTY
Angle
SciTegic.value.DoubleValue
2.229

@<SCITEGIC>MOL_PROPERTY
Pdih
SciTegic.value.DoubleValue
12.953

@<SCITEGIC>MOL_PROPERTY
Idih
SciTegic.value.DoubleValue
0.000

@<SCITEGIC>MOL_PROPERTY
Tether
SciTegic.value.DoubleValue
0.000

@<TRIPOS>MOLECULE
guest-s20_confgen4.mol2 : confsearch ligand conformer 17
          17          16           1
SMALL
USER_CHARGES
 
@<TRIPOS>ATOM
       1    C1      17.859614   20.442732   24.023181 C.2        1 MOL1         0.6132
       2    O1      18.258905   21.484860   24.504175 O.co2      1 MOL1        -0.6749
       3    O2      17.187628   19.634820   24.633652 O.co2      1 MOL1        -0.6749
       4    C2      18.214947   20.132826   22.574976 C.3        1 MOL1        -0.1955
       5    H1      18.424885   21.079657   22.063040 H          1 MOL1         0.0733
       6    H2      17.328105   19.700096   22.097731 H          1 MOL1         0.0733
       7    C3      19.388133   19.178755   22.456114 C.2        1 MOL1        -0.1395
       8    H3      19.197847   18.162547   22.800081 H          1 MOL1         0.0816
       9    C4      20.586897   19.518905   21.972902 C.2        1 MOL1        -0.1394
      10    H4      20.777446   20.536055   21.632083 H          1 MOL1         0.0816
      11    C5      21.756772   18.567224   21.858808 C.3        1 MOL1        -0.1826
      12    H5      22.658053   19.035982   22.276531 H          1 MOL1         0.0736
      13    H6      21.571980   17.658532   22.448171 H          1 MOL1         0.0736
      14    C6      22.013556   18.178849   20.389697 C.3        1 MOL1        -0.2882
      15    H7      22.239284   19.066103   19.783680 H          1 MOL1         0.0749
      16    H8      22.863906   17.488820   20.313204 H          1 MOL1         0.0749
      17    H9      21.133567   17.684341   19.957632 H          1 MOL1         0.0749
@<TRIPOS>BOND
    1     1     2    1
    2     1     3    2
    3     1     4    1
    4     4     5    1
    5     4     6    1
    6     4     7    1
    7     7     8    1
    8     7     9    2
    9     9    10    1
   10     9    11    1
   11    11    12    1
   12    11    13    1
   13    11    14    1
   14    14    15    1
   15    14    16    1
   16    14    17    1
@<TRIPOS>SUBSTRUCTURE
       1 MOL1            1 RESIDUE      1      MOL     
@<SCITEGIC>MOL_PROPERTY
VConf Rank
SciTegic.value.IntegerValue
17

@<SCITEGIC>MOL_PROPERTY
Conf_Id
SciTegic.value.IntegerValue
35

@<SCITEGIC>MOL_PROPERTY
Delta U+W
SciTegic.value.DoubleValue
-0.102

@<SCITEGIC>MOL_PROPERTY
U+W
SciTegic.value.DoubleValue
-49.529

@<SCITEGIC>MOL_PROPERTY
Grad RMS
SciTegic.value.DoubleValue
0.000000

@<SCITEGIC>MOL_PROPERTY
U
SciTegic.value.DoubleValue
13.666

@<SCITEGIC>MOL_PROPERTY
W
SciTegic.value.DoubleValue
-63.195

@<SCITEGIC>MOL_PROPERTY
W(PB)
SciTegic.value.DoubleValue
-65.299

@<SCITEGIC>MOL_PROPERTY
W(SA)
SciTegic.value.DoubleValue
2.103

@<SCITEGIC>MOL_PROPERTY
Valence
SciTegic.value.DoubleValue
15.226

@<SCITEGIC>MOL_PROPERTY
Coulomb
SciTegic.value.DoubleValue
-1.822

@<SCITEGIC>MOL_PROPERTY
VdW
SciTegic.value.DoubleValue
0.261

@<SCITEGIC>MOL_PROPERTY
VdW6
SciTegic.value.DoubleValue
-4.165

@<SCITEGIC>MOL_PROPERTY
VdW12
SciTegic.value.DoubleValue
4.426

@<SCITEGIC>MOL_PROPERTY
Bond
SciTegic.value.DoubleValue
0.044

@<SCITEGIC>MOL_PROPERTY
Angle
SciTegic.value.DoubleValue
2.229

@<SCITEGIC>MOL_PROPERTY
Pdih
SciTegic.value.DoubleValue
12.953

@<SCITEGIC>MOL_PROPERTY
Idih
SciTegic.value.DoubleValue
0.000

@<SCITEGIC>MOL_PROPERTY
Tether
SciTegic.value.DoubleValue
0.000

@<TRIPOS>MOLECULE
guest-s20_confgen4.mol2 : confsearch ligand conformer 18
          17          16           1
SMALL
USER_CHARGES
 
@<TRIPOS>ATOM
       1    C1      17.808501   17.844785   21.061346 C.2        1 MOL1         0.6132
       2    O1      17.950343   17.690082   19.864300 O.co2      1 MOL1        -0.6749
       3    O2      17.360512   16.990813   21.800863 O.co2      1 MOL1        -0.6749
       4    C2      18.205594   19.185993   21.663983 C.3        1 MOL1        -0.1955
       5    H1      17.643463   19.323281   22.595512 H          1 MOL1         0.0733
       6    H2      17.879301   19.972736   20.973999 H          1 MOL1         0.0733
       7    C3      19.699113   19.293642   21.907334 C.2        1 MOL1        -0.1395
       8    H3      20.305621   19.323473   21.003815 H          1 MOL1         0.0816
       9    C4      20.256112   19.343991   23.123857 C.2        1 MOL1        -0.1394
      10    H4      19.617014   19.307240   24.005496 H          1 MOL1         0.0816
      11    C5      21.738717   19.447800   23.439605 C.3        1 MOL1        -0.1826
      12    H5      21.911272   20.343492   24.051541 H          1 MOL1         0.0736
      13    H6      22.028653   18.597933   24.072207 H          1 MOL1         0.0736
      14    C6      22.666494   19.495261   22.205504 C.3        1 MOL1        -0.2882
      15    H7      22.440590   20.365927   21.575973 H          1 MOL1         0.0749
      16    H8      23.716777   19.568726   22.516208 H          1 MOL1         0.0749
      17    H9      22.558787   18.587948   21.596675 H          1 MOL1         0.0749
@<TRIPOS>BOND
    1     1     2    1
    2     1     3    2
    3     1     4    1
    4     4     5    1
    5     4     6    1
    6     4     7    1
    7     7     8    1
    8     7     9    2
    9     9    10    1
   10     9    11    1
   11    11    12    1
   12    11    13    1
   13    11    14    1
   14    14    15    1
   15    14    16    1
   16    14    17    1
@<TRIPOS>SUBSTRUCTURE
       1 MOL1            1 RESIDUE      1      MOL     
@<SCITEGIC>MOL_PROPERTY
VConf Rank
SciTegic.value.IntegerValue
18

@<SCITEGIC>MOL_PROPERTY
Conf_Id
SciTegic.value.IntegerValue
19

@<SCITEGIC>MOL_PROPERTY
Delta U+W
SciTegic.value.DoubleValue
-0.496

@<SCITEGIC>MOL_PROPERTY
U+W
SciTegic.value.DoubleValue
-49.923

@<SCITEGIC>MOL_PROPERTY
Grad RMS
SciTegic.value.DoubleValue
0.000000

@<SCITEGIC>MOL_PROPERTY
U
SciTegic.value.DoubleValue
13.863

@<SCITEGIC>MOL_PROPERTY
W
SciTegic.value.DoubleValue
-63.786

@<SCITEGIC>MOL_PROPERTY
W(PB)
SciTegic.value.DoubleValue
-65.856

@<SCITEGIC>MOL_PROPERTY
W(SA)
SciTegic.value.DoubleValue
2.070

@<SCITEGIC>MOL_PROPERTY
Valence
SciTegic.value.DoubleValue
14.117

@<SCITEGIC>MOL_PROPERTY
Coulomb
SciTegic.value.DoubleValue
-1.228

@<SCITEGIC>MOL_PROPERTY
VdW
SciTegic.value.DoubleValue
0.974

@<SCITEGIC>MOL_PROPERTY
VdW6
SciTegic.value.DoubleValue
-4.885

@<SCITEGIC>MOL_PROPERTY
VdW12
SciTegic.value.DoubleValue
5.859

@<SCITEGIC>MOL_PROPERTY
Bond
SciTegic.value.DoubleValue
0.094

@<SCITEGIC>MOL_PROPERTY
Angle
SciTegic.value.DoubleValue
2.818

@<SCITEGIC>MOL_PROPERTY
Pdih
SciTegic.value.DoubleValue
11.205

@<SCITEGIC>MOL_PROPERTY
Idih
SciTegic.value.DoubleValue
0.000

@<SCITEGIC>MOL_PROPERTY
Tether
SciTegic.value.DoubleValue
0.000

@<TRIPOS>MOLECULE
guest-s20_confgen4.mol2 : confsearch ligand conformer 19
          17          16           1
SMALL
USER_CHARGES
 
@<TRIPOS>ATOM
       1    C1      19.122508   21.771258   22.682224 C.2        1 MOL1         0.6132
       2    O1      20.018291   22.282260   23.325079 O.co2      1 MOL1        -0.6749
       3    O2      18.576595   22.313551   21.741533 O.co2      1 MOL1        -0.6749
       4    C2      18.649238   20.379869   23.082073 C.3        1 MOL1        -0.1955
       5    H1      17.554682   20.369336   23.024430 H          1 MOL1         0.0733
       6    H2      18.916892   20.215076   24.132720 H          1 MOL1         0.0733
       7    C3      19.227988   19.292746   22.196650 C.2        1 MOL1        -0.1395
       8    H3      18.880563   19.300054   21.163955 H          1 MOL1         0.0816
       9    C4      20.109112   18.376880   22.610204 C.2        1 MOL1        -0.1394
      10    H4      20.460087   18.373221   23.641641 H          1 MOL1         0.0816
      11    C5      20.687210   17.295491   21.724915 C.3        1 MOL1        -0.1826
      12    H5      20.619754   16.324231   22.233469 H          1 MOL1         0.0736
      13    H6      20.105680   17.206712   20.796934 H          1 MOL1         0.0736
      14    C6      22.158990   17.592654   21.377711 C.3        1 MOL1        -0.2882
      15    H7      22.772272   17.648400   22.286668 H          1 MOL1         0.0749
      16    H8      22.573328   16.805160   20.734871 H          1 MOL1         0.0749
      17    H9      22.248387   18.549109   20.845843 H          1 MOL1         0.0749
@<TRIPOS>BOND
    1     1     2    1
    2     1     3    2
    3     1     4    1
    4     4     5    1
    5     4     6    1
    6     4     7    1
    7     7     8    1
    8     7     9    2
    9     9    10    1
   10     9    11    1
   11    11    12    1
   12    11    13    1
   13    11    14    1
   14    14    15    1
   15    14    16    1
   16    14    17    1
@<TRIPOS>SUBSTRUCTURE
       1 MOL1            1 RESIDUE      1      MOL     
@<SCITEGIC>MOL_PROPERTY
VConf Rank
SciTegic.value.IntegerValue
19

@<SCITEGIC>MOL_PROPERTY
Conf_Id
SciTegic.value.IntegerValue
7

@<SCITEGIC>MOL_PROPERTY
Delta U+W
SciTegic.value.DoubleValue
-0.041

@<SCITEGIC>MOL_PROPERTY
U+W
SciTegic.value.DoubleValue
-49.468

@<SCITEGIC>MOL_PROPERTY
Grad RMS
SciTegic.value.DoubleValue
0.000000

@<SCITEGIC>MOL_PROPERTY
U
SciTegic.value.DoubleValue
14.121

@<SCITEGIC>MOL_PROPERTY
W
SciTegic.value.DoubleValue
-63.589

@<SCITEGIC>MOL_PROPERTY
W(PB)
SciTegic.value.DoubleValue
-65.660

@<SCITEGIC>MOL_PROPERTY
W(SA)
SciTegic.value.DoubleValue
2.071

@<SCITEGIC>MOL_PROPERTY
Valence
SciTegic.value.DoubleValue
15.230

@<SCITEGIC>MOL_PROPERTY
Coulomb
SciTegic.value.DoubleValue
-1.333

@<SCITEGIC>MOL_PROPERTY
VdW
SciTegic.value.DoubleValue
0.224

@<SCITEGIC>MOL_PROPERTY
VdW6
SciTegic.value.DoubleValue
-4.212

@<SCITEGIC>MOL_PROPERTY
VdW12
SciTegic.value.DoubleValue
4.436

@<SCITEGIC>MOL_PROPERTY
Bond
SciTegic.value.DoubleValue
0.044

@<SCITEGIC>MOL_PROPERTY
Angle
SciTegic.value.DoubleValue
2.230

@<SCITEGIC>MOL_PROPERTY
Pdih
SciTegic.value.DoubleValue
12.956

@<SCITEGIC>MOL_PROPERTY
Idih
SciTegic.value.DoubleValue
0.000

@<SCITEGIC>MOL_PROPERTY
Tether
SciTegic.value.DoubleValue
0.000

@<TRIPOS>MOLECULE
guest-s20_confgen4.mol2 : confsearch ligand conformer 20
          17          16           1
SMALL
USER_CHARGES
 
@<TRIPOS>ATOM
       1    C1      22.662430   18.180416   22.126166 C.2        1 MOL1         0.6132
       2    O1      23.048708   18.629680   21.065062 O.co2      1 MOL1        -0.6749
       3    O2      22.665936   16.995037   22.394392 O.co2      1 MOL1        -0.6749
       4    C2      22.172827   19.159193   23.189116 C.3        1 MOL1        -0.1955
       5    H1      22.739803   20.090522   23.075388 H          1 MOL1         0.0733
       6    H2      22.449697   18.755664   24.170048 H          1 MOL1         0.0733
       7    C3      20.681653   19.463650   23.165003 C.2        1 MOL1        -0.1395
       8    H3      20.353519   20.164189   23.931893 H          1 MOL1         0.0816
       9    C4      19.788951   18.956305   22.306702 C.2        1 MOL1        -0.1394
      10    H4      20.090821   18.254678   21.529961 H          1 MOL1         0.0816
      11    C5      18.314028   19.291192   22.326504 C.3        1 MOL1        -0.1826
      12    H5      17.723481   18.366730   22.270434 H          1 MOL1         0.0736
      13    H6      18.042977   19.781351   23.271718 H          1 MOL1         0.0736
      14    C6      17.939585   20.212106   21.148901 C.3        1 MOL1        -0.2882
      15    H7      16.868229   20.450667   21.167434 H          1 MOL1         0.0749
      16    H8      18.499774   21.155159   21.198224 H          1 MOL1         0.0749
      17    H9      18.164987   19.730530   20.188309 H          1 MOL1         0.0749
@<TRIPOS>BOND
    1     1     2    1
    2     1     3    2
    3     1     4    1
    4     4     5    1
    5     4     6    1
    6     4     7    1
    7     7     8    1
    8     7     9    2
    9     9    10    1
   10     9    11    1
   11    11    12    1
   12    11    13    1
   13    11    14    1
   14    14    15    1
   15    14    16    1
   16    14    17    1
@<TRIPOS>SUBSTRUCTURE
       1 MOL1            1 RESIDUE      1      MOL     
@<SCITEGIC>MOL_PROPERTY
VConf Rank
SciTegic.value.IntegerValue
20

@<SCITEGIC>MOL_PROPERTY
Conf_Id
SciTegic.value.IntegerValue
39

@<SCITEGIC>MOL_PROPERTY
Delta U+W
SciTegic.value.DoubleValue
-0.422

@<SCITEGIC>MOL_PROPERTY
U+W
SciTegic.value.DoubleValue
-49.849

@<SCITEGIC>MOL_PROPERTY
Grad RMS
SciTegic.value.DoubleValue
0.000000

@<SCITEGIC>MOL_PROPERTY
U
SciTegic.value.DoubleValue
14.465

@<SCITEGIC>MOL_PROPERTY
W
SciTegic.value.DoubleValue
-64.314

@<SCITEGIC>MOL_PROPERTY
W(PB)
SciTegic.value.DoubleValue
-66.406

@<SCITEGIC>MOL_PROPERTY
W(SA)
SciTegic.value.DoubleValue
2.093

@<SCITEGIC>MOL_PROPERTY
Valence
SciTegic.value.DoubleValue
14.072

@<SCITEGIC>MOL_PROPERTY
Coulomb
SciTegic.value.DoubleValue
-0.199

@<SCITEGIC>MOL_PROPERTY
VdW
SciTegic.value.DoubleValue
0.592

@<SCITEGIC>MOL_PROPERTY
VdW6
SciTegic.value.DoubleValue
-5.019

@<SCITEGIC>MOL_PROPERTY
VdW12
SciTegic.value.DoubleValue
5.611

@<SCITEGIC>MOL_PROPERTY
Bond
SciTegic.value.DoubleValue
0.085

@<SCITEGIC>MOL_PROPERTY
Angle
SciTegic.value.DoubleValue
2.748

@<SCITEGIC>MOL_PROPERTY
Pdih
SciTegic.value.DoubleValue
11.238

@<SCITEGIC>MOL_PROPERTY
Idih
SciTegic.value.DoubleValue
0.001

@<SCITEGIC>MOL_PROPERTY
Tether
SciTegic.value.DoubleValue
0.000

@<TRIPOS>MOLECULE
guest-s20_confgen4.mol2 : confsearch ligand conformer 21
          17          16           1
SMALL
USER_CHARGES
 
@<TRIPOS>ATOM
       1    C1      19.400275   19.621160   25.170276 C.2        1 MOL1         0.6132
       2    O1      20.270985   19.327343   25.965573 O.co2      1 MOL1        -0.6749
       3    O2      18.223798   19.366658   25.337456 O.co2      1 MOL1        -0.6749
       4    C2      19.807202   20.352905   23.898048 C.3        1 MOL1        -0.1955
       5    H1      20.563911   21.098578   24.167996 H          1 MOL1         0.0733
       6    H2      18.934740   20.902130   23.524147 H          1 MOL1         0.0733
       7    C3      20.354503   19.415495   22.838582 C.2        1 MOL1        -0.1395
       8    H3      21.312122   18.953311   23.076390 H          1 MOL1         0.0816
       9    C4      19.738251   19.145512   21.683779 C.2        1 MOL1        -0.1394
      10    H4      18.779270   19.605717   21.447923 H          1 MOL1         0.0816
      11    C5      20.283689   18.207584   20.630162 C.3        1 MOL1        -0.1826
      12    H5      21.099997   17.598867   21.042867 H          1 MOL1         0.0736
      13    H6      19.497921   17.508280   20.313812 H          1 MOL1         0.0736
      14    C6      20.799004   18.989286   19.406049 C.3        1 MOL1        -0.2882
      15    H7      21.604496   19.677702   19.693918 H          1 MOL1         0.0749
      16    H8      21.192898   18.303425   18.644781 H          1 MOL1         0.0749
      17    H9      19.992651   19.578156   18.949481 H          1 MOL1         0.0749
@<TRIPOS>BOND
    1     1     2    1
    2     1     3    2
    3     1     4    1
    4     4     5    1
    5     4     6    1
    6     4     7    1
    7     7     8    1
    8     7     9    2
    9     9    10    1
   10     9    11    1
   11    11    12    1
   12    11    13    1
   13    11    14    1
   14    14    15    1
   15    14    16    1
   16    14    17    1
@<TRIPOS>SUBSTRUCTURE
       1 MOL1            1 RESIDUE      1      MOL     
@<SCITEGIC>MOL_PROPERTY
VConf Rank
SciTegic.value.IntegerValue
21

@<SCITEGIC>MOL_PROPERTY
Conf_Id
SciTegic.value.IntegerValue
38

@<SCITEGIC>MOL_PROPERTY
Delta U+W
SciTegic.value.DoubleValue
0.000

@<SCITEGIC>MOL_PROPERTY
U+W
SciTegic.value.DoubleValue
-49.427

@<SCITEGIC>MOL_PROPERTY
Grad RMS
SciTegic.value.DoubleValue
0.000000

@<SCITEGIC>MOL_PROPERTY
U
SciTegic.value.DoubleValue
13.666

@<SCITEGIC>MOL_PROPERTY
W
SciTegic.value.DoubleValue
-63.093

@<SCITEGIC>MOL_PROPERTY
W(PB)
SciTegic.value.DoubleValue
-65.225

@<SCITEGIC>MOL_PROPERTY
W(SA)
SciTegic.value.DoubleValue
2.132

@<SCITEGIC>MOL_PROPERTY
Valence
SciTegic.value.DoubleValue
15.226

@<SCITEGIC>MOL_PROPERTY
Coulomb
SciTegic.value.DoubleValue
-1.822

@<SCITEGIC>MOL_PROPERTY
VdW
SciTegic.value.DoubleValue
0.261

@<SCITEGIC>MOL_PROPERTY
VdW6
SciTegic.value.DoubleValue
-4.165

@<SCITEGIC>MOL_PROPERTY
VdW12
SciTegic.value.DoubleValue
4.426

@<SCITEGIC>MOL_PROPERTY
Bond
SciTegic.value.DoubleValue
0.044

@<SCITEGIC>MOL_PROPERTY
Angle
SciTegic.value.DoubleValue
2.229

@<SCITEGIC>MOL_PROPERTY
Pdih
SciTegic.value.DoubleValue
12.953

@<SCITEGIC>MOL_PROPERTY
Idih
SciTegic.value.DoubleValue
0.000

@<SCITEGIC>MOL_PROPERTY
Tether
SciTegic.value.DoubleValue
0.000

@<TRIPOS>MOLECULE
guest-s20_confgen4.mol2 : confsearch ligand conformer 22
          17          16           1
SMALL
USER_CHARGES
 
@<TRIPOS>ATOM
       1    C1      22.330505   18.744522   24.274130 C.2        1 MOL1         0.6132
       2    O1      22.667120   19.805521   24.761768 O.co2      1 MOL1        -0.6749
       3    O2      23.102887   17.834088   24.047201 O.co2      1 MOL1        -0.6749
       4    C2      20.860243   18.540532   23.933073 C.3        1 MOL1        -0.1955
       5    H1      20.266024   19.219470   24.556441 H          1 MOL1         0.0733
       6    H2      20.587951   17.518888   24.222224 H          1 MOL1         0.0733
       7    C3      20.569643   18.759998   22.460616 C.2        1 MOL1        -0.1395
       8    H3      20.999343   18.019728   21.786407 H          1 MOL1         0.0816
       9    C4      19.845891   19.776144   21.981180 C.2        1 MOL1        -0.1394
      10    H4      19.419172   20.517795   22.655661 H          1 MOL1         0.0816
      11    C5      19.560470   19.995600   20.512270 C.3        1 MOL1        -0.1826
      12    H5      19.769679   21.040543   20.246078 H          1 MOL1         0.0736
      13    H6      20.223577   19.374121   19.894798 H          1 MOL1         0.0736
      14    C6      18.093095   19.664108   20.177628 C.3        1 MOL1        -0.2882
      15    H7      17.406944   20.298700   20.753751 H          1 MOL1         0.0749
      16    H8      17.891843   19.825917   19.110669 H          1 MOL1         0.0749
      17    H9      17.867140   18.615430   20.411762 H          1 MOL1         0.0749
@<TRIPOS>BOND
    1     1     2    1
    2     1     3    2
    3     1     4    1
    4     4     5    1
    5     4     6    1
    6     4     7    1
    7     7     8    1
    8     7     9    2
    9     9    10    1
   10     9    11    1
   11    11    12    1
   12    11    13    1
   13    11    14    1
   14    14    15    1
   15    14    16    1
   16    14    17    1
@<TRIPOS>SUBSTRUCTURE
       1 MOL1            1 RESIDUE      1      MOL     
@<SCITEGIC>MOL_PROPERTY
VConf Rank
SciTegic.value.IntegerValue
22

@<SCITEGIC>MOL_PROPERTY
Conf_Id
SciTegic.value.IntegerValue
35

@<SCITEGIC>MOL_PROPERTY
Delta U+W
SciTegic.value.DoubleValue
-0.102

@<SCITEGIC>MOL_PROPERTY
U+W
SciTegic.value.DoubleValue
-49.529

@<SCITEGIC>MOL_PROPERTY
Grad RMS
SciTegic.value.DoubleValue
0.000000

@<SCITEGIC>MOL_PROPERTY
U
SciTegic.value.DoubleValue
13.666

@<SCITEGIC>MOL_PROPERTY
W
SciTegic.value.DoubleValue
-63.195

@<SCITEGIC>MOL_PROPERTY
W(PB)
SciTegic.value.DoubleValue
-65.299

@<SCITEGIC>MOL_PROPERTY
W(SA)
SciTegic.value.DoubleValue
2.103

@<SCITEGIC>MOL_PROPERTY
Valence
SciTegic.value.DoubleValue
15.226

@<SCITEGIC>MOL_PROPERTY
Coulomb
SciTegic.value.DoubleValue
-1.822

@<SCITEGIC>MOL_PROPERTY
VdW
SciTegic.value.DoubleValue
0.261

@<SCITEGIC>MOL_PROPERTY
VdW6
SciTegic.value.DoubleValue
-4.165

@<SCITEGIC>MOL_PROPERTY
VdW12
SciTegic.value.DoubleValue
4.426

@<SCITEGIC>MOL_PROPERTY
Bond
SciTegic.value.DoubleValue
0.044

@<SCITEGIC>MOL_PROPERTY
Angle
SciTegic.value.DoubleValue
2.229

@<SCITEGIC>MOL_PROPERTY
Pdih
SciTegic.value.DoubleValue
12.953

@<SCITEGIC>MOL_PROPERTY
Idih
SciTegic.value.DoubleValue
0.000

@<SCITEGIC>MOL_PROPERTY
Tether
SciTegic.value.DoubleValue
0.000

@<TRIPOS>MOLECULE
guest-s20_confgen4.mol2 : confsearch ligand conformer 23
          17          16           1
SMALL
USER_CHARGES
 
@<TRIPOS>ATOM
       1    C1      19.278669   21.486932   20.749960 C.2        1 MOL1         0.6132
       2    O1      19.700739   22.491621   21.287945 O.co2      1 MOL1        -0.6749
       3    O2      19.296886   21.310167   19.547766 O.co2      1 MOL1        -0.6749
       4    C2      18.686442   20.395211   21.631497 C.3        1 MOL1        -0.1955
       5    H1      17.993336   19.801683   21.023290 H          1 MOL1         0.0733
       6    H2      18.091072   20.881937   22.412613 H          1 MOL1         0.0733
       7    C3      19.750702   19.515768   22.260255 C.2        1 MOL1        -0.1395
       8    H3      20.374629   20.015497   22.999224 H          1 MOL1         0.0816
       9    C4      19.935453   18.227053   21.947538 C.2        1 MOL1        -0.1394
      10    H4      19.294041   17.762004   21.199605 H          1 MOL1         0.0816
      11    C5      20.980161   17.291871   22.532867 C.3        1 MOL1        -0.1826
      12    H5      20.473579   16.424272   22.976884 H          1 MOL1         0.0736
      13    H6      21.594847   16.888779   21.716657 H          1 MOL1         0.0736
      14    C6      21.906402   17.929844   23.591685 C.3        1 MOL1        -0.2882
      15    H7      21.329117   18.296559   24.450558 H          1 MOL1         0.0749
      16    H8      22.630587   17.193351   23.963390 H          1 MOL1         0.0749
      17    H9      22.470202   18.770572   23.166485 H          1 MOL1         0.0749
@<TRIPOS>BOND
    1     1     2    1
    2     1     3    2
    3     1     4    1
    4     4     5    1
    5     4     6    1
    6     4     7    1
    7     7     8    1
    8     7     9    2
    9     9    10    1
   10     9    11    1
   11    11    12    1
   12    11    13    1
   13    11    14    1
   14    14    15    1
   15    14    16    1
   16    14    17    1
@<TRIPOS>SUBSTRUCTURE
       1 MOL1            1 RESIDUE      1      MOL     
@<SCITEGIC>MOL_PROPERTY
VConf Rank
SciTegic.value.IntegerValue
23

@<SCITEGIC>MOL_PROPERTY
Conf_Id
SciTegic.value.IntegerValue
19

@<SCITEGIC>MOL_PROPERTY
Delta U+W
SciTegic.value.DoubleValue
-0.496

@<SCITEGIC>MOL_PROPERTY
U+W
SciTegic.value.DoubleValue
-49.923

@<SCITEGIC>MOL_PROPERTY
Grad RMS
SciTegic.value.DoubleValue
0.000000

@<SCITEGIC>MOL_PROPERTY
U
SciTegic.value.DoubleValue
13.863

@<SCITEGIC>MOL_PROPERTY
W
SciTegic.value.DoubleValue
-63.786

@<SCITEGIC>MOL_PROPERTY
W(PB)
SciTegic.value.DoubleValue
-65.856

@<SCITEGIC>MOL_PROPERTY
W(SA)
SciTegic.value.DoubleValue
2.070

@<SCITEGIC>MOL_PROPERTY
Valence
SciTegic.value.DoubleValue
14.117

@<SCITEGIC>MOL_PROPERTY
Coulomb
SciTegic.value.DoubleValue
-1.228

@<SCITEGIC>MOL_PROPERTY
VdW
SciTegic.value.DoubleValue
0.974

@<SCITEGIC>MOL_PROPERTY
VdW6
SciTegic.value.DoubleValue
-4.885

@<SCITEGIC>MOL_PROPERTY
VdW12
SciTegic.value.DoubleValue
5.859

@<SCITEGIC>MOL_PROPERTY
Bond
SciTegic.value.DoubleValue
0.094

@<SCITEGIC>MOL_PROPERTY
Angle
SciTegic.value.DoubleValue
2.818

@<SCITEGIC>MOL_PROPERTY
Pdih
SciTegic.value.DoubleValue
11.205

@<SCITEGIC>MOL_PROPERTY
Idih
SciTegic.value.DoubleValue
0.000

@<SCITEGIC>MOL_PROPERTY
Tether
SciTegic.value.DoubleValue
0.000

@<TRIPOS>MOLECULE
guest-s20_confgen4.mol2 : confsearch ligand conformer 24
          17          16           1
SMALL
USER_CHARGES
 
@<TRIPOS>ATOM
       1    C1      17.703987   18.136331   20.893739 C.2        1 MOL1         0.6132
       2    O1      17.885362   16.936634   20.825613 O.co2      1 MOL1        -0.6749
       3    O2      16.663380   18.638296   21.270793 O.co2      1 MOL1        -0.6749
       4    C2      18.837338   19.063278   20.474082 C.3        1 MOL1        -0.1955
       5    H1      18.400938   19.883018   19.891787 H          1 MOL1         0.0733
       6    H2      19.502075   18.509394   19.800294 H          1 MOL1         0.0733
       7    C3      19.603962   19.617206   21.659921 C.2        1 MOL1        -0.1395
       8    H3      19.046361   20.306613   22.293180 H          1 MOL1         0.0816
       9    C4      20.870411   19.302856   21.948895 C.2        1 MOL1        -0.1394
      10    H4      21.425844   18.609444   21.318235 H          1 MOL1         0.0816
      11    C5      21.632082   19.854076   23.133525 C.3        1 MOL1        -0.1826
      12    H5      22.617330   20.213155   22.806614 H          1 MOL1         0.0736
      13    H6      21.106306   20.719679   23.559553 H          1 MOL1         0.0736
      14    C6      21.812392   18.779957   24.223822 C.3        1 MOL1        -0.2882
      15    H7      22.370110   17.917591   23.835619 H          1 MOL1         0.0749
      16    H8      22.365247   19.185369   25.081179 H          1 MOL1         0.0749
      17    H9      20.838451   18.423110   24.584071 H          1 MOL1         0.0749
@<TRIPOS>BOND
    1     1     2    1
    2     1     3    2
    3     1     4    1
    4     4     5    1
    5     4     6    1
    6     4     7    1
    7     7     8    1
    8     7     9    2
    9     9    10    1
   10     9    11    1
   11    11    12    1
   12    11    13    1
   13    11    14    1
   14    14    15    1
   15    14    16    1
   16    14    17    1
@<TRIPOS>SUBSTRUCTURE
       1 MOL1            1 RESIDUE      1      MOL     
@<SCITEGIC>MOL_PROPERTY
VConf Rank
SciTegic.value.IntegerValue
24

@<SCITEGIC>MOL_PROPERTY
Conf_Id
SciTegic.value.IntegerValue
7

@<SCITEGIC>MOL_PROPERTY
Delta U+W
SciTegic.value.DoubleValue
-0.041

@<SCITEGIC>MOL_PROPERTY
U+W
SciTegic.value.DoubleValue
-49.468

@<SCITEGIC>MOL_PROPERTY
Grad RMS
SciTegic.value.DoubleValue
0.000000

@<SCITEGIC>MOL_PROPERTY
U
SciTegic.value.DoubleValue
14.121

@<SCITEGIC>MOL_PROPERTY
W
SciTegic.value.DoubleValue
-63.589

@<SCITEGIC>MOL_PROPERTY
W(PB)
SciTegic.value.DoubleValue
-65.660

@<SCITEGIC>MOL_PROPERTY
W(SA)
SciTegic.value.DoubleValue
2.071

@<SCITEGIC>MOL_PROPERTY
Valence
SciTegic.value.DoubleValue
15.230

@<SCITEGIC>MOL_PROPERTY
Coulomb
SciTegic.value.DoubleValue
-1.333

@<SCITEGIC>MOL_PROPERTY
VdW
SciTegic.value.DoubleValue
0.224

@<SCITEGIC>MOL_PROPERTY
VdW6
SciTegic.value.DoubleValue
-4.212

@<SCITEGIC>MOL_PROPERTY
VdW12
SciTegic.value.DoubleValue
4.436

@<SCITEGIC>MOL_PROPERTY
Bond
SciTegic.value.DoubleValue
0.044

@<SCITEGIC>MOL_PROPERTY
Angle
SciTegic.value.DoubleValue
2.230

@<SCITEGIC>MOL_PROPERTY
Pdih
SciTegic.value.DoubleValue
12.956

@<SCITEGIC>MOL_PROPERTY
Idih
SciTegic.value.DoubleValue
0.000

@<SCITEGIC>MOL_PROPERTY
Tether
SciTegic.value.DoubleValue
0.000

@<TRIPOS>MOLECULE
guest-s20_confgen4.mol2 : confsearch ligand conformer 25
          17          16           1
SMALL
USER_CHARGES
 
@<TRIPOS>ATOM
       1    C1      18.400412   21.226142   21.360543 C.2        1 MOL1         0.6132
       2    O1      19.164467   21.942355   20.743898 O.co2      1 MOL1        -0.6749
       3    O2      17.663691   21.629372   22.239025 O.co2      1 MOL1        -0.6749
       4    C2      18.342766   19.746497   20.993250 C.3        1 MOL1        -0.1955
       5    H1      18.552781   19.657726   19.920971 H          1 MOL1         0.0733
       6    H2      17.308895   19.407448   21.126955 H          1 MOL1         0.0733
       7    C3      19.282511   18.838602   21.773945 C.2        1 MOL1        -0.1395
       8    H3      19.225166   17.786890   21.496169 H          1 MOL1         0.0816
       9    C4      20.134997   19.224727   22.730590 C.2        1 MOL1        -0.1394
      10    H4      20.212705   20.270212   23.026658 H          1 MOL1         0.0816
      11    C5      21.048623   18.279593   23.478887 C.3        1 MOL1        -0.1826
      12    H5      20.975957   18.470938   24.558066 H          1 MOL1         0.0736
      13    H6      20.737084   17.237732   23.321966 H          1 MOL1         0.0736
      14    C6      22.511601   18.448231   23.024693 C.3        1 MOL1        -0.2882
      15    H7      23.170117   17.761143   23.571801 H          1 MOL1         0.0749
      16    H8      22.613558   18.236608   21.952119 H          1 MOL1         0.0749
      17    H9      22.862076   19.472855   23.205719 H          1 MOL1         0.0749
@<TRIPOS>BOND
    1     1     2    1
    2     1     3    2
    3     1     4    1
    4     4     5    1
    5     4     6    1
    6     4     7    1
    7     7     8    1
    8     7     9    2
    9     9    10    1
   10     9    11    1
   11    11    12    1
   12    11    13    1
   13    11    14    1
   14    14    15    1
   15    14    16    1
   16    14    17    1
@<TRIPOS>SUBSTRUCTURE
       1 MOL1            1 RESIDUE      1      MOL     
@<SCITEGIC>MOL_PROPERTY
VConf Rank
SciTegic.value.IntegerValue
25

@<SCITEGIC>MOL_PROPERTY
Conf_Id
SciTegic.value.IntegerValue
39

@<SCITEGIC>MOL_PROPERTY
Delta U+W
SciTegic.value.DoubleValue
-0.422

@<SCITEGIC>MOL_PROPERTY
U+W
SciTegic.value.DoubleValue
-49.849

@<SCITEGIC>MOL_PROPERTY
Grad RMS
SciTegic.value.DoubleValue
0.000000

@<SCITEGIC>MOL_PROPERTY
U
SciTegic.value.DoubleValue
14.465

@<SCITEGIC>MOL_PROPERTY
W
SciTegic.value.DoubleValue
-64.314

@<SCITEGIC>MOL_PROPERTY
W(PB)
SciTegic.value.DoubleValue
-66.406

@<SCITEGIC>MOL_PROPERTY
W(SA)
SciTegic.value.DoubleValue
2.093

@<SCITEGIC>MOL_PROPERTY
Valence
SciTegic.value.DoubleValue
14.072

@<SCITEGIC>MOL_PROPERTY
Coulomb
SciTegic.value.DoubleValue
-0.199

@<SCITEGIC>MOL_PROPERTY
VdW
SciTegic.value.DoubleValue
0.592

@<SCITEGIC>MOL_PROPERTY
VdW6
SciTegic.value.DoubleValue
-5.019

@<SCITEGIC>MOL_PROPERTY
VdW12
SciTegic.value.DoubleValue
5.611

@<SCITEGIC>MOL_PROPERTY
Bond
SciTegic.value.DoubleValue
0.085

@<SCITEGIC>MOL_PROPERTY
Angle
SciTegic.value.DoubleValue
2.748

@<SCITEGIC>MOL_PROPERTY
Pdih
SciTegic.value.DoubleValue
11.238

@<SCITEGIC>MOL_PROPERTY
Idih
SciTegic.value.DoubleValue
0.001

@<SCITEGIC>MOL_PROPERTY
Tether
SciTegic.value.DoubleValue
0.000

@<TRIPOS>MOLECULE
guest-s20_confgen4.mol2 : confsearch ligand conformer 26
          17          16           1
SMALL
USER_CHARGES
 
@<TRIPOS>ATOM
       1    C1      18.652242   21.798982   23.337054 C.2        1 MOL1         0.6132
       2    O1      17.920329   21.594535   24.285455 O.co2      1 MOL1        -0.6749
       3    O2      18.393352   22.582761   22.445154 O.co2      1 MOL1        -0.6749
       4    C2      19.967488   21.034220   23.267263 C.3        1 MOL1        -0.1955
       5    H1      20.391188   21.003644   24.277735 H          1 MOL1         0.0733
       6    H2      20.664839   21.607098   22.644245 H          1 MOL1         0.0733
       7    C3      19.792585   19.625407   22.733034 C.2        1 MOL1        -0.1395
       8    H3      19.241481   18.946578   23.383170 H          1 MOL1         0.0816
       9    C4      20.262005   19.205442   21.554263 C.2        1 MOL1        -0.1394
      10    H4      20.810420   19.885586   20.903336 H          1 MOL1         0.0816
      11    C5      20.083376   17.801305   21.021522 C.3        1 MOL1        -0.1826
      12    H5      19.317257   17.265676   21.598916 H          1 MOL1         0.0736
      13    H6      19.725392   17.841288   19.983840 H          1 MOL1         0.0736
      14    C6      21.407471   17.014785   21.078251 C.3        1 MOL1        -0.2882
      15    H7      21.772239   16.939449   22.111145 H          1 MOL1         0.0749
      16    H8      21.271739   15.997042   20.689842 H          1 MOL1         0.0749
      17    H9      22.182311   17.508312   20.477016 H          1 MOL1         0.0749
@<TRIPOS>BOND
    1     1     2    1
    2     1     3    2
    3     1     4    1
    4     4     5    1
    5     4     6    1
    6     4     7    1
    7     7     8    1
    8     7     9    2
    9     9    10    1
   10     9    11    1
   11    11    12    1
   12    11    13    1
   13    11    14    1
   14    14    15    1
   15    14    16    1
   16    14    17    1
@<TRIPOS>SUBSTRUCTURE
       1 MOL1            1 RESIDUE      1      MOL     
@<SCITEGIC>MOL_PROPERTY
VConf Rank
SciTegic.value.IntegerValue
26

@<SCITEGIC>MOL_PROPERTY
Conf_Id
SciTegic.value.IntegerValue
38

@<SCITEGIC>MOL_PROPERTY
Delta U+W
SciTegic.value.DoubleValue
0.000

@<SCITEGIC>MOL_PROPERTY
U+W
SciTegic.value.DoubleValue
-49.427

@<SCITEGIC>MOL_PROPERTY
Grad RMS
SciTegic.value.DoubleValue
0.000000

@<SCITEGIC>MOL_PROPERTY
U
SciTegic.value.DoubleValue
13.666

@<SCITEGIC>MOL_PROPERTY
W
SciTegic.value.DoubleValue
-63.093

@<SCITEGIC>MOL_PROPERTY
W(PB)
SciTegic.value.DoubleValue
-65.225

@<SCITEGIC>MOL_PROPERTY
W(SA)
SciTegic.value.DoubleValue
2.132

@<SCITEGIC>MOL_PROPERTY
Valence
SciTegic.value.DoubleValue
15.226

@<SCITEGIC>MOL_PROPERTY
Coulomb
SciTegic.value.DoubleValue
-1.822

@<SCITEGIC>MOL_PROPERTY
VdW
SciTegic.value.DoubleValue
0.261

@<SCITEGIC>MOL_PROPERTY
VdW6
SciTegic.value.DoubleValue
-4.165

@<SCITEGIC>MOL_PROPERTY
VdW12
SciTegic.value.DoubleValue
4.426

@<SCITEGIC>MOL_PROPERTY
Bond
SciTegic.value.DoubleValue
0.044

@<SCITEGIC>MOL_PROPERTY
Angle
SciTegic.value.DoubleValue
2.229

@<SCITEGIC>MOL_PROPERTY
Pdih
SciTegic.value.DoubleValue
12.953

@<SCITEGIC>MOL_PROPERTY
Idih
SciTegic.value.DoubleValue
0.000

@<SCITEGIC>MOL_PROPERTY
Tether
SciTegic.value.DoubleValue
0.000

@<TRIPOS>MOLECULE
guest-s20_confgen4.mol2 : confsearch ligand conformer 27
          17          16           1
SMALL
USER_CHARGES
 
@<TRIPOS>ATOM
       1    C1      17.869345   18.730721   24.299309 C.2        1 MOL1         0.6132
       2    O1      18.407978   18.383491   25.331842 O.co2      1 MOL1        -0.6749
       3    O2      16.814677   18.273527   23.904837 O.co2      1 MOL1        -0.6749
       4    C2      18.548544   19.800871   23.454874 C.3        1 MOL1        -0.1955
       5    H1      19.205006   20.388086   24.108231 H          1 MOL1         0.0733
       6    H2      17.771257   20.480518   23.086892 H          1 MOL1         0.0733
       7    C3      19.323411   19.216102   22.289381 C.2        1 MOL1        -0.1395
       8    H3      18.715717   18.753979   21.511981 H          1 MOL1         0.0816
       9    C4      20.655567   19.241530   22.184783 C.2        1 MOL1        -0.1394
      10    H4      21.262793   19.700973   22.964046 H          1 MOL1         0.0816
      11    C5      21.426733   18.654412   21.023785 C.3        1 MOL1        -0.1826
      12    H5      22.247541   18.030022   21.401865 H          1 MOL1         0.0736
      13    H6      20.780248   17.997221   20.425975 H          1 MOL1         0.0736
      14    C6      21.999475   19.764620   20.121308 C.3        1 MOL1        -0.2882
      15    H7      22.680822   20.415219   20.685149 H          1 MOL1         0.0749
      16    H8      22.558512   19.332548   19.281143 H          1 MOL1         0.0749
      17    H9      21.193899   20.387263   19.710257 H          1 MOL1         0.0749
@<TRIPOS>BOND
    1     1     2    1
    2     1     3    2
    3     1     4    1
    4     4     5    1
    5     4     6    1
    6     4     7    1
    7     7     8    1
    8     7     9    2
    9     9    10    1
   10     9    11    1
   11    11    12    1
   12    11    13    1
   13    11    14    1
   14    14    15    1
   15    14    16    1
   16    14    17    1
@<TRIPOS>SUBSTRUCTURE
       1 MOL1            1 RESIDUE      1      MOL     
@<SCITEGIC>MOL_PROPERTY
VConf Rank
SciTegic.value.IntegerValue
27

@<SCITEGIC>MOL_PROPERTY
Conf_Id
SciTegic.value.IntegerValue
35

@<SCITEGIC>MOL_PROPERTY
Delta U+W
SciTegic.value.DoubleValue
-0.102

@<SCITEGIC>MOL_PROPERTY
U+W
SciTegic.value.DoubleValue
-49.529

@<SCITEGIC>MOL_PROPERTY
Grad RMS
SciTegic.value.DoubleValue
0.000000

@<SCITEGIC>MOL_PROPERTY
U
SciTegic.value.DoubleValue
13.666

@<SCITEGIC>MOL_PROPERTY
W
SciTegic.value.DoubleValue
-63.195

@<SCITEGIC>MOL_PROPERTY
W(PB)
SciTegic.value.DoubleValue
-65.299

@<SCITEGIC>MOL_PROPERTY
W(SA)
SciTegic.value.DoubleValue
2.103

@<SCITEGIC>MOL_PROPERTY
Valence
SciTegic.value.DoubleValue
15.226

@<SCITEGIC>MOL_PROPERTY
Coulomb
SciTegic.value.DoubleValue
-1.822

@<SCITEGIC>MOL_PROPERTY
VdW
SciTegic.value.DoubleValue
0.261

@<SCITEGIC>MOL_PROPERTY
VdW6
SciTegic.value.DoubleValue
-4.165

@<SCITEGIC>MOL_PROPERTY
VdW12
SciTegic.value.DoubleValue
4.426

@<SCITEGIC>MOL_PROPERTY
Bond
SciTegic.value.DoubleValue
0.044

@<SCITEGIC>MOL_PROPERTY
Angle
SciTegic.value.DoubleValue
2.229

@<SCITEGIC>MOL_PROPERTY
Pdih
SciTegic.value.DoubleValue
12.953

@<SCITEGIC>MOL_PROPERTY
Idih
SciTegic.value.DoubleValue
0.000

@<SCITEGIC>MOL_PROPERTY
Tether
SciTegic.value.DoubleValue
0.000

@<TRIPOS>MOLECULE
guest-s20_confgen4.mol2 : confsearch ligand conformer 28
          17          16           1
SMALL
USER_CHARGES
 
@<TRIPOS>ATOM
       1    C1      17.853695   20.828045   22.525945 C.2        1 MOL1         0.6132
       2    O1      17.594893   20.958132   23.706229 O.co2      1 MOL1        -0.6749
       3    O2      17.867429   21.750855   21.735323 O.co2      1 MOL1        -0.6749
       4    C2      18.168404   19.430118   22.009756 C.3        1 MOL1        -0.1955
       5    H1      17.952489   19.404791   20.934896 H          1 MOL1         0.0733
       6    H2      17.475396   18.731245   22.492277 H          1 MOL1         0.0733
       7    C3      19.601498   19.017555   22.288033 C.2        1 MOL1        -0.1395
       8    H3      19.835480   18.870042   23.340925 H          1 MOL1         0.0816
       9    C4      20.527847   18.846476   21.336549 C.2        1 MOL1        -0.1394
      10    H4      20.257683   19.007572   20.293408 H          1 MOL1         0.0816
      11    C5      21.977012   18.439440   21.543506 C.3        1 MOL1        -0.1826
      12    H5      22.175572   17.523481   20.970708 H          1 MOL1         0.0736
      13    H6      22.628863   19.207909   21.106393 H          1 MOL1         0.0736
      14    C6      22.386364   18.211050   23.015341 C.3        1 MOL1        -0.2882
      15    H7      21.790241   17.409099   23.470220 H          1 MOL1         0.0749
      16    H8      23.443420   17.922217   23.080431 H          1 MOL1         0.0749
      17    H9      22.250580   19.125094   23.608280 H          1 MOL1         0.0749
@<TRIPOS>BOND
    1     1     2    1
    2     1     3    2
    3     1     4    1
    4     4     5    1
    5     4     6    1
    6     4     7    1
    7     7     8    1
    8     7     9    2
    9     9    10    1
   10     9    11    1
   11    11    12    1
   12    11    13    1
   13    11    14    1
   14    14    15    1
   15    14    16    1
   16    14    17    1
@<TRIPOS>SUBSTRUCTURE
       1 MOL1            1 RESIDUE      1      MOL     
@<SCITEGIC>MOL_PROPERTY
VConf Rank
SciTegic.value.IntegerValue
28

@<SCITEGIC>MOL_PROPERTY
Conf_Id
SciTegic.value.IntegerValue
19

@<SCITEGIC>MOL_PROPERTY
Delta U+W
SciTegic.value.DoubleValue
-0.496

@<SCITEGIC>MOL_PROPERTY
U+W
SciTegic.value.DoubleValue
-49.923

@<SCITEGIC>MOL_PROPERTY
Grad RMS
SciTegic.value.DoubleValue
0.000000

@<SCITEGIC>MOL_PROPERTY
U
SciTegic.value.DoubleValue
13.863

@<SCITEGIC>MOL_PROPERTY
W
SciTegic.value.DoubleValue
-63.786

@<SCITEGIC>MOL_PROPERTY
W(PB)
SciTegic.value.DoubleValue
-65.856

@<SCITEGIC>MOL_PROPERTY
W(SA)
SciTegic.value.DoubleValue
2.070

@<SCITEGIC>MOL_PROPERTY
Valence
SciTegic.value.DoubleValue
14.117

@<SCITEGIC>MOL_PROPERTY
Coulomb
SciTegic.value.DoubleValue
-1.228

@<SCITEGIC>MOL_PROPERTY
VdW
SciTegic.value.DoubleValue
0.974

@<SCITEGIC>MOL_PROPERTY
VdW6
SciTegic.value.DoubleValue
-4.885

@<SCITEGIC>MOL_PROPERTY
VdW12
SciTegic.value.DoubleValue
5.859

@<SCITEGIC>MOL_PROPERTY
Bond
SciTegic.value.DoubleValue
0.094

@<SCITEGIC>MOL_PROPERTY
Angle
SciTegic.value.DoubleValue
2.818

@<SCITEGIC>MOL_PROPERTY
Pdih
SciTegic.value.DoubleValue
11.205

@<SCITEGIC>MOL_PROPERTY
Idih
SciTegic.value.DoubleValue
0.000

@<SCITEGIC>MOL_PROPERTY
Tether
SciTegic.value.DoubleValue
0.000

@<TRIPOS>MOLECULE
guest-s20_confgen4.mol2 : confsearch ligand conformer 29
          17          16           1
SMALL
USER_CHARGES
 
@<TRIPOS>ATOM
       1    C1      20.302190   16.681111   20.503484 C.2        1 MOL1         0.6132
       2    O1      19.132317   16.476949   20.245554 O.co2      1 MOL1        -0.6749
       3    O2      21.186822   16.664575   19.670324 O.co2      1 MOL1        -0.6749
       4    C2      20.684403   16.962652   21.950714 C.3        1 MOL1        -0.1955
       5    H1      21.607370   16.412036   22.166213 H          1 MOL1         0.0733
       6    H2      19.903759   16.546723   22.598981 H          1 MOL1         0.0733
       7    C3      20.884884   18.441616   22.221337 C.2        1 MOL1        -0.1395
       8    H3      21.745393   18.892224   21.727685 H          1 MOL1         0.0816
       9    C4      20.083493   19.178894   22.996198 C.2        1 MOL1        -0.1394
      10    H4      19.220224   18.728927   23.485438 H          1 MOL1         0.0816
      11    C5      20.283512   20.654179   23.262397 C.3        1 MOL1        -0.1826
      12    H5      20.208041   20.850203   24.340544 H          1 MOL1         0.0736
      13    H6      21.290733   20.967216   22.954629 H          1 MOL1         0.0736
      14    C6      19.235593   21.498928   22.511893 C.3        1 MOL1        -0.2882
      15    H7      18.218536   21.233594   22.829099 H          1 MOL1         0.0749
      16    H8      19.385612   22.568519   22.708203 H          1 MOL1         0.0749
      17    H9      19.308693   21.337662   21.428228 H          1 MOL1         0.0749
@<TRIPOS>BOND
    1     1     2    1
    2     1     3    2
    3     1     4    1
    4     4     5    1
    5     4     6    1
    6     4     7    1
    7     7     8    1
    8     7     9    2
    9     9    10    1
   10     9    11    1
   11    11    12    1
   12    11    13    1
   13    11    14    1
   14    14    15    1
   15    14    16    1
   16    14    17    1
@<TRIPOS>SUBSTRUCTURE
       1 MOL1            1 RESIDUE      1      MOL     
@<SCITEGIC>MOL_PROPERTY
VConf Rank
SciTegic.value.IntegerValue
29

@<SCITEGIC>MOL_PROPERTY
Conf_Id
SciTegic.value.IntegerValue
7

@<SCITEGIC>MOL_PROPERTY
Delta U+W
SciTegic.value.DoubleValue
-0.041

@<SCITEGIC>MOL_PROPERTY
U+W
SciTegic.value.DoubleValue
-49.468

@<SCITEGIC>MOL_PROPERTY
Grad RMS
SciTegic.value.DoubleValue
0.000000

@<SCITEGIC>MOL_PROPERTY
U
SciTegic.value.DoubleValue
14.121

@<SCITEGIC>MOL_PROPERTY
W
SciTegic.value.DoubleValue
-63.589

@<SCITEGIC>MOL_PROPERTY
W(PB)
SciTegic.value.DoubleValue
-65.660

@<SCITEGIC>MOL_PROPERTY
W(SA)
SciTegic.value.DoubleValue
2.071

@<SCITEGIC>MOL_PROPERTY
Valence
SciTegic.value.DoubleValue
15.230

@<SCITEGIC>MOL_PROPERTY
Coulomb
SciTegic.value.DoubleValue
-1.333

@<SCITEGIC>MOL_PROPERTY
VdW
SciTegic.value.DoubleValue
0.224

@<SCITEGIC>MOL_PROPERTY
VdW6
SciTegic.value.DoubleValue
-4.212

@<SCITEGIC>MOL_PROPERTY
VdW12
SciTegic.value.DoubleValue
4.436

@<SCITEGIC>MOL_PROPERTY
Bond
SciTegic.value.DoubleValue
0.044

@<SCITEGIC>MOL_PROPERTY
Angle
SciTegic.value.DoubleValue
2.230

@<SCITEGIC>MOL_PROPERTY
Pdih
SciTegic.value.DoubleValue
12.956

@<SCITEGIC>MOL_PROPERTY
Idih
SciTegic.value.DoubleValue
0.000

@<SCITEGIC>MOL_PROPERTY
Tether
SciTegic.value.DoubleValue
0.000

@<TRIPOS>MOLECULE
guest-s20_confgen4.mol2 : confsearch ligand conformer 30
          17          16           1
SMALL
USER_CHARGES
 
@<TRIPOS>ATOM
       1    C1      18.254847   21.208286   21.662069 C.2        1 MOL1         0.6132
       2    O1      18.264481   21.167168   20.447488 O.co2      1 MOL1        -0.6749
       3    O2      18.426499   22.228046   22.300588 O.co2      1 MOL1        -0.6749
       4    C2      17.985135   19.915518   22.425996 C.3        1 MOL1        -0.1955
       5    H1      17.313245   19.299155   21.817367 H          1 MOL1         0.0733
       6    H2      17.422099   20.171628   23.331048 H          1 MOL1         0.0733
       7    C3      19.217665   19.106160   22.803734 C.2        1 MOL1        -0.1395
       8    H3      19.002623   18.187626   23.348342 H          1 MOL1         0.0816
       9    C4      20.486251   19.428308   22.524619 C.2        1 MOL1        -0.1394
      10    H4      20.728624   20.340461   21.980592 H          1 MOL1         0.0816
      11    C5      21.678366   18.587789   22.925032 C.3        1 MOL1        -0.1826
      12    H5      22.441938   19.225779   23.390271 H          1 MOL1         0.0736
      13    H6      21.388599   17.842621   23.678632 H          1 MOL1         0.0736
      14    C6      22.284150   17.868968   21.703820 C.3        1 MOL1        -0.2882
      15    H7      23.149447   17.261803   21.999914 H          1 MOL1         0.0749
      16    H8      21.545326   17.204592   21.236554 H          1 MOL1         0.0749
      17    H9      22.618111   18.593164   20.949188 H          1 MOL1         0.0749
@<TRIPOS>BOND
    1     1     2    1
    2     1     3    2
    3     1     4    1
    4     4     5    1
    5     4     6    1
    6     4     7    1
    7     7     8    1
    8     7     9    2
    9     9    10    1
   10     9    11    1
   11    11    12    1
   12    11    13    1
   13    11    14    1
   14    14    15    1
   15    14    16    1
   16    14    17    1
@<TRIPOS>SUBSTRUCTURE
       1 MOL1            1 RESIDUE      1      MOL     
@<SCITEGIC>MOL_PROPERTY
VConf Rank
SciTegic.value.IntegerValue
30

@<SCITEGIC>MOL_PROPERTY
Conf_Id
SciTegic.value.IntegerValue
39

@<SCITEGIC>MOL_PROPERTY
Delta U+W
SciTegic.value.DoubleValue
-0.422

@<SCITEGIC>MOL_PROPERTY
U+W
SciTegic.value.DoubleValue
-49.849

@<SCITEGIC>MOL_PROPERTY
Grad RMS
SciTegic.value.DoubleValue
0.000000

@<SCITEGIC>MOL_PROPERTY
U
SciTegic.value.DoubleValue
14.465

@<SCITEGIC>MOL_PROPERTY
W
SciTegic.value.DoubleValue
-64.314

@<SCITEGIC>MOL_PROPERTY
W(PB)
SciTegic.value.DoubleValue
-66.406

@<SCITEGIC>MOL_PROPERTY
W(SA)
SciTegic.value.DoubleValue
2.093

@<SCITEGIC>MOL_PROPERTY
Valence
SciTegic.value.DoubleValue
14.072

@<SCITEGIC>MOL_PROPERTY
Coulomb
SciTegic.value.DoubleValue
-0.199

@<SCITEGIC>MOL_PROPERTY
VdW
SciTegic.value.DoubleValue
0.592

@<SCITEGIC>MOL_PROPERTY
VdW6
SciTegic.value.DoubleValue
-5.019

@<SCITEGIC>MOL_PROPERTY
VdW12
SciTegic.value.DoubleValue
5.611

@<SCITEGIC>MOL_PROPERTY
Bond
SciTegic.value.DoubleValue
0.085

@<SCITEGIC>MOL_PROPERTY
Angle
SciTegic.value.DoubleValue
2.748

@<SCITEGIC>MOL_PROPERTY
Pdih
SciTegic.value.DoubleValue
11.238

@<SCITEGIC>MOL_PROPERTY
Idih
SciTegic.value.DoubleValue
0.001

@<SCITEGIC>MOL_PROPERTY
Tether
SciTegic.value.DoubleValue
0.000

@<TRIPOS>MOLECULE
guest-s20_confgen4.mol2 : confsearch ligand conformer 31
          17          16           1
SMALL
USER_CHARGES
 
@<TRIPOS>ATOM
       1    C1      21.206332   19.733986   25.038157 C.2        1 MOL1         0.6132
       2    O1      21.832380   20.757985   25.229071 O.co2      1 MOL1        -0.6749
       3    O2      21.508998   18.661195   25.522235 O.co2      1 MOL1        -0.6749
       4    C2      19.972544   19.802255   24.147813 C.3        1 MOL1        -0.1955
       5    H1      19.433918   20.725162   24.392015 H          1 MOL1         0.0733
       6    H2      19.312868   18.966663   24.410971 H          1 MOL1         0.0733
       7    C3      20.319528   19.776876   22.671431 C.2        1 MOL1        -0.1395
       8    H3      20.839442   20.659719   22.300648 H          1 MOL1         0.0816
       9    C4      20.029560   18.764065   21.849020 C.2        1 MOL1        -0.1394
      10    H4      19.512301   17.880286   22.221091 H          1 MOL1         0.0816
      11    C5      20.379689   18.738884   20.377932 C.3        1 MOL1        -0.1826
      12    H5      21.110020   19.525456   20.143111 H          1 MOL1         0.0736
      13    H6      20.855822   17.781471   20.126551 H          1 MOL1         0.0736
      14    C6      19.123600   18.932505   19.506260 C.3        1 MOL1        -0.2882
      15    H7      18.644079   19.896396   19.722070 H          1 MOL1         0.0749
      16    H8      19.383847   18.912674   18.439975 H          1 MOL1         0.0749
      17    H9      18.390783   18.136530   19.692890 H          1 MOL1         0.0749
@<TRIPOS>BOND
    1     1     2    1
    2     1     3    2
    3     1     4    1
    4     4     5    1
    5     4     6    1
    6     4     7    1
    7     7     8    1
    8     7     9    2
    9     9    10    1
   10     9    11    1
   11    11    12    1
   12    11    13    1
   13    11    14    1
   14    14    15    1
   15    14    16    1
   16    14    17    1
@<TRIPOS>SUBSTRUCTURE
       1 MOL1            1 RESIDUE      1      MOL     
@<SCITEGIC>MOL_PROPERTY
VConf Rank
SciTegic.value.IntegerValue
31

@<SCITEGIC>MOL_PROPERTY
Conf_Id
SciTegic.value.IntegerValue
38

@<SCITEGIC>MOL_PROPERTY
Delta U+W
SciTegic.value.DoubleValue
0.000

@<SCITEGIC>MOL_PROPERTY
U+W
SciTegic.value.DoubleValue
-49.427

@<SCITEGIC>MOL_PROPERTY
Grad RMS
SciTegic.value.DoubleValue
0.000000

@<SCITEGIC>MOL_PROPERTY
U
SciTegic.value.DoubleValue
13.666

@<SCITEGIC>MOL_PROPERTY
W
SciTegic.value.DoubleValue
-63.093

@<SCITEGIC>MOL_PROPERTY
W(PB)
SciTegic.value.DoubleValue
-65.225

@<SCITEGIC>MOL_PROPERTY
W(SA)
SciTegic.value.DoubleValue
2.132

@<SCITEGIC>MOL_PROPERTY
Valence
SciTegic.value.DoubleValue
15.226

@<SCITEGIC>MOL_PROPERTY
Coulomb
SciTegic.value.DoubleValue
-1.822

@<SCITEGIC>MOL_PROPERTY
VdW
SciTegic.value.DoubleValue
0.261

@<SCITEGIC>MOL_PROPERTY
VdW6
SciTegic.value.DoubleValue
-4.165

@<SCITEGIC>MOL_PROPERTY
VdW12
SciTegic.value.DoubleValue
4.426

@<SCITEGIC>MOL_PROPERTY
Bond
SciTegic.value.DoubleValue
0.044

@<SCITEGIC>MOL_PROPERTY
Angle
SciTegic.value.DoubleValue
2.229

@<SCITEGIC>MOL_PROPERTY
Pdih
SciTegic.value.DoubleValue
12.953

@<SCITEGIC>MOL_PROPERTY
Idih
SciTegic.value.DoubleValue
0.000

@<SCITEGIC>MOL_PROPERTY
Tether
SciTegic.value.DoubleValue
0.000

@<TRIPOS>MOLECULE
guest-s20_confgen4.mol2 : confsearch ligand conformer 32
          17          16           1
SMALL
USER_CHARGES
 
@<TRIPOS>ATOM
       1    C1      19.663687   17.688105   24.814860 C.2        1 MOL1         0.6132
       2    O1      20.616666   17.885408   25.542679 O.co2      1 MOL1        -0.6749
       3    O2      19.087196   16.621079   24.736925 O.co2      1 MOL1        -0.6749
       4    C2      19.159331   18.840948   23.956850 C.3        1 MOL1        -0.1955
       5    H1      19.469180   19.781077   24.428859 H          1 MOL1         0.0733
       6    H2      18.063599   18.818425   23.976132 H          1 MOL1         0.0733
       7    C3      19.656771   18.761150   22.526140 C.2        1 MOL1        -0.1395
       8    H3      19.257964   17.933320   21.940605 H          1 MOL1         0.0816
       9    C4      20.523637   19.621408   21.983253 C.2        1 MOL1        -0.1394
      10    H4      20.924471   20.447111   22.570286 H          1 MOL1         0.0816
      11    C5      21.021583   19.537962   20.557627 C.3        1 MOL1        -0.1826
      12    H5      22.115894   19.631475   20.541132 H          1 MOL1         0.0736
      13    H6      20.782374   18.557303   20.123685 H          1 MOL1         0.0736
      14    C6      20.398065   20.646560   19.687400 C.3        1 MOL1        -0.2882
      15    H7      20.653629   21.640695   20.077030 H          1 MOL1         0.0749
      16    H8      20.763642   20.581328   18.654354 H          1 MOL1         0.0749
      17    H9      19.303839   20.557752   19.667840 H          1 MOL1         0.0749
@<TRIPOS>BOND
    1     1     2    1
    2     1     3    2
    3     1     4    1
    4     4     5    1
    5     4     6    1
    6     4     7    1
    7     7     8    1
    8     7     9    2
    9     9    10    1
   10     9    11    1
   11    11    12    1
   12    11    13    1
   13    11    14    1
   14    14    15    1
   15    14    16    1
   16    14    17    1
@<TRIPOS>SUBSTRUCTURE
       1 MOL1            1 RESIDUE      1      MOL     
@<SCITEGIC>MOL_PROPERTY
VConf Rank
SciTegic.value.IntegerValue
32

@<SCITEGIC>MOL_PROPERTY
Conf_Id
SciTegic.value.IntegerValue
35

@<SCITEGIC>MOL_PROPERTY
Delta U+W
SciTegic.value.DoubleValue
-0.102

@<SCITEGIC>MOL_PROPERTY
U+W
SciTegic.value.DoubleValue
-49.529

@<SCITEGIC>MOL_PROPERTY
Grad RMS
SciTegic.value.DoubleValue
0.000000

@<SCITEGIC>MOL_PROPERTY
U
SciTegic.value.DoubleValue
13.666

@<SCITEGIC>MOL_PROPERTY
W
SciTegic.value.DoubleValue
-63.195

@<SCITEGIC>MOL_PROPERTY
W(PB)
SciTegic.value.DoubleValue
-65.299

@<SCITEGIC>MOL_PROPERTY
W(SA)
SciTegic.value.DoubleValue
2.103

@<SCITEGIC>MOL_PROPERTY
Valence
SciTegic.value.DoubleValue
15.226

@<SCITEGIC>MOL_PROPERTY
Coulomb
SciTegic.value.DoubleValue
-1.822

@<SCITEGIC>MOL_PROPERTY
VdW
SciTegic.value.DoubleValue
0.261

@<SCITEGIC>MOL_PROPERTY
VdW6
SciTegic.value.DoubleValue
-4.165

@<SCITEGIC>MOL_PROPERTY
VdW12
SciTegic.value.DoubleValue
4.426

@<SCITEGIC>MOL_PROPERTY
Bond
SciTegic.value.DoubleValue
0.044

@<SCITEGIC>MOL_PROPERTY
Angle
SciTegic.value.DoubleValue
2.229

@<SCITEGIC>MOL_PROPERTY
Pdih
SciTegic.value.DoubleValue
12.953

@<SCITEGIC>MOL_PROPERTY
Idih
SciTegic.value.DoubleValue
0.000

@<SCITEGIC>MOL_PROPERTY
Tether
SciTegic.value.DoubleValue
0.000

@<TRIPOS>MOLECULE
guest-s20_confgen4.mol2 : confsearch ligand conformer 33
          17          16           1
SMALL
USER_CHARGES
 
@<TRIPOS>ATOM
       1    C1      23.160678   19.233491   21.965564 C.2        1 MOL1         0.6132
       2    O1      23.499461   18.910784   20.843932 O.co2      1 MOL1        -0.6749
       3    O2      23.609117   20.199265   22.551254 O.co2      1 MOL1        -0.6749
       4    C2      22.124536   18.373965   22.677827 C.3        1 MOL1        -0.1955
       5    H1      22.246806   18.514463   23.758519 H          1 MOL1         0.0733
       6    H2      22.355691   17.324224   22.463068 H          1 MOL1         0.0733
       7    C3      20.706822   18.694214   22.243164 C.2        1 MOL1        -0.1395
       8    H3      20.475828   18.426264   21.213633 H          1 MOL1         0.0816
       9    C4      19.792872   19.265444   23.037585 C.2        1 MOL1        -0.1394
      10    H4      20.062078   19.523680   24.061268 H          1 MOL1         0.0816
      11    C5      18.361489   19.616428   22.668067 C.3        1 MOL1        -0.1826
      12    H5      17.678927   19.108559   23.362822 H          1 MOL1         0.0736
      13    H6      18.204268   20.691002   22.832662 H          1 MOL1         0.0736
      14    C6      17.957312   19.265512   21.219092 C.3        1 MOL1        -0.2882
      15    H7      18.050366   18.187290   21.034213 H          1 MOL1         0.0749
      16    H8      16.913849   19.549841   21.031023 H          1 MOL1         0.0749
      17    H9      18.586765   19.798694   20.494526 H          1 MOL1         0.0749
@<TRIPOS>BOND
    1     1     2    1
    2     1     3    2
    3     1     4    1
    4     4     5    1
    5     4     6    1
    6     4     7    1
    7     7     8    1
    8     7     9    2
    9     9    10    1
   10     9    11    1
   11    11    12    1
   12    11    13    1
   13    11    14    1
   14    14    15    1
   15    14    16    1
   16    14    17    1
@<TRIPOS>SUBSTRUCTURE
       1 MOL1            1 RESIDUE      1      MOL     
@<SCITEGIC>MOL_PROPERTY
VConf Rank
SciTegic.value.IntegerValue
33

@<SCITEGIC>MOL_PROPERTY
Conf_Id
SciTegic.value.IntegerValue
19

@<SCITEGIC>MOL_PROPERTY
Delta U+W
SciTegic.value.DoubleValue
-0.496

@<SCITEGIC>MOL_PROPERTY
U+W
SciTegic.value.DoubleValue
-49.923

@<SCITEGIC>MOL_PROPERTY
Grad RMS
SciTegic.value.DoubleValue
0.000000

@<SCITEGIC>MOL_PROPERTY
U
SciTegic.value.DoubleValue
13.863

@<SCITEGIC>MOL_PROPERTY
W
SciTegic.value.DoubleValue
-63.786

@<SCITEGIC>MOL_PROPERTY
W(PB)
SciTegic.value.DoubleValue
-65.856

@<SCITEGIC>MOL_PROPERTY
W(SA)
SciTegic.value.DoubleValue
2.070

@<SCITEGIC>MOL_PROPERTY
Valence
SciTegic.value.DoubleValue
14.117

@<SCITEGIC>MOL_PROPERTY
Coulomb
SciTegic.value.DoubleValue
-1.228

@<SCITEGIC>MOL_PROPERTY
VdW
SciTegic.value.DoubleValue
0.974

@<SCITEGIC>MOL_PROPERTY
VdW6
SciTegic.value.DoubleValue
-4.885

@<SCITEGIC>MOL_PROPERTY
VdW12
SciTegic.value.DoubleValue
5.859

@<SCITEGIC>MOL_PROPERTY
Bond
SciTegic.value.DoubleValue
0.094

@<SCITEGIC>MOL_PROPERTY
Angle
SciTegic.value.DoubleValue
2.818

@<SCITEGIC>MOL_PROPERTY
Pdih
SciTegic.value.DoubleValue
11.205

@<SCITEGIC>MOL_PROPERTY
Idih
SciTegic.value.DoubleValue
0.000

@<SCITEGIC>MOL_PROPERTY
Tether
SciTegic.value.DoubleValue
0.000

@<TRIPOS>MOLECULE
guest-s20_confgen4.mol2 : confsearch ligand conformer 34
          17          16           1
SMALL
USER_CHARGES
 
@<TRIPOS>ATOM
       1    C1      21.778884   16.872391   21.122619 C.2        1 MOL1         0.6132
       2    O1      22.911370   17.276075   21.299614 O.co2      1 MOL1        -0.6749
       3    O2      21.417382   15.744383   21.394493 O.co2      1 MOL1        -0.6749
       4    C2      20.758021   17.826975   20.517281 C.3        1 MOL1        -0.1955
       5    H1      20.169750   17.265611   19.782235 H          1 MOL1         0.0733
       6    H2      21.300174   18.605611   19.967326 H          1 MOL1         0.0733
       7    C3      19.842183   18.436510   21.561537 C.2        1 MOL1        -0.1395
       8    H3      19.157664   17.739227   22.043664 H          1 MOL1         0.0816
       9    C4      19.846720   19.728812   21.902345 C.2        1 MOL1        -0.1394
      10    H4      20.534977   20.424625   21.423590 H          1 MOL1         0.0816
      11    C5      18.934664   20.334029   22.945994 C.3        1 MOL1        -0.1826
      12    H5      18.468962   21.245730   22.547943 H          1 MOL1         0.0736
      13    H6      18.116448   19.642222   23.189169 H          1 MOL1         0.0736
      14    C6      19.713704   20.674068   24.231475 C.3        1 MOL1        -0.2882
      15    H7      20.515162   21.395357   24.024513 H          1 MOL1         0.0749
      16    H8      19.047091   21.112456   24.985471 H          1 MOL1         0.0749
      17    H9      20.168419   19.771925   24.661653 H          1 MOL1         0.0749
@<TRIPOS>BOND
    1     1     2    1
    2     1     3    2
    3     1     4    1
    4     4     5    1
    5     4     6    1
    6     4     7    1
    7     7     8    1
    8     7     9    2
    9     9    10    1
   10     9    11    1
   11    11    12    1
   12    11    13    1
   13    11    14    1
   14    14    15    1
   15    14    16    1
   16    14    17    1
@<TRIPOS>SUBSTRUCTURE
       1 MOL1            1 RESIDUE      1      MOL     
@<SCITEGIC>MOL_PROPERTY
VConf Rank
SciTegic.value.IntegerValue
34

@<SCITEGIC>MOL_PROPERTY
Conf_Id
SciTegic.value.IntegerValue
7

@<SCITEGIC>MOL_PROPERTY
Delta U+W
SciTegic.value.DoubleValue
-0.041

@<SCITEGIC>MOL_PROPERTY
U+W
SciTegic.value.DoubleValue
-49.468

@<SCITEGIC>MOL_PROPERTY
Grad RMS
SciTegic.value.DoubleValue
0.000000

@<SCITEGIC>MOL_PROPERTY
U
SciTegic.value.DoubleValue
14.121

@<SCITEGIC>MOL_PROPERTY
W
SciTegic.value.DoubleValue
-63.589

@<SCITEGIC>MOL_PROPERTY
W(PB)
SciTegic.value.DoubleValue
-65.660

@<SCITEGIC>MOL_PROPERTY
W(SA)
SciTegic.value.DoubleValue
2.071

@<SCITEGIC>MOL_PROPERTY
Valence
SciTegic.value.DoubleValue
15.230

@<SCITEGIC>MOL_PROPERTY
Coulomb
SciTegic.value.DoubleValue
-1.333

@<SCITEGIC>MOL_PROPERTY
VdW
SciTegic.value.DoubleValue
0.224

@<SCITEGIC>MOL_PROPERTY
VdW6
SciTegic.value.DoubleValue
-4.212

@<SCITEGIC>MOL_PROPERTY
VdW12
SciTegic.value.DoubleValue
4.436

@<SCITEGIC>MOL_PROPERTY
Bond
SciTegic.value.DoubleValue
0.044

@<SCITEGIC>MOL_PROPERTY
Angle
SciTegic.value.DoubleValue
2.230

@<SCITEGIC>MOL_PROPERTY
Pdih
SciTegic.value.DoubleValue
12.956

@<SCITEGIC>MOL_PROPERTY
Idih
SciTegic.value.DoubleValue
0.000

@<SCITEGIC>MOL_PROPERTY
Tether
SciTegic.value.DoubleValue
0.000

@<TRIPOS>MOLECULE
guest-s20_confgen4.mol2 : confsearch ligand conformer 35
          17          16           1
SMALL
USER_CHARGES
 
@<TRIPOS>ATOM
       1    C1      20.859251   21.936161   22.232635 C.2        1 MOL1         0.6132
       2    O1      22.070890   21.843398   22.250524 O.co2      1 MOL1        -0.6749
       3    O2      20.224606   22.595443   23.032420 O.co2      1 MOL1        -0.6749
       4    C2      20.095760   21.208493   21.130293 C.3        1 MOL1        -0.1955
       5    H1      20.732881   21.185911   20.238476 H          1 MOL1         0.0733
       6    H2      19.226129   21.820500   20.864003 H          1 MOL1         0.0733
       7    C3      19.641216   19.795697   21.468336 C.2        1 MOL1        -0.1395
       8    H3      19.098205   19.294671   20.667926 H          1 MOL1         0.0816
       9    C4      19.854140   19.156300   22.624550 C.2        1 MOL1        -0.1394
      10    H4      20.394993   19.634104   23.440586 H          1 MOL1         0.0816
      11    C5      19.378799   17.749214   22.911082 C.3        1 MOL1        -0.1826
      12    H5      18.880070   17.718682   23.889273 H          1 MOL1         0.0736
      13    H6      18.633316   17.435540   22.167430 H          1 MOL1         0.0736
      14    C6      20.556169   16.754841   22.903550 C.3        1 MOL1        -0.2882
      15    H7      20.205732   15.735901   23.113348 H          1 MOL1         0.0749
      16    H8      21.055245   16.749142   21.925550 H          1 MOL1         0.0749
      17    H9      21.300003   17.023074   23.665272 H          1 MOL1         0.0749
@<TRIPOS>BOND
    1     1     2    1
    2     1     3    2
    3     1     4    1
    4     4     5    1
    5     4     6    1
    6     4     7    1
    7     7     8    1
    8     7     9    2
    9     9    10    1
   10     9    11    1
   11    11    12    1
   12    11    13    1
   13    11    14    1
   14    14    15    1
   15    14    16    1
   16    14    17    1
@<TRIPOS>SUBSTRUCTURE
       1 MOL1            1 RESIDUE      1      MOL     
@<SCITEGIC>MOL_PROPERTY
VConf Rank
SciTegic.value.IntegerValue
35

@<SCITEGIC>MOL_PROPERTY
Conf_Id
SciTegic.value.IntegerValue
39

@<SCITEGIC>MOL_PROPERTY
Delta U+W
SciTegic.value.DoubleValue
-0.422

@<SCITEGIC>MOL_PROPERTY
U+W
SciTegic.value.DoubleValue
-49.849

@<SCITEGIC>MOL_PROPERTY
Grad RMS
SciTegic.value.DoubleValue
0.000000

@<SCITEGIC>MOL_PROPERTY
U
SciTegic.value.DoubleValue
14.465

@<SCITEGIC>MOL_PROPERTY
W
SciTegic.value.DoubleValue
-64.314

@<SCITEGIC>MOL_PROPERTY
W(PB)
SciTegic.value.DoubleValue
-66.406

@<SCITEGIC>MOL_PROPERTY
W(SA)
SciTegic.value.DoubleValue
2.093

@<SCITEGIC>MOL_PROPERTY
Valence
SciTegic.value.DoubleValue
14.072

@<SCITEGIC>MOL_PROPERTY
Coulomb
SciTegic.value.DoubleValue
-0.199

@<SCITEGIC>MOL_PROPERTY
VdW
SciTegic.value.DoubleValue
0.592

@<SCITEGIC>MOL_PROPERTY
VdW6
SciTegic.value.DoubleValue
-5.019

@<SCITEGIC>MOL_PROPERTY
VdW12
SciTegic.value.DoubleValue
5.611

@<SCITEGIC>MOL_PROPERTY
Bond
SciTegic.value.DoubleValue
0.085

@<SCITEGIC>MOL_PROPERTY
Angle
SciTegic.value.DoubleValue
2.748

@<SCITEGIC>MOL_PROPERTY
Pdih
SciTegic.value.DoubleValue
11.238

@<SCITEGIC>MOL_PROPERTY
Idih
SciTegic.value.DoubleValue
0.001

@<SCITEGIC>MOL_PROPERTY
Tether
SciTegic.value.DoubleValue
0.000

@<TRIPOS>MOLECULE
guest-s20_confgen4.mol2 : confsearch ligand conformer 36
          17          16           1
SMALL
USER_CHARGES
 
@<TRIPOS>ATOM
       1    C1      16.963319   19.007256   22.328226 C.2        1 MOL1         0.6132
       2    O1      16.363577   18.776837   21.296637 O.co2      1 MOL1        -0.6749
       3    O2      16.559558   19.769377   23.184362 O.co2      1 MOL1        -0.6749
       4    C2      18.290325   18.297037   22.561138 C.3        1 MOL1        -0.1955
       5    H1      18.179289   17.260349   22.222819 H          1 MOL1         0.0733
       6    H2      18.476681   18.263711   23.641324 H          1 MOL1         0.0733
       7    C3      19.441336   18.962639   21.831144 C.2        1 MOL1        -0.1395
       8    H3      19.405429   18.892664   20.744399 H          1 MOL1         0.0816
       9    C4      20.446232   19.601783   22.437696 C.2        1 MOL1        -0.1394
      10    H4      20.479954   19.673947   23.524304 H          1 MOL1         0.0816
      11    C5      21.591138   20.268154   21.707996 C.3        1 MOL1        -0.1826
      12    H5      21.355438   20.376362   20.640308 H          1 MOL1         0.0736
      13    H6      21.741551   21.282413   22.101939 H          1 MOL1         0.0736
      14    C6      22.893111   19.458346   21.863355 C.3        1 MOL1        -0.2882
      15    H7      22.774635   18.447075   21.452387 H          1 MOL1         0.0749
      16    H8      23.720314   19.947082   21.332357 H          1 MOL1         0.0749
      17    H9      23.173825   19.367075   22.920851 H          1 MOL1         0.0749
@<TRIPOS>BOND
    1     1     2    1
    2     1     3    2
    3     1     4    1
    4     4     5    1
    5     4     6    1
    6     4     7    1
    7     7     8    1
    8     7     9    2
    9     9    10    1
   10     9    11    1
   11    11    12    1
   12    11    13    1
   13    11    14    1
   14    14    15    1
   15    14    16    1
   16    14    17    1
@<TRIPOS>SUBSTRUCTURE
       1 MOL1            1 RESIDUE      1      MOL     
@<SCITEGIC>MOL_PROPERTY
VConf Rank
SciTegic.value.IntegerValue
36

@<SCITEGIC>MOL_PROPERTY
Conf_Id
SciTegic.value.IntegerValue
38

@<SCITEGIC>MOL_PROPERTY
Delta U+W
SciTegic.value.DoubleValue
0.000

@<SCITEGIC>MOL_PROPERTY
U+W
SciTegic.value.DoubleValue
-49.427

@<SCITEGIC>MOL_PROPERTY
Grad RMS
SciTegic.value.DoubleValue
0.000000

@<SCITEGIC>MOL_PROPERTY
U
SciTegic.value.DoubleValue
13.666

@<SCITEGIC>MOL_PROPERTY
W
SciTegic.value.DoubleValue
-63.093

@<SCITEGIC>MOL_PROPERTY
W(PB)
SciTegic.value.DoubleValue
-65.225

@<SCITEGIC>MOL_PROPERTY
W(SA)
SciTegic.value.DoubleValue
2.132

@<SCITEGIC>MOL_PROPERTY
Valence
SciTegic.value.DoubleValue
15.226

@<SCITEGIC>MOL_PROPERTY
Coulomb
SciTegic.value.DoubleValue
-1.822

@<SCITEGIC>MOL_PROPERTY
VdW
SciTegic.value.DoubleValue
0.261

@<SCITEGIC>MOL_PROPERTY
VdW6
SciTegic.value.DoubleValue
-4.165

@<SCITEGIC>MOL_PROPERTY
VdW12
SciTegic.value.DoubleValue
4.426

@<SCITEGIC>MOL_PROPERTY
Bond
SciTegic.value.DoubleValue
0.044

@<SCITEGIC>MOL_PROPERTY
Angle
SciTegic.value.DoubleValue
2.229

@<SCITEGIC>MOL_PROPERTY
Pdih
SciTegic.value.DoubleValue
12.953

@<SCITEGIC>MOL_PROPERTY
Idih
SciTegic.value.DoubleValue
0.000

@<SCITEGIC>MOL_PROPERTY
Tether
SciTegic.value.DoubleValue
0.000

@<TRIPOS>MOLECULE
guest-s20_confgen4.mol2 : confsearch ligand conformer 37
          17          16           1
SMALL
USER_CHARGES
 
@<TRIPOS>ATOM
       1    C1      21.358323   18.090290   24.752947 C.2        1 MOL1         0.6132
       2    O1      22.526106   17.823418   24.548302 O.co2      1 MOL1        -0.6749
       3    O2      20.627953   17.417262   25.453343 O.co2      1 MOL1        -0.6749
       4    C2      20.777908   19.338668   24.101582 C.3        1 MOL1        -0.1955
       5    H1      21.603088   20.027466   23.884154 H          1 MOL1         0.0733
       6    H2      20.133899   19.832369   24.838481 H          1 MOL1         0.0733
       7    C3      19.986859   19.024469   22.846089 C.2        1 MOL1        -0.1395
       8    H3      19.059232   18.475717   23.006031 H          1 MOL1         0.0816
       9    C4      20.365063   19.374169   21.612841 C.2        1 MOL1        -0.1394
      10    H4      21.294348   19.920104   21.453327 H          1 MOL1         0.0816
      11    C5      19.576961   19.056549   20.361708 C.3        1 MOL1        -0.1826
      12    H5      20.244137   18.626245   19.602597 H          1 MOL1         0.0736
      13    H6      18.809504   18.299127   20.572755 H          1 MOL1         0.0736
      14    C6      18.902965   20.321590   19.795615 C.3        1 MOL1        -0.2882
      15    H7      19.651415   21.082923   19.539445 H          1 MOL1         0.0749
      16    H8      18.333238   20.084997   18.887584 H          1 MOL1         0.0749
      17    H9      18.210528   20.755743   20.528856 H          1 MOL1         0.0749
@<TRIPOS>BOND
    1     1     2    1
    2     1     3    2
    3     1     4    1
    4     4     5    1
    5     4     6    1
    6     4     7    1
    7     7     8    1
    8     7     9    2
    9     9    10    1
   10     9    11    1
   11    11    12    1
   12    11    13    1
   13    11    14    1
   14    14    15    1
   15    14    16    1
   16    14    17    1
@<TRIPOS>SUBSTRUCTURE
       1 MOL1            1 RESIDUE      1      MOL     
@<SCITEGIC>MOL_PROPERTY
VConf Rank
SciTegic.value.IntegerValue
37

@<SCITEGIC>MOL_PROPERTY
Conf_Id
SciTegic.value.IntegerValue
35

@<SCITEGIC>MOL_PROPERTY
Delta U+W
SciTegic.value.DoubleValue
-0.102

@<SCITEGIC>MOL_PROPERTY
U+W
SciTegic.value.DoubleValue
-49.529

@<SCITEGIC>MOL_PROPERTY
Grad RMS
SciTegic.value.DoubleValue
0.000000

@<SCITEGIC>MOL_PROPERTY
U
SciTegic.value.DoubleValue
13.666

@<SCITEGIC>MOL_PROPERTY
W
SciTegic.value.DoubleValue
-63.195

@<SCITEGIC>MOL_PROPERTY
W(PB)
SciTegic.value.DoubleValue
-65.299

@<SCITEGIC>MOL_PROPERTY
W(SA)
SciTegic.value.DoubleValue
2.103

@<SCITEGIC>MOL_PROPERTY
Valence
SciTegic.value.DoubleValue
15.226

@<SCITEGIC>MOL_PROPERTY
Coulomb
SciTegic.value.DoubleValue
-1.822

@<SCITEGIC>MOL_PROPERTY
VdW
SciTegic.value.DoubleValue
0.261

@<SCITEGIC>MOL_PROPERTY
VdW6
SciTegic.value.DoubleValue
-4.165

@<SCITEGIC>MOL_PROPERTY
VdW12
SciTegic.value.DoubleValue
4.426

@<SCITEGIC>MOL_PROPERTY
Bond
SciTegic.value.DoubleValue
0.044

@<SCITEGIC>MOL_PROPERTY
Angle
SciTegic.value.DoubleValue
2.229

@<SCITEGIC>MOL_PROPERTY
Pdih
SciTegic.value.DoubleValue
12.953

@<SCITEGIC>MOL_PROPERTY
Idih
SciTegic.value.DoubleValue
0.000

@<SCITEGIC>MOL_PROPERTY
Tether
SciTegic.value.DoubleValue
0.000

@<TRIPOS>MOLECULE
guest-s20_confgen4.mol2 : confsearch ligand conformer 38
          17          16           1
SMALL
USER_CHARGES
 
@<TRIPOS>ATOM
       1    C1      18.675444   16.620945   22.617037 C.2        1 MOL1         0.6132
       2    O1      17.962695   16.413577   21.654770 O.co2      1 MOL1        -0.6749
       3    O2      19.348441   15.762212   23.152297 O.co2      1 MOL1        -0.6749
       4    C2      18.718860   18.032479   23.187458 C.3        1 MOL1        -0.1955
       5    H1      19.024447   17.968277   24.238686 H          1 MOL1         0.0733
       6    H2      17.697556   18.430320   23.174452 H          1 MOL1         0.0733
       7    C3      19.643451   18.946354   22.405557 C.2        1 MOL1        -0.1395
       8    H3      19.306807   19.177713   21.396482 H          1 MOL1         0.0816
       9    C4      20.790489   19.439633   22.888975 C.2        1 MOL1        -0.1394
      10    H4      21.097130   19.182385   23.902326 H          1 MOL1         0.0816
      11    C5      21.762849   20.353754   22.162692 C.3        1 MOL1        -0.1826
      12    H5      21.892448   21.274031   22.748183 H          1 MOL1         0.0736
      13    H6      22.751868   19.876394   22.140575 H          1 MOL1         0.0736
      14    C6      21.353140   20.728115   20.721158 C.3        1 MOL1        -0.2882
      15    H7      20.391235   21.257276   20.709752 H          1 MOL1         0.0749
      16    H8      22.104365   21.386745   20.266299 H          1 MOL1         0.0749
      17    H9      21.265639   19.832912   20.091519 H          1 MOL1         0.0749
@<TRIPOS>BOND
    1     1     2    1
    2     1     3    2
    3     1     4    1
    4     4     5    1
    5     4     6    1
    6     4     7    1
    7     7     8    1
    8     7     9    2
    9     9    10    1
   10     9    11    1
   11    11    12    1
   12    11    13    1
   13    11    14    1
   14    14    15    1
   15    14    16    1
   16    14    17    1
@<TRIPOS>SUBSTRUCTURE
       1 MOL1            1 RESIDUE      1      MOL     
@<SCITEGIC>MOL_PROPERTY
VConf Rank
SciTegic.value.IntegerValue
38

@<SCITEGIC>MOL_PROPERTY
Conf_Id
SciTegic.value.IntegerValue
19

@<SCITEGIC>MOL_PROPERTY
Delta U+W
SciTegic.value.DoubleValue
-0.496

@<SCITEGIC>MOL_PROPERTY
U+W
SciTegic.value.DoubleValue
-49.923

@<SCITEGIC>MOL_PROPERTY
Grad RMS
SciTegic.value.DoubleValue
0.000000

@<SCITEGIC>MOL_PROPERTY
U
SciTegic.value.DoubleValue
13.863

@<SCITEGIC>MOL_PROPERTY
W
SciTegic.value.DoubleValue
-63.786

@<SCITEGIC>MOL_PROPERTY
W(PB)
SciTegic.value.DoubleValue
-65.856

@<SCITEGIC>MOL_PROPERTY
W(SA)
SciTegic.value.DoubleValue
2.070

@<SCITEGIC>MOL_PROPERTY
Valence
SciTegic.value.DoubleValue
14.117

@<SCITEGIC>MOL_PROPERTY
Coulomb
SciTegic.value.DoubleValue
-1.228

@<SCITEGIC>MOL_PROPERTY
VdW
SciTegic.value.DoubleValue
0.974

@<SCITEGIC>MOL_PROPERTY
VdW6
SciTegic.value.DoubleValue
-4.885

@<SCITEGIC>MOL_PROPERTY
VdW12
SciTegic.value.DoubleValue
5.859

@<SCITEGIC>MOL_PROPERTY
Bond
SciTegic.value.DoubleValue
0.094

@<SCITEGIC>MOL_PROPERTY
Angle
SciTegic.value.DoubleValue
2.818

@<SCITEGIC>MOL_PROPERTY
Pdih
SciTegic.value.DoubleValue
11.205

@<SCITEGIC>MOL_PROPERTY
Idih
SciTegic.value.DoubleValue
0.000

@<SCITEGIC>MOL_PROPERTY
Tether
SciTegic.value.DoubleValue
0.000

@<TRIPOS>MOLECULE
guest-s20_confgen4.mol2 : confsearch ligand conformer 39
          17          16           1
SMALL
USER_CHARGES
 
@<TRIPOS>ATOM
       1    C1      20.755750   21.702986   21.071509 C.2        1 MOL1         0.6132
       2    O1      19.890989   21.820886   20.225874 O.co2      1 MOL1        -0.6749
       3    O2      21.048627   22.580187   21.860016 O.co2      1 MOL1        -0.6749
       4    C2      21.522962   20.389115   21.141922 C.3        1 MOL1        -0.1955
       5    H1      22.580624   20.627481   21.303222 H          1 MOL1         0.0733
       6    H2      21.450382   19.896522   20.164815 H          1 MOL1         0.0733
       7    C3      21.019206   19.480869   22.247401 C.2        1 MOL1        -0.1395
       8    H3      21.199988   19.837623   23.260939 H          1 MOL1         0.0816
       9    C4      20.387008   18.322119   22.038021 C.2        1 MOL1        -0.1394
      10    H4      20.201938   17.968375   21.024279 H          1 MOL1         0.0816
      11    C5      19.882891   17.419365   23.141758 C.3        1 MOL1        -0.1826
      12    H5      20.197369   16.384970   22.947715 H          1 MOL1         0.0736
      13    H6      20.324177   17.707632   24.105800 H          1 MOL1         0.0736
      14    C6      18.346481   17.478327   23.246455 C.3        1 MOL1        -0.2882
      15    H7      17.877300   17.157342   22.307166 H          1 MOL1         0.0749
      16    H8      17.986114   16.821839   24.049091 H          1 MOL1         0.0749
      17    H9      18.009770   18.500370   23.464938 H          1 MOL1         0.0749
@<TRIPOS>BOND
    1     1     2    1
    2     1     3    2
    3     1     4    1
    4     4     5    1
    5     4     6    1
    6     4     7    1
    7     7     8    1
    8     7     9    2
    9     9    10    1
   10     9    11    1
   11    11    12    1
   12    11    13    1
   13    11    14    1
   14    14    15    1
   15    14    16    1
   16    14    17    1
@<TRIPOS>SUBSTRUCTURE
       1 MOL1            1 RESIDUE      1      MOL     
@<SCITEGIC>MOL_PROPERTY
VConf Rank
SciTegic.value.IntegerValue
39

@<SCITEGIC>MOL_PROPERTY
Conf_Id
SciTegic.value.IntegerValue
7

@<SCITEGIC>MOL_PROPERTY
Delta U+W
SciTegic.value.DoubleValue
-0.041

@<SCITEGIC>MOL_PROPERTY
U+W
SciTegic.value.DoubleValue
-49.468

@<SCITEGIC>MOL_PROPERTY
Grad RMS
SciTegic.value.DoubleValue
0.000000

@<SCITEGIC>MOL_PROPERTY
U
SciTegic.value.DoubleValue
14.121

@<SCITEGIC>MOL_PROPERTY
W
SciTegic.value.DoubleValue
-63.589

@<SCITEGIC>MOL_PROPERTY
W(PB)
SciTegic.value.DoubleValue
-65.660

@<SCITEGIC>MOL_PROPERTY
W(SA)
SciTegic.value.DoubleValue
2.071

@<SCITEGIC>MOL_PROPERTY
Valence
SciTegic.value.DoubleValue
15.230

@<SCITEGIC>MOL_PROPERTY
Coulomb
SciTegic.value.DoubleValue
-1.333

@<SCITEGIC>MOL_PROPERTY
VdW
SciTegic.value.DoubleValue
0.224

@<SCITEGIC>MOL_PROPERTY
VdW6
SciTegic.value.DoubleValue
-4.212

@<SCITEGIC>MOL_PROPERTY
VdW12
SciTegic.value.DoubleValue
4.436

@<SCITEGIC>MOL_PROPERTY
Bond
SciTegic.value.DoubleValue
0.044

@<SCITEGIC>MOL_PROPERTY
Angle
SciTegic.value.DoubleValue
2.230

@<SCITEGIC>MOL_PROPERTY
Pdih
SciTegic.value.DoubleValue
12.956

@<SCITEGIC>MOL_PROPERTY
Idih
SciTegic.value.DoubleValue
0.000

@<SCITEGIC>MOL_PROPERTY
Tether
SciTegic.value.DoubleValue
0.000

@<TRIPOS>MOLECULE
guest-s20_confgen4.mol2 : confsearch ligand conformer 40
          17          16           1
SMALL
USER_CHARGES
 
@<TRIPOS>ATOM
       1    C1      21.825124   20.100882   20.249491 C.2        1 MOL1         0.6132
       2    O1      21.028587   20.549498   19.448701 O.co2      1 MOL1        -0.6749
       3    O2      22.653458   19.256220   19.971118 O.co2      1 MOL1        -0.6749
       4    C2      21.802503   20.647409   21.673701 C.3        1 MOL1        -0.1955
       5    H1      21.489621   21.696989   21.626223 H          1 MOL1         0.0733
       6    H2      22.833505   20.656805   22.046080 H          1 MOL1         0.0733
       7    C3      20.913255   19.893849   22.652610 C.2        1 MOL1        -0.1395
       8    H3      20.911890   20.300415   23.663178 H          1 MOL1         0.0816
       9    C4      20.167074   18.819248   22.370755 C.2        1 MOL1        -0.1394
      10    H4      20.149711   18.393377   21.368226 H          1 MOL1         0.0816
      11    C5      19.299618   18.104720   23.383134 C.3        1 MOL1        -0.1826
      12    H5      19.479621   17.022604   23.327080 H          1 MOL1         0.0736
      13    H6      19.562900   18.415460   24.403564 H          1 MOL1         0.0736
      14    C6      17.806163   18.390664   23.132402 C.3        1 MOL1        -0.2882
      15    H7      17.181478   17.868695   23.868864 H          1 MOL1         0.0749
      16    H8      17.597015   19.465843   23.208832 H          1 MOL1         0.0749
      17    H9      17.505884   18.054393   22.131296 H          1 MOL1         0.0749
@<TRIPOS>BOND
    1     1     2    1
    2     1     3    2
    3     1     4    1
    4     4     5    1
    5     4     6    1
    6     4     7    1
    7     7     8    1
    8     7     9    2
    9     9    10    1
   10     9    11    1
   11    11    12    1
   12    11    13    1
   13    11    14    1
   14    14    15    1
   15    14    16    1
   16    14    17    1
@<TRIPOS>SUBSTRUCTURE
       1 MOL1            1 RESIDUE      1      MOL     
@<SCITEGIC>MOL_PROPERTY
VConf Rank
SciTegic.value.IntegerValue
40

@<SCITEGIC>MOL_PROPERTY
Conf_Id
SciTegic.value.IntegerValue
39

@<SCITEGIC>MOL_PROPERTY
Delta U+W
SciTegic.value.DoubleValue
-0.422

@<SCITEGIC>MOL_PROPERTY
U+W
SciTegic.value.DoubleValue
-49.849

@<SCITEGIC>MOL_PROPERTY
Grad RMS
SciTegic.value.DoubleValue
0.000000

@<SCITEGIC>MOL_PROPERTY
U
SciTegic.value.DoubleValue
14.465

@<SCITEGIC>MOL_PROPERTY
W
SciTegic.value.DoubleValue
-64.314

@<SCITEGIC>MOL_PROPERTY
W(PB)
SciTegic.value.DoubleValue
-66.406

@<SCITEGIC>MOL_PROPERTY
W(SA)
SciTegic.value.DoubleValue
2.093

@<SCITEGIC>MOL_PROPERTY
Valence
SciTegic.value.DoubleValue
14.072

@<SCITEGIC>MOL_PROPERTY
Coulomb
SciTegic.value.DoubleValue
-0.199

@<SCITEGIC>MOL_PROPERTY
VdW
SciTegic.value.DoubleValue
0.592

@<SCITEGIC>MOL_PROPERTY
VdW6
SciTegic.value.DoubleValue
-5.019

@<SCITEGIC>MOL_PROPERTY
VdW12
SciTegic.value.DoubleValue
5.611

@<SCITEGIC>MOL_PROPERTY
Bond
SciTegic.value.DoubleValue
0.085

@<SCITEGIC>MOL_PROPERTY
Angle
SciTegic.value.DoubleValue
2.748

@<SCITEGIC>MOL_PROPERTY
Pdih
SciTegic.value.DoubleValue
11.238

@<SCITEGIC>MOL_PROPERTY
Idih
SciTegic.value.DoubleValue
0.001

@<SCITEGIC>MOL_PROPERTY
Tether
SciTegic.value.DoubleValue
0.000

@<TRIPOS>MOLECULE
guest-s20_confgen4.mol2 : confsearch ligand conformer 41
          17          16           1
SMALL
USER_CHARGES
 
@<TRIPOS>ATOM
       1    C1      21.442215   19.358338   19.236092 C.2        1 MOL1         0.6132
       2    O1      21.568697   20.455253   18.728411 O.co2      1 MOL1        -0.6749
       3    O2      21.116112   18.364854   18.616847 O.co2      1 MOL1        -0.6749
       4    C2      21.712867   19.222557   20.728712 C.3        1 MOL1        -0.1955
       5    H1      22.596278   19.826824   20.965264 H          1 MOL1         0.0733
       6    H2      21.973834   18.177865   20.936449 H          1 MOL1         0.0733
       7    C3      20.535600   19.667532   21.575344 C.2        1 MOL1        -0.1395
       8    H3      20.317030   20.734507   21.543832 H          1 MOL1         0.0816
       9    C4      19.791398   18.843527   22.319257 C.2        1 MOL1        -0.1394
      10    H4      20.008667   17.776273   22.347974 H          1 MOL1         0.0816
      11    C5      18.615518   19.288464   23.159886 C.3        1 MOL1        -0.1826
      12    H5      18.306326   20.305191   22.880801 H          1 MOL1         0.0736
      13    H6      17.754528   18.633631   22.969028 H          1 MOL1         0.0736
      14    C6      18.963570   19.255148   24.660822 C.3        1 MOL1        -0.2882
      15    H7      19.806781   19.923258   24.880427 H          1 MOL1         0.0749
      16    H8      18.106377   19.578362   25.265668 H          1 MOL1         0.0749
      17    H9      19.239914   18.240526   24.976425 H          1 MOL1         0.0749
@<TRIPOS>BOND
    1     1     2    1
    2     1     3    2
    3     1     4    1
    4     4     5    1
    5     4     6    1
    6     4     7    1
    7     7     8    1
    8     7     9    2
    9     9    10    1
   10     9    11    1
   11    11    12    1
   12    11    13    1
   13    11    14    1
   14    14    15    1
   15    14    16    1
   16    14    17    1
@<TRIPOS>SUBSTRUCTURE
       1 MOL1            1 RESIDUE      1      MOL     
@<SCITEGIC>MOL_PROPERTY
VConf Rank
SciTegic.value.IntegerValue
41

@<SCITEGIC>MOL_PROPERTY
Conf_Id
SciTegic.value.IntegerValue
38

@<SCITEGIC>MOL_PROPERTY
Delta U+W
SciTegic.value.DoubleValue
0.000

@<SCITEGIC>MOL_PROPERTY
U+W
SciTegic.value.DoubleValue
-49.427

@<SCITEGIC>MOL_PROPERTY
Grad RMS
SciTegic.value.DoubleValue
0.000000

@<SCITEGIC>MOL_PROPERTY
U
SciTegic.value.DoubleValue
13.666

@<SCITEGIC>MOL_PROPERTY
W
SciTegic.value.DoubleValue
-63.093

@<SCITEGIC>MOL_PROPERTY
W(PB)
SciTegic.value.DoubleValue
-65.225

@<SCITEGIC>MOL_PROPERTY
W(SA)
SciTegic.value.DoubleValue
2.132

@<SCITEGIC>MOL_PROPERTY
Valence
SciTegic.value.DoubleValue
15.226

@<SCITEGIC>MOL_PROPERTY
Coulomb
SciTegic.value.DoubleValue
-1.822

@<SCITEGIC>MOL_PROPERTY
VdW
SciTegic.value.DoubleValue
0.261

@<SCITEGIC>MOL_PROPERTY
VdW6
SciTegic.value.DoubleValue
-4.165

@<SCITEGIC>MOL_PROPERTY
VdW12
SciTegic.value.DoubleValue
4.426

@<SCITEGIC>MOL_PROPERTY
Bond
SciTegic.value.DoubleValue
0.044

@<SCITEGIC>MOL_PROPERTY
Angle
SciTegic.value.DoubleValue
2.229

@<SCITEGIC>MOL_PROPERTY
Pdih
SciTegic.value.DoubleValue
12.953

@<SCITEGIC>MOL_PROPERTY
Idih
SciTegic.value.DoubleValue
0.000

@<SCITEGIC>MOL_PROPERTY
Tether
SciTegic.value.DoubleValue
0.000

@<TRIPOS>MOLECULE
guest-s20_confgen4.mol2 : confsearch ligand conformer 42
          17          16           1
SMALL
USER_CHARGES
 
@<TRIPOS>ATOM
       1    C1      16.961216   19.086258   21.636437 C.2        1 MOL1         0.6132
       2    O1      16.392756   19.177996   22.706604 O.co2      1 MOL1        -0.6749
       3    O2      16.588554   18.357835   20.737836 O.co2      1 MOL1        -0.6749
       4    C2      18.205476   19.933424   21.404639 C.3        1 MOL1        -0.1955
       5    H1      18.162112   20.798116   22.077741 H          1 MOL1         0.0733
       6    H2      18.160314   20.321715   20.380580 H          1 MOL1         0.0733
       7    C3      19.488051   19.149683   21.608344 C.2        1 MOL1        -0.1395
       8    H3      19.679302   18.370887   20.870712 H          1 MOL1         0.0816
       9    C4      20.348463   19.363995   22.608339 C.2        1 MOL1        -0.1394
      10    H4      20.155013   20.140796   23.347405 H          1 MOL1         0.0816
      11    C5      21.624919   18.578856   22.812149 C.3        1 MOL1        -0.1826
      12    H5      21.696397   18.252663   23.858582 H          1 MOL1         0.0736
      13    H6      21.618209   17.668000   22.197727 H          1 MOL1         0.0736
      14    C6      22.860335   19.427265   22.452967 C.3        1 MOL1        -0.2882
      15    H7      22.913274   20.327100   23.079802 H          1 MOL1         0.0749
      16    H8      23.783430   18.852533   22.603516 H          1 MOL1         0.0749
      17    H9      22.823703   19.743983   21.402278 H          1 MOL1         0.0749
@<TRIPOS>BOND
    1     1     2    1
    2     1     3    2
    3     1     4    1
    4     4     5    1
    5     4     6    1
    6     4     7    1
    7     7     8    1
    8     7     9    2
    9     9    10    1
   10     9    11    1
   11    11    12    1
   12    11    13    1
   13    11    14    1
   14    14    15    1
   15    14    16    1
   16    14    17    1
@<TRIPOS>SUBSTRUCTURE
       1 MOL1            1 RESIDUE      1      MOL     
@<SCITEGIC>MOL_PROPERTY
VConf Rank
SciTegic.value.IntegerValue
42

@<SCITEGIC>MOL_PROPERTY
Conf_Id
SciTegic.value.IntegerValue
35

@<SCITEGIC>MOL_PROPERTY
Delta U+W
SciTegic.value.DoubleValue
-0.102

@<SCITEGIC>MOL_PROPERTY
U+W
SciTegic.value.DoubleValue
-49.529

@<SCITEGIC>MOL_PROPERTY
Grad RMS
SciTegic.value.DoubleValue
0.000000

@<SCITEGIC>MOL_PROPERTY
U
SciTegic.value.DoubleValue
13.666

@<SCITEGIC>MOL_PROPERTY
W
SciTegic.value.DoubleValue
-63.195

@<SCITEGIC>MOL_PROPERTY
W(PB)
SciTegic.value.DoubleValue
-65.299

@<SCITEGIC>MOL_PROPERTY
W(SA)
SciTegic.value.DoubleValue
2.103

@<SCITEGIC>MOL_PROPERTY
Valence
SciTegic.value.DoubleValue
15.226

@<SCITEGIC>MOL_PROPERTY
Coulomb
SciTegic.value.DoubleValue
-1.822

@<SCITEGIC>MOL_PROPERTY
VdW
SciTegic.value.DoubleValue
0.261

@<SCITEGIC>MOL_PROPERTY
VdW6
SciTegic.value.DoubleValue
-4.165

@<SCITEGIC>MOL_PROPERTY
VdW12
SciTegic.value.DoubleValue
4.426

@<SCITEGIC>MOL_PROPERTY
Bond
SciTegic.value.DoubleValue
0.044

@<SCITEGIC>MOL_PROPERTY
Angle
SciTegic.value.DoubleValue
2.229

@<SCITEGIC>MOL_PROPERTY
Pdih
SciTegic.value.DoubleValue
12.953

@<SCITEGIC>MOL_PROPERTY
Idih
SciTegic.value.DoubleValue
0.000

@<SCITEGIC>MOL_PROPERTY
Tether
SciTegic.value.DoubleValue
0.000

@<TRIPOS>MOLECULE
guest-s20_confgen4.mol2 : confsearch ligand conformer 43
          17          16           1
SMALL
USER_CHARGES
 
@<TRIPOS>ATOM
       1    C1      18.802017   20.821577   20.274617 C.2        1 MOL1         0.6132
       2    O1      19.280927   20.683027   19.166276 O.co2      1 MOL1        -0.6749
       3    O2      17.606623   20.839219   20.492725 O.co2      1 MOL1        -0.6749
       4    C2      19.753438   20.991672   21.451715 C.3        1 MOL1        -0.1955
       5    H1      19.218343   21.516770   22.252048 H          1 MOL1         0.0733
       6    H2      20.570905   21.646933   21.129393 H          1 MOL1         0.0733
       7    C3      20.309845   19.669066   21.944188 C.2        1 MOL1        -0.1395
       8    H3      20.983031   19.171945   21.247926 H          1 MOL1         0.0816
       9    C4      20.010741   19.128659   23.132131 C.2        1 MOL1        -0.1394
      10    H4      19.329336   19.653495   23.800950 H          1 MOL1         0.0816
      11    C5      20.526724   17.811061   23.685562 C.3        1 MOL1        -0.1826
      12    H5      21.030245   17.999214   24.643462 H          1 MOL1         0.0736
      13    H6      19.670868   17.165164   23.923993 H          1 MOL1         0.0736
      14    C6      21.490278   17.044618   22.752741 C.3        1 MOL1        -0.2882
      15    H7      22.386296   17.640882   22.535893 H          1 MOL1         0.0749
      16    H8      21.815949   16.107222   23.222055 H          1 MOL1         0.0749
      17    H9      21.001298   16.792596   21.802544 H          1 MOL1         0.0749
@<TRIPOS>BOND
    1     1     2    1
    2     1     3    2
    3     1     4    1
    4     4     5    1
    5     4     6    1
    6     4     7    1
    7     7     8    1
    8     7     9    2
    9     9    10    1
   10     9    11    1
   11    11    12    1
   12    11    13    1
   13    11    14    1
   14    14    15    1
   15    14    16    1
   16    14    17    1
@<TRIPOS>SUBSTRUCTURE
       1 MOL1            1 RESIDUE      1      MOL     
@<SCITEGIC>MOL_PROPERTY
VConf Rank
SciTegic.value.IntegerValue
43

@<SCITEGIC>MOL_PROPERTY
Conf_Id
SciTegic.value.IntegerValue
19

@<SCITEGIC>MOL_PROPERTY
Delta U+W
SciTegic.value.DoubleValue
-0.496

@<SCITEGIC>MOL_PROPERTY
U+W
SciTegic.value.DoubleValue
-49.923

@<SCITEGIC>MOL_PROPERTY
Grad RMS
SciTegic.value.DoubleValue
0.000000

@<SCITEGIC>MOL_PROPERTY
U
SciTegic.value.DoubleValue
13.863

@<SCITEGIC>MOL_PROPERTY
W
SciTegic.value.DoubleValue
-63.786

@<SCITEGIC>MOL_PROPERTY
W(PB)
SciTegic.value.DoubleValue
-65.856

@<SCITEGIC>MOL_PROPERTY
W(SA)
SciTegic.value.DoubleValue
2.070

@<SCITEGIC>MOL_PROPERTY
Valence
SciTegic.value.DoubleValue
14.117

@<SCITEGIC>MOL_PROPERTY
Coulomb
SciTegic.value.DoubleValue
-1.228

@<SCITEGIC>MOL_PROPERTY
VdW
SciTegic.value.DoubleValue
0.974

@<SCITEGIC>MOL_PROPERTY
VdW6
SciTegic.value.DoubleValue
-4.885

@<SCITEGIC>MOL_PROPERTY
VdW12
SciTegic.value.DoubleValue
5.859

@<SCITEGIC>MOL_PROPERTY
Bond
SciTegic.value.DoubleValue
0.094

@<SCITEGIC>MOL_PROPERTY
Angle
SciTegic.value.DoubleValue
2.818

@<SCITEGIC>MOL_PROPERTY
Pdih
SciTegic.value.DoubleValue
11.205

@<SCITEGIC>MOL_PROPERTY
Idih
SciTegic.value.DoubleValue
0.000

@<SCITEGIC>MOL_PROPERTY
Tether
SciTegic.value.DoubleValue
0.000

@<TRIPOS>MOLECULE
guest-s20_confgen4.mol2 : confsearch ligand conformer 44
          17          16           1
SMALL
USER_CHARGES
 
@<TRIPOS>ATOM
       1    C1      18.290069   16.900322   22.881106 C.2        1 MOL1         0.6132
       2    O1      17.776091   17.309679   23.903390 O.co2      1 MOL1        -0.6749
       3    O2      17.661188   16.422459   21.957440 O.co2      1 MOL1        -0.6749
       4    C2      19.805666   16.979576   22.752604 C.3        1 MOL1        -0.1955
       5    H1      20.152669   16.042744   22.301583 H          1 MOL1         0.0733
       6    H2      20.233540   17.028008   23.761183 H          1 MOL1         0.0733
       7    C3      20.256505   18.160016   21.913516 C.2        1 MOL1        -0.1395
       8    H3      19.999106   18.104311   20.856228 H          1 MOL1         0.0816
       9    C4      20.917002   19.216589   22.396852 C.2        1 MOL1        -0.1394
      10    H4      21.169598   19.274152   23.455125 H          1 MOL1         0.0816
      11    C5      21.363077   20.393999   21.558962 C.3        1 MOL1        -0.1826
      12    H5      22.416038   20.623101   21.771817 H          1 MOL1         0.0736
      13    H6      21.303472   20.149265   20.489495 H          1 MOL1         0.0736
      14    C6      20.498457   21.636897   21.846416 C.3        1 MOL1        -0.2882
      15    H7      20.569910   21.927952   22.902639 H          1 MOL1         0.0749
      16    H8      20.826128   22.488066   21.235507 H          1 MOL1         0.0749
      17    H9      19.443061   21.438873   21.617057 H          1 MOL1         0.0749
@<TRIPOS>BOND
    1     1     2    1
    2     1     3    2
    3     1     4    1
    4     4     5    1
    5     4     6    1
    6     4     7    1
    7     7     8    1
    8     7     9    2
    9     9    10    1
   10     9    11    1
   11    11    12    1
   12    11    13    1
   13    11    14    1
   14    14    15    1
   15    14    16    1
   16    14    17    1
@<TRIPOS>SUBSTRUCTURE
       1 MOL1            1 RESIDUE      1      MOL     
@<SCITEGIC>MOL_PROPERTY
VConf Rank
SciTegic.value.IntegerValue
44

@<SCITEGIC>MOL_PROPERTY
Conf_Id
SciTegic.value.IntegerValue
7

@<SCITEGIC>MOL_PROPERTY
Delta U+W
SciTegic.value.DoubleValue
-0.041

@<SCITEGIC>MOL_PROPERTY
U+W
SciTegic.value.DoubleValue
-49.468

@<SCITEGIC>MOL_PROPERTY
Grad RMS
SciTegic.value.DoubleValue
0.000000

@<SCITEGIC>MOL_PROPERTY
U
SciTegic.value.DoubleValue
14.121

@<SCITEGIC>MOL_PROPERTY
W
SciTegic.value.DoubleValue
-63.589

@<SCITEGIC>MOL_PROPERTY
W(PB)
SciTegic.value.DoubleValue
-65.660

@<SCITEGIC>MOL_PROPERTY
W(SA)
SciTegic.value.DoubleValue
2.071

@<SCITEGIC>MOL_PROPERTY
Valence
SciTegic.value.DoubleValue
15.230

@<SCITEGIC>MOL_PROPERTY
Coulomb
SciTegic.value.DoubleValue
-1.333

@<SCITEGIC>MOL_PROPERTY
VdW
SciTegic.value.DoubleValue
0.224

@<SCITEGIC>MOL_PROPERTY
VdW6
SciTegic.value.DoubleValue
-4.212

@<SCITEGIC>MOL_PROPERTY
VdW12
SciTegic.value.DoubleValue
4.436

@<SCITEGIC>MOL_PROPERTY
Bond
SciTegic.value.DoubleValue
0.044

@<SCITEGIC>MOL_PROPERTY
Angle
SciTegic.value.DoubleValue
2.230

@<SCITEGIC>MOL_PROPERTY
Pdih
SciTegic.value.DoubleValue
12.956

@<SCITEGIC>MOL_PROPERTY
Idih
SciTegic.value.DoubleValue
0.000

@<SCITEGIC>MOL_PROPERTY
Tether
SciTegic.value.DoubleValue
0.000

@<TRIPOS>MOLECULE
guest-s20_confgen4.mol2 : confsearch ligand conformer 45
          17          16           1
SMALL
USER_CHARGES
 
@<TRIPOS>ATOM
       1    C1      20.562031   20.773803   19.988709 C.2        1 MOL1         0.6132
       2    O1      19.627429   20.418483   19.297869 O.co2      1 MOL1        -0.6749
       3    O2      21.720659   20.730796   19.624275 O.co2      1 MOL1        -0.6749
       4    C2      20.262735   21.329744   21.377568 C.3        1 MOL1        -0.1955
       5    H1      19.290752   21.834949   21.335309 H          1 MOL1         0.0733
       6    H2      21.000004   22.112152   21.592024 H          1 MOL1         0.0733
       7    C3      20.258499   20.309246   22.506923 C.2        1 MOL1        -0.1395
       8    H3      20.042894   20.727151   23.489479 H          1 MOL1         0.0816
       9    C4      20.488161   18.996745   22.382050 C.2        1 MOL1        -0.1394
      10    H4      20.705185   18.553268   21.410988 H          1 MOL1         0.0816
      11    C5      20.473649   18.023292   23.539686 C.3        1 MOL1        -0.1826
      12    H5      21.368835   17.387966   23.500675 H          1 MOL1         0.0736
      13    H6      20.511125   18.562048   24.496499 H          1 MOL1         0.0736
      14    C6      19.213097   17.137487   23.502346 C.3        1 MOL1        -0.2882
      15    H7      19.208511   16.432294   24.343620 H          1 MOL1         0.0749
      16    H8      18.304178   17.750183   23.566096 H          1 MOL1         0.0749
      17    H9      19.169663   16.557466   22.571139 H          1 MOL1         0.0749
@<TRIPOS>BOND
    1     1     2    1
    2     1     3    2
    3     1     4    1
    4     4     5    1
    5     4     6    1
    6     4     7    1
    7     7     8    1
    8     7     9    2
    9     9    10    1
   10     9    11    1
   11    11    12    1
   12    11    13    1
   13    11    14    1
   14    14    15    1
   15    14    16    1
   16    14    17    1
@<TRIPOS>SUBSTRUCTURE
       1 MOL1            1 RESIDUE      1      MOL     
@<SCITEGIC>MOL_PROPERTY
VConf Rank
SciTegic.value.IntegerValue
45

@<SCITEGIC>MOL_PROPERTY
Conf_Id
SciTegic.value.IntegerValue
39

@<SCITEGIC>MOL_PROPERTY
Delta U+W
SciTegic.value.DoubleValue
-0.422

@<SCITEGIC>MOL_PROPERTY
U+W
SciTegic.value.DoubleValue
-49.849

@<SCITEGIC>MOL_PROPERTY
Grad RMS
SciTegic.value.DoubleValue
0.000000

@<SCITEGIC>MOL_PROPERTY
U
SciTegic.value.DoubleValue
14.465

@<SCITEGIC>MOL_PROPERTY
W
SciTegic.value.DoubleValue
-64.314

@<SCITEGIC>MOL_PROPERTY
W(PB)
SciTegic.value.DoubleValue
-66.406

@<SCITEGIC>MOL_PROPERTY
W(SA)
SciTegic.value.DoubleValue
2.093

@<SCITEGIC>MOL_PROPERTY
Valence
SciTegic.value.DoubleValue
14.072

@<SCITEGIC>MOL_PROPERTY
Coulomb
SciTegic.value.DoubleValue
-0.199

@<SCITEGIC>MOL_PROPERTY
VdW
SciTegic.value.DoubleValue
0.592

@<SCITEGIC>MOL_PROPERTY
VdW6
SciTegic.value.DoubleValue
-5.019

@<SCITEGIC>MOL_PROPERTY
VdW12
SciTegic.value.DoubleValue
5.611

@<SCITEGIC>MOL_PROPERTY
Bond
SciTegic.value.DoubleValue
0.085

@<SCITEGIC>MOL_PROPERTY
Angle
SciTegic.value.DoubleValue
2.748

@<SCITEGIC>MOL_PROPERTY
Pdih
SciTegic.value.DoubleValue
11.238

@<SCITEGIC>MOL_PROPERTY
Idih
SciTegic.value.DoubleValue
0.001

@<SCITEGIC>MOL_PROPERTY
Tether
SciTegic.value.DoubleValue
0.000

@<TRIPOS>MOLECULE
guest-s20_confgen4.mol2 : confsearch ligand conformer 46
          17          16           1
SMALL
USER_CHARGES
 
@<TRIPOS>ATOM
       1    C1      20.312688   16.116503   22.194369 C.2        1 MOL1         0.6132
       2    O1      20.220719   15.597223   23.289290 O.co2      1 MOL1        -0.6749
       3    O2      21.089267   15.743957   21.337075 O.co2      1 MOL1        -0.6749
       4    C2      19.400317   17.294697   21.879661 C.3        1 MOL1        -0.1955
       5    H1      18.408063   17.067969   22.286522 H          1 MOL1         0.0733
       6    H2      19.292310   17.363659   20.790525 H          1 MOL1         0.0733
       7    C3      19.915036   18.598780   22.458607 C.2        1 MOL1        -0.1395
       8    H3      19.898539   18.663404   23.546151 H          1 MOL1         0.0816
       9    C4      20.367738   19.619677   21.724401 C.2        1 MOL1        -0.1394
      10    H4      20.386733   19.553237   20.637072 H          1 MOL1         0.0816
      11    C5      20.884127   20.917834   22.303583 C.3        1 MOL1        -0.1826
      12    H5      21.073010   20.810014   23.380579 H          1 MOL1         0.0736
      13    H6      21.845857   21.174386   21.839048 H          1 MOL1         0.0736
      14    C6      19.880567   22.064681   22.074085 C.3        1 MOL1        -0.2882
      15    H7      18.917691   21.841720   22.552373 H          1 MOL1         0.0749
      16    H8      20.261013   23.004059   22.495887 H          1 MOL1         0.0749
      17    H9      19.702037   22.220309   21.002014 H          1 MOL1         0.0749
@<TRIPOS>BOND
    1     1     2    1
    2     1     3    2
    3     1     4    1
    4     4     5    1
    5     4     6    1
    6     4     7    1
    7     7     8    1
    8     7     9    2
    9     9    10    1
   10     9    11    1
   11    11    12    1
   12    11    13    1
   13    11    14    1
   14    14    15    1
   15    14    16    1
   16    14    17    1
@<TRIPOS>SUBSTRUCTURE
       1 MOL1            1 RESIDUE      1      MOL     
@<SCITEGIC>MOL_PROPERTY
VConf Rank
SciTegic.value.IntegerValue
46

@<SCITEGIC>MOL_PROPERTY
Conf_Id
SciTegic.value.IntegerValue
38

@<SCITEGIC>MOL_PROPERTY
Delta U+W
SciTegic.value.DoubleValue
0.000

@<SCITEGIC>MOL_PROPERTY
U+W
SciTegic.value.DoubleValue
-49.427

@<SCITEGIC>MOL_PROPERTY
Grad RMS
SciTegic.value.DoubleValue
0.000000

@<SCITEGIC>MOL_PROPERTY
U
SciTegic.value.DoubleValue
13.666

@<SCITEGIC>MOL_PROPERTY
W
SciTegic.value.DoubleValue
-63.093

@<SCITEGIC>MOL_PROPERTY
W(PB)
SciTegic.value.DoubleValue
-65.225

@<SCITEGIC>MOL_PROPERTY
W(SA)
SciTegic.value.DoubleValue
2.132

@<SCITEGIC>MOL_PROPERTY
Valence
SciTegic.value.DoubleValue
15.226

@<SCITEGIC>MOL_PROPERTY
Coulomb
SciTegic.value.DoubleValue
-1.822

@<SCITEGIC>MOL_PROPERTY
VdW
SciTegic.value.DoubleValue
0.261

@<SCITEGIC>MOL_PROPERTY
VdW6
SciTegic.value.DoubleValue
-4.165

@<SCITEGIC>MOL_PROPERTY
VdW12
SciTegic.value.DoubleValue
4.426

@<SCITEGIC>MOL_PROPERTY
Bond
SciTegic.value.DoubleValue
0.044

@<SCITEGIC>MOL_PROPERTY
Angle
SciTegic.value.DoubleValue
2.229

@<SCITEGIC>MOL_PROPERTY
Pdih
SciTegic.value.DoubleValue
12.953

@<SCITEGIC>MOL_PROPERTY
Idih
SciTegic.value.DoubleValue
0.000

@<SCITEGIC>MOL_PROPERTY
Tether
SciTegic.value.DoubleValue
0.000

@<TRIPOS>MOLECULE
guest-s20_confgen4.mol2 : confsearch ligand conformer 47
          17          16           1
SMALL
USER_CHARGES
 
@<TRIPOS>ATOM
       1    C1      20.122055   21.607708   19.974374 C.2        1 MOL1         0.6132
       2    O1      21.090269   21.473068   19.252397 O.co2      1 MOL1        -0.6749
       3    O2      19.706455   22.687307   20.346804 O.co2      1 MOL1        -0.6749
       4    C2      19.384590   20.357007   20.434262 C.3        1 MOL1        -0.1955
       5    H1      19.587855   19.554766   19.714725 H          1 MOL1         0.0733
       6    H2      18.309528   20.565540   20.386688 H          1 MOL1         0.0733
       7    C3      19.772100   19.937910   21.839586 C.2        1 MOL1        -0.1395
       8    H3      19.455343   20.616305   22.631196 H          1 MOL1         0.0816
       9    C4      20.454927   18.826457   22.130532 C.2        1 MOL1        -0.1394
      10    H4      20.774118   18.150163   21.338191 H          1 MOL1         0.0816
      11    C5      20.843886   18.412180   23.532105 C.3        1 MOL1        -0.1826
      12    H5      21.907203   18.137728   23.555887 H          1 MOL1         0.0736
      13    H6      20.719328   19.251892   24.229664 H          1 MOL1         0.0736
      14    C6      19.994582   17.219458   24.012892 C.3        1 MOL1        -0.2882
      15    H7      20.129702   16.351567   23.354154 H          1 MOL1         0.0749
      16    H8      20.281825   16.922969   25.030080 H          1 MOL1         0.0749
      17    H9      18.927759   17.479080   24.022123 H          1 MOL1         0.0749
@<TRIPOS>BOND
    1     1     2    1
    2     1     3    2
    3     1     4    1
    4     4     5    1
    5     4     6    1
    6     4     7    1
    7     7     8    1
    8     7     9    2
    9     9    10    1
   10     9    11    1
   11    11    12    1
   12    11    13    1
   13    11    14    1
   14    14    15    1
   15    14    16    1
   16    14    17    1
@<TRIPOS>SUBSTRUCTURE
       1 MOL1            1 RESIDUE      1      MOL     
@<SCITEGIC>MOL_PROPERTY
VConf Rank
SciTegic.value.IntegerValue
47

@<SCITEGIC>MOL_PROPERTY
Conf_Id
SciTegic.value.IntegerValue
35

@<SCITEGIC>MOL_PROPERTY
Delta U+W
SciTegic.value.DoubleValue
-0.102

@<SCITEGIC>MOL_PROPERTY
U+W
SciTegic.value.DoubleValue
-49.529

@<SCITEGIC>MOL_PROPERTY
Grad RMS
SciTegic.value.DoubleValue
0.000000

@<SCITEGIC>MOL_PROPERTY
U
SciTegic.value.DoubleValue
13.666

@<SCITEGIC>MOL_PROPERTY
W
SciTegic.value.DoubleValue
-63.195

@<SCITEGIC>MOL_PROPERTY
W(PB)
SciTegic.value.DoubleValue
-65.299

@<SCITEGIC>MOL_PROPERTY
W(SA)
SciTegic.value.DoubleValue
2.103

@<SCITEGIC>MOL_PROPERTY
Valence
SciTegic.value.DoubleValue
15.226

@<SCITEGIC>MOL_PROPERTY
Coulomb
SciTegic.value.DoubleValue
-1.822

@<SCITEGIC>MOL_PROPERTY
VdW
SciTegic.value.DoubleValue
0.261

@<SCITEGIC>MOL_PROPERTY
VdW6
SciTegic.value.DoubleValue
-4.165

@<SCITEGIC>MOL_PROPERTY
VdW12
SciTegic.value.DoubleValue
4.426

@<SCITEGIC>MOL_PROPERTY
Bond
SciTegic.value.DoubleValue
0.044

@<SCITEGIC>MOL_PROPERTY
Angle
SciTegic.value.DoubleValue
2.229

@<SCITEGIC>MOL_PROPERTY
Pdih
SciTegic.value.DoubleValue
12.953

@<SCITEGIC>MOL_PROPERTY
Idih
SciTegic.value.DoubleValue
0.000

@<SCITEGIC>MOL_PROPERTY
Tether
SciTegic.value.DoubleValue
0.000

@<TRIPOS>MOLECULE
guest-s20_confgen4.mol2 : confsearch ligand conformer 48
          17          16           1
SMALL
USER_CHARGES
 
@<TRIPOS>ATOM
       1    C1      22.679315   20.678540   22.623477 C.2        1 MOL1         0.6132
       2    O1      22.990519   20.653758   23.798002 O.co2      1 MOL1        -0.6749
       3    O2      23.470472   20.517777   21.715141 O.co2      1 MOL1        -0.6749
       4    C2      21.219464   20.934565   22.272789 C.3        1 MOL1        -0.1955
       5    H1      21.177842   21.346037   21.257139 H          1 MOL1         0.0733
       6    H2      20.844100   21.711476   22.948822 H          1 MOL1         0.0733
       7    C3      20.366509   19.685568   22.390606 C.2        1 MOL1        -0.1395
       8    H3      20.238350   19.317181   23.406950 H          1 MOL1         0.0816
       9    C4      19.807922   19.061109   21.346219 C.2        1 MOL1        -0.1394
      10    H4      19.962012   19.456842   20.342857 H          1 MOL1         0.0816
      11    C5      18.948539   17.808895   21.391073 C.3        1 MOL1        -0.1826
      12    H5      17.974577   18.028049   20.932953 H          1 MOL1         0.0736
      13    H6      19.406994   17.039160   20.755583 H          1 MOL1         0.0736
      14    C6      18.720461   17.224760   22.802737 C.3        1 MOL1        -0.2882
      15    H7      18.213114   17.950234   23.452112 H          1 MOL1         0.0749
      16    H8      18.093817   16.324984   22.750288 H          1 MOL1         0.0749
      17    H9      19.672856   16.944187   23.271471 H          1 MOL1         0.0749
@<TRIPOS>BOND
    1     1     2    1
    2     1     3    2
    3     1     4    1
    4     4     5    1
    5     4     6    1
    6     4     7    1
    7     7     8    1
    8     7     9    2
    9     9    10    1
   10     9    11    1
   11    11    12    1
   12    11    13    1
   13    11    14    1
   14    14    15    1
   15    14    16    1
   16    14    17    1
@<TRIPOS>SUBSTRUCTURE
       1 MOL1            1 RESIDUE      1      MOL     
@<SCITEGIC>MOL_PROPERTY
VConf Rank
SciTegic.value.IntegerValue
48

@<SCITEGIC>MOL_PROPERTY
Conf_Id
SciTegic.value.IntegerValue
19

@<SCITEGIC>MOL_PROPERTY
Delta U+W
SciTegic.value.DoubleValue
-0.496

@<SCITEGIC>MOL_PROPERTY
U+W
SciTegic.value.DoubleValue
-49.923

@<SCITEGIC>MOL_PROPERTY
Grad RMS
SciTegic.value.DoubleValue
0.000000

@<SCITEGIC>MOL_PROPERTY
U
SciTegic.value.DoubleValue
13.863

@<SCITEGIC>MOL_PROPERTY
W
SciTegic.value.DoubleValue
-63.786

@<SCITEGIC>MOL_PROPERTY
W(PB)
SciTegic.value.DoubleValue
-65.856

@<SCITEGIC>MOL_PROPERTY
W(SA)
SciTegic.value.DoubleValue
2.070

@<SCITEGIC>MOL_PROPERTY
Valence
SciTegic.value.DoubleValue
14.117

@<SCITEGIC>MOL_PROPERTY
Coulomb
SciTegic.value.DoubleValue
-1.228

@<SCITEGIC>MOL_PROPERTY
VdW
SciTegic.value.DoubleValue
0.974

@<SCITEGIC>MOL_PROPERTY
VdW6
SciTegic.value.DoubleValue
-4.885

@<SCITEGIC>MOL_PROPERTY
VdW12
SciTegic.value.DoubleValue
5.859

@<SCITEGIC>MOL_PROPERTY
Bond
SciTegic.value.DoubleValue
0.094

@<SCITEGIC>MOL_PROPERTY
Angle
SciTegic.value.DoubleValue
2.818

@<SCITEGIC>MOL_PROPERTY
Pdih
SciTegic.value.DoubleValue
11.205

@<SCITEGIC>MOL_PROPERTY
Idih
SciTegic.value.DoubleValue
0.000

@<SCITEGIC>MOL_PROPERTY
Tether
SciTegic.value.DoubleValue
0.000

@<TRIPOS>MOLECULE
guest-s20_confgen4.mol2 : confsearch ligand conformer 49
          17          16           1
SMALL
USER_CHARGES
 
@<TRIPOS>ATOM
       1    C1      22.883834   20.054674   21.756200 C.2        1 MOL1         0.6132
       2    O1      22.962217   20.046629   20.543516 O.co2      1 MOL1        -0.6749
       3    O2      23.243740   20.987789   22.446683 O.co2      1 MOL1        -0.6749
       4    C2      22.313787   18.825240   22.451446 C.3        1 MOL1        -0.1955
       5    H1      22.929432   18.625527   23.336083 H          1 MOL1         0.0733
       6    H2      22.429455   17.966392   21.779393 H          1 MOL1         0.0733
       7    C3      20.863397   19.007191   22.856447 C.2        1 MOL1        -0.1395
       8    H3      20.688468   19.742505   23.641258 H          1 MOL1         0.0816
       9    C4      19.841743   18.340433   22.310668 C.2        1 MOL1        -0.1394
      10    H4      20.016729   17.609009   21.522341 H          1 MOL1         0.0816
      11    C5      18.395899   18.525490   22.713936 C.3        1 MOL1        -0.1826
      12    H5      17.928619   17.545347   22.879745 H          1 MOL1         0.0736
      13    H6      18.328967   19.071763   23.664890 H          1 MOL1         0.0736
      14    C6      17.612770   19.291371   21.629904 C.3        1 MOL1        -0.2882
      15    H7      17.630223   18.747558   20.676285 H          1 MOL1         0.0749
      16    H8      16.564474   19.423241   21.927820 H          1 MOL1         0.0749
      17    H9      18.047822   20.285850   21.464306 H          1 MOL1         0.0749
@<TRIPOS>BOND
    1     1     2    1
    2     1     3    2
    3     1     4    1
    4     4     5    1
    5     4     6    1
    6     4     7    1
    7     7     8    1
    8     7     9    2
    9     9    10    1
   10     9    11    1
   11    11    12    1
   12    11    13    1
   13    11    14    1
   14    14    15    1
   15    14    16    1
   16    14    17    1
@<TRIPOS>SUBSTRUCTURE
       1 MOL1            1 RESIDUE      1      MOL     
@<SCITEGIC>MOL_PROPERTY
VConf Rank
SciTegic.value.IntegerValue
49

@<SCITEGIC>MOL_PROPERTY
Conf_Id
SciTegic.value.IntegerValue
7

@<SCITEGIC>MOL_PROPERTY
Delta U+W
SciTegic.value.DoubleValue
-0.041

@<SCITEGIC>MOL_PROPERTY
U+W
SciTegic.value.DoubleValue
-49.468

@<SCITEGIC>MOL_PROPERTY
Grad RMS
SciTegic.value.DoubleValue
0.000000

@<SCITEGIC>MOL_PROPERTY
U
SciTegic.value.DoubleValue
14.121

@<SCITEGIC>MOL_PROPERTY
W
SciTegic.value.DoubleValue
-63.589

@<SCITEGIC>MOL_PROPERTY
W(PB)
SciTegic.value.DoubleValue
-65.660

@<SCITEGIC>MOL_PROPERTY
W(SA)
SciTegic.value.DoubleValue
2.071

@<SCITEGIC>MOL_PROPERTY
Valence
SciTegic.value.DoubleValue
15.230

@<SCITEGIC>MOL_PROPERTY
Coulomb
SciTegic.value.DoubleValue
-1.333

@<SCITEGIC>MOL_PROPERTY
VdW
SciTegic.value.DoubleValue
0.224

@<SCITEGIC>MOL_PROPERTY
VdW6
SciTegic.value.DoubleValue
-4.212

@<SCITEGIC>MOL_PROPERTY
VdW12
SciTegic.value.DoubleValue
4.436

@<SCITEGIC>MOL_PROPERTY
Bond
SciTegic.value.DoubleValue
0.044

@<SCITEGIC>MOL_PROPERTY
Angle
SciTegic.value.DoubleValue
2.230

@<SCITEGIC>MOL_PROPERTY
Pdih
SciTegic.value.DoubleValue
12.956

@<SCITEGIC>MOL_PROPERTY
Idih
SciTegic.value.DoubleValue
0.000

@<SCITEGIC>MOL_PROPERTY
Tether
SciTegic.value.DoubleValue
0.000

@<TRIPOS>MOLECULE
guest-s20_confgen4.mol2 : confsearch ligand conformer 50
          17          16           1
SMALL
USER_CHARGES
 
@<TRIPOS>ATOM
       1    C1      19.390008   19.272225   19.605468 C.2        1 MOL1         0.6132
       2    O1      19.513244   20.449917   19.331886 O.co2      1 MOL1        -0.6749
       3    O2      18.368791   18.641815   19.413680 O.co2      1 MOL1        -0.6749
       4    C2      20.590574   18.538754   20.195585 C.3        1 MOL1        -0.1955
       5    H1      21.498557   18.990851   19.779719 H          1 MOL1         0.0733
       6    H2      20.569891   17.507642   19.823968 H          1 MOL1         0.0733
       7    C3      20.674281   18.531821   21.715395 C.2        1 MOL1        -0.1395
       8    H3      21.538449   18.002984   22.115507 H          1 MOL1         0.0816
       9    C4      19.802706   19.104795   22.553878 C.2        1 MOL1        -0.1394
      10    H4      18.930888   19.640357   22.179926 H          1 MOL1         0.0816
      11    C5      19.931376   19.067471   24.060527 C.3        1 MOL1        -0.1826
      12    H5      18.971181   18.775871   24.507197 H          1 MOL1         0.0736
      13    H6      20.664412   18.308128   24.365829 H          1 MOL1         0.0736
      14    C6      20.359281   20.440733   24.613777 C.3        1 MOL1        -0.2882
      15    H7      20.449710   20.408210   25.707315 H          1 MOL1         0.0749
      16    H8      21.330732   20.742046   24.200149 H          1 MOL1         0.0749
      17    H9      19.623326   21.213452   24.355450 H          1 MOL1         0.0749
@<TRIPOS>BOND
    1     1     2    1
    2     1     3    2
    3     1     4    1
    4     4     5    1
    5     4     6    1
    6     4     7    1
    7     7     8    1
    8     7     9    2
    9     9    10    1
   10     9    11    1
   11    11    12    1
   12    11    13    1
   13    11    14    1
   14    14    15    1
   15    14    16    1
   16    14    17    1
@<TRIPOS>SUBSTRUCTURE
       1 MOL1            1 RESIDUE      1      MOL     
@<SCITEGIC>MOL_PROPERTY
VConf Rank
SciTegic.value.IntegerValue
50

@<SCITEGIC>MOL_PROPERTY
Conf_Id
SciTegic.value.IntegerValue
39

@<SCITEGIC>MOL_PROPERTY
Delta U+W
SciTegic.value.DoubleValue
-0.422

@<SCITEGIC>MOL_PROPERTY
U+W
SciTegic.value.DoubleValue
-49.849

@<SCITEGIC>MOL_PROPERTY
Grad RMS
SciTegic.value.DoubleValue
0.000000

@<SCITEGIC>MOL_PROPERTY
U
SciTegic.value.DoubleValue
14.465

@<SCITEGIC>MOL_PROPERTY
W
SciTegic.value.DoubleValue
-64.314

@<SCITEGIC>MOL_PROPERTY
W(PB)
SciTegic.value.DoubleValue
-66.406

@<SCITEGIC>MOL_PROPERTY
W(SA)
SciTegic.value.DoubleValue
2.093

@<SCITEGIC>MOL_PROPERTY
Valence
SciTegic.value.DoubleValue
14.072

@<SCITEGIC>MOL_PROPERTY
Coulomb
SciTegic.value.DoubleValue
-0.199

@<SCITEGIC>MOL_PROPERTY
VdW
SciTegic.value.DoubleValue
0.592

@<SCITEGIC>MOL_PROPERTY
VdW6
SciTegic.value.DoubleValue
-5.019

@<SCITEGIC>MOL_PROPERTY
VdW12
SciTegic.value.DoubleValue
5.611

@<SCITEGIC>MOL_PROPERTY
Bond
SciTegic.value.DoubleValue
0.085

@<SCITEGIC>MOL_PROPERTY
Angle
SciTegic.value.DoubleValue
2.748

@<SCITEGIC>MOL_PROPERTY
Pdih
SciTegic.value.DoubleValue
11.238

@<SCITEGIC>MOL_PROPERTY
Idih
SciTegic.value.DoubleValue
0.001

@<SCITEGIC>MOL_PROPERTY
Tether
SciTegic.value.DoubleValue
0.000

@<TRIPOS>MOLECULE
guest-s20_confgen4.mol2 : confsearch ligand conformer 51
          17          16           1
SMALL
USER_CHARGES
 
@<TRIPOS>ATOM
       1    C1      21.933274   20.348904   19.753051 C.2        1 MOL1         0.6132
       2    O1      22.376917   19.516868   18.986332 O.co2      1 MOL1        -0.6749
       3    O2      22.570314   21.304935   20.149287 O.co2      1 MOL1        -0.6749
       4    C2      20.498866   20.185589   20.238238 C.3        1 MOL1        -0.1955
       5    H1      19.891635   19.861244   19.385255 H          1 MOL1         0.0733
       6    H2      20.125093   21.170851   20.541870 H          1 MOL1         0.0733
       7    C3      20.379661   19.185666   21.372562 C.2        1 MOL1        -0.1395
       8    H3      20.581238   18.149560   21.102282 H          1 MOL1         0.0816
       9    C4      20.055848   19.509309   22.628200 C.2        1 MOL1        -0.1394
      10    H4      19.857320   20.545950   22.898427 H          1 MOL1         0.0816
      11    C5      19.941144   18.511377   23.758818 C.3        1 MOL1        -0.1826
      12    H5      20.398929   17.553916   23.474350 H          1 MOL1         0.0736
      13    H6      20.494577   18.877632   24.634092 H          1 MOL1         0.0736
      14    C6      18.467311   18.277591   24.143813 C.3        1 MOL1        -0.2882
      15    H7      17.898671   17.886246   23.289940 H          1 MOL1         0.0749
      16    H8      18.390506   17.553153   24.965017 H          1 MOL1         0.0749
      17    H9      17.994409   19.213319   24.469708 H          1 MOL1         0.0749
@<TRIPOS>BOND
    1     1     2    1
    2     1     3    2
    3     1     4    1
    4     4     5    1
    5     4     6    1
    6     4     7    1
    7     7     8    1
    8     7     9    2
    9     9    10    1
   10     9    11    1
   11    11    12    1
   12    11    13    1
   13    11    14    1
   14    14    15    1
   15    14    16    1
   16    14    17    1
@<TRIPOS>SUBSTRUCTURE
       1 MOL1            1 RESIDUE      1      MOL     
@<SCITEGIC>MOL_PROPERTY
VConf Rank
SciTegic.value.IntegerValue
51

@<SCITEGIC>MOL_PROPERTY
Conf_Id
SciTegic.value.IntegerValue
38

@<SCITEGIC>MOL_PROPERTY
Delta U+W
SciTegic.value.DoubleValue
0.000

@<SCITEGIC>MOL_PROPERTY
U+W
SciTegic.value.DoubleValue
-49.427

@<SCITEGIC>MOL_PROPERTY
Grad RMS
SciTegic.value.DoubleValue
0.000000

@<SCITEGIC>MOL_PROPERTY
U
SciTegic.value.DoubleValue
13.666

@<SCITEGIC>MOL_PROPERTY
W
SciTegic.value.DoubleValue
-63.093

@<SCITEGIC>MOL_PROPERTY
W(PB)
SciTegic.value.DoubleValue
-65.225

@<SCITEGIC>MOL_PROPERTY
W(SA)
SciTegic.value.DoubleValue
2.132

@<SCITEGIC>MOL_PROPERTY
Valence
SciTegic.value.DoubleValue
15.226

@<SCITEGIC>MOL_PROPERTY
Coulomb
SciTegic.value.DoubleValue
-1.822

@<SCITEGIC>MOL_PROPERTY
VdW
SciTegic.value.DoubleValue
0.261

@<SCITEGIC>MOL_PROPERTY
VdW6
SciTegic.value.DoubleValue
-4.165

@<SCITEGIC>MOL_PROPERTY
VdW12
SciTegic.value.DoubleValue
4.426

@<SCITEGIC>MOL_PROPERTY
Bond
SciTegic.value.DoubleValue
0.044

@<SCITEGIC>MOL_PROPERTY
Angle
SciTegic.value.DoubleValue
2.229

@<SCITEGIC>MOL_PROPERTY
Pdih
SciTegic.value.DoubleValue
12.953

@<SCITEGIC>MOL_PROPERTY
Idih
SciTegic.value.DoubleValue
0.000

@<SCITEGIC>MOL_PROPERTY
Tether
SciTegic.value.DoubleValue
0.000

@<TRIPOS>MOLECULE
guest-s20_confgen4.mol2 : confsearch ligand conformer 52
          17          16           1
SMALL
USER_CHARGES
 
@<TRIPOS>ATOM
       1    C1      22.016569   18.863466   24.580114 C.2        1 MOL1         0.6132
       2    O1      22.859524   19.738799   24.573896 O.co2      1 MOL1        -0.6749
       3    O2      22.241796   17.715979   24.911032 O.co2      1 MOL1        -0.6749
       4    C2      20.598796   19.223128   24.155653 C.3        1 MOL1        -0.1955
       5    H1      20.458944   20.300572   24.304632 H          1 MOL1         0.0733
       6    H2      19.906180   18.712977   24.835017 H          1 MOL1         0.0733
       7    C3      20.304766   18.830063   22.720456 C.2        1 MOL1        -0.1395
       8    H3      20.266573   17.757855   22.530425 H          1 MOL1         0.0816
       9    C4      20.103470   19.703139   21.728767 C.2        1 MOL1        -0.1394
      10    H4      20.144954   20.775151   21.918850 H          1 MOL1         0.0816
      11    C5      19.814319   19.309361   20.297456 C.3        1 MOL1        -0.1826
      12    H5      20.464877   19.876786   19.618240 H          1 MOL1         0.0736
      13    H6      20.042222   18.246466   20.137664 H          1 MOL1         0.0736
      14    C6      18.339536   19.574516   19.937222 C.3        1 MOL1        -0.2882
      15    H7      18.093612   20.638437   20.051331 H          1 MOL1         0.0749
      16    H8      18.135958   19.287524   18.897376 H          1 MOL1         0.0749
      17    H9      17.669428   18.996884   20.587527 H          1 MOL1         0.0749
@<TRIPOS>BOND
    1     1     2    1
    2     1     3    2
    3     1     4    1
    4     4     5    1
    5     4     6    1
    6     4     7    1
    7     7     8    1
    8     7     9    2
    9     9    10    1
   10     9    11    1
   11    11    12    1
   12    11    13    1
   13    11    14    1
   14    14    15    1
   15    14    16    1
   16    14    17    1
@<TRIPOS>SUBSTRUCTURE
       1 MOL1            1 RESIDUE      1      MOL     
@<SCITEGIC>MOL_PROPERTY
VConf Rank
SciTegic.value.IntegerValue
52

@<SCITEGIC>MOL_PROPERTY
Conf_Id
SciTegic.value.IntegerValue
35

@<SCITEGIC>MOL_PROPERTY
Delta U+W
SciTegic.value.DoubleValue
-0.102

@<SCITEGIC>MOL_PROPERTY
U+W
SciTegic.value.DoubleValue
-49.529

@<SCITEGIC>MOL_PROPERTY
Grad RMS
SciTegic.value.DoubleValue
0.000000

@<SCITEGIC>MOL_PROPERTY
U
SciTegic.value.DoubleValue
13.666

@<SCITEGIC>MOL_PROPERTY
W
SciTegic.value.DoubleValue
-63.195

@<SCITEGIC>MOL_PROPERTY
W(PB)
SciTegic.value.DoubleValue
-65.299

@<SCITEGIC>MOL_PROPERTY
W(SA)
SciTegic.value.DoubleValue
2.103

@<SCITEGIC>MOL_PROPERTY
Valence
SciTegic.value.DoubleValue
15.226

@<SCITEGIC>MOL_PROPERTY
Coulomb
SciTegic.value.DoubleValue
-1.822

@<SCITEGIC>MOL_PROPERTY
VdW
SciTegic.value.DoubleValue
0.261

@<SCITEGIC>MOL_PROPERTY
VdW6
SciTegic.value.DoubleValue
-4.165

@<SCITEGIC>MOL_PROPERTY
VdW12
SciTegic.value.DoubleValue
4.426

@<SCITEGIC>MOL_PROPERTY
Bond
SciTegic.value.DoubleValue
0.044

@<SCITEGIC>MOL_PROPERTY
Angle
SciTegic.value.DoubleValue
2.229

@<SCITEGIC>MOL_PROPERTY
Pdih
SciTegic.value.DoubleValue
12.953

@<SCITEGIC>MOL_PROPERTY
Idih
SciTegic.value.DoubleValue
0.000

@<SCITEGIC>MOL_PROPERTY
Tether
SciTegic.value.DoubleValue
0.000

@<TRIPOS>MOLECULE
guest-s20_confgen4.mol2 : confsearch ligand conformer 53
          17          16           1
SMALL
USER_CHARGES
 
@<TRIPOS>ATOM
       1    C1      21.890707   18.969331   19.772957 C.2        1 MOL1         0.6132
       2    O1      23.066189   18.937794   20.079905 O.co2      1 MOL1        -0.6749
       3    O2      21.395609   18.243066   18.933751 O.co2      1 MOL1        -0.6749
       4    C2      20.992884   19.981342   20.472558 C.3        1 MOL1        -0.1955
       5    H1      20.133642   20.184710   19.822229 H          1 MOL1         0.0733
       6    H2      21.553616   20.918648   20.565011 H          1 MOL1         0.0733
       7    C3      20.541038   19.507952   21.841186 C.2        1 MOL1        -0.1395
       8    H3      21.334851   19.438916   22.582931 H          1 MOL1         0.0816
       9    C4      19.275923   19.188056   22.140959 C.2        1 MOL1        -0.1394
      10    H4      18.508969   19.265454   21.370976 H          1 MOL1         0.0816
      11    C5      18.755847   18.705244   23.484463 C.3        1 MOL1        -0.1826
      12    H5      17.964628   19.386138   23.826315 H          1 MOL1         0.0736
      13    H6      18.267887   17.730630   23.348289 H          1 MOL1         0.0736
      14    C6      19.825871   18.581241   24.591577 C.3        1 MOL1        -0.2882
      15    H7      20.298478   19.551488   24.793230 H          1 MOL1         0.0749
      16    H8      19.372842   18.227338   25.526749 H          1 MOL1         0.0749
      17    H9      20.607884   17.865773   24.305132 H          1 MOL1         0.0749
@<TRIPOS>BOND
    1     1     2    1
    2     1     3    2
    3     1     4    1
    4     4     5    1
    5     4     6    1
    6     4     7    1
    7     7     8    1
    8     7     9    2
    9     9    10    1
   10     9    11    1
   11    11    12    1
   12    11    13    1
   13    11    14    1
   14    14    15    1
   15    14    16    1
   16    14    17    1
@<TRIPOS>SUBSTRUCTURE
       1 MOL1            1 RESIDUE      1      MOL     
@<SCITEGIC>MOL_PROPERTY
VConf Rank
SciTegic.value.IntegerValue
53

@<SCITEGIC>MOL_PROPERTY
Conf_Id
SciTegic.value.IntegerValue
19

@<SCITEGIC>MOL_PROPERTY
Delta U+W
SciTegic.value.DoubleValue
-0.496

@<SCITEGIC>MOL_PROPERTY
U+W
SciTegic.value.DoubleValue
-49.923

@<SCITEGIC>MOL_PROPERTY
Grad RMS
SciTegic.value.DoubleValue
0.000000

@<SCITEGIC>MOL_PROPERTY
U
SciTegic.value.DoubleValue
13.863

@<SCITEGIC>MOL_PROPERTY
W
SciTegic.value.DoubleValue
-63.786

@<SCITEGIC>MOL_PROPERTY
W(PB)
SciTegic.value.DoubleValue
-65.856

@<SCITEGIC>MOL_PROPERTY
W(SA)
SciTegic.value.DoubleValue
2.070

@<SCITEGIC>MOL_PROPERTY
Valence
SciTegic.value.DoubleValue
14.117

@<SCITEGIC>MOL_PROPERTY
Coulomb
SciTegic.value.DoubleValue
-1.228

@<SCITEGIC>MOL_PROPERTY
VdW
SciTegic.value.DoubleValue
0.974

@<SCITEGIC>MOL_PROPERTY
VdW6
SciTegic.value.DoubleValue
-4.885

@<SCITEGIC>MOL_PROPERTY
VdW12
SciTegic.value.DoubleValue
5.859

@<SCITEGIC>MOL_PROPERTY
Bond
SciTegic.value.DoubleValue
0.094

@<SCITEGIC>MOL_PROPERTY
Angle
SciTegic.value.DoubleValue
2.818

@<SCITEGIC>MOL_PROPERTY
Pdih
SciTegic.value.DoubleValue
11.205

@<SCITEGIC>MOL_PROPERTY
Idih
SciTegic.value.DoubleValue
0.000

@<SCITEGIC>MOL_PROPERTY
Tether
SciTegic.value.DoubleValue
0.000

@<TRIPOS>MOLECULE
guest-s20_confgen4.mol2 : confsearch ligand conformer 54
          17          16           1
SMALL
USER_CHARGES
 
@<TRIPOS>ATOM
       1    C1      20.029127   16.152440   21.860799 C.2        1 MOL1         0.6132
       2    O1      21.045083   15.780478   22.414236 O.co2      1 MOL1        -0.6749
       3    O2      18.943161   15.633798   22.030184 O.co2      1 MOL1        -0.6749
       4    C2      20.121326   17.325434   20.893632 C.3        1 MOL1        -0.1955
       5    H1      19.503520   17.088028   20.019882 H          1 MOL1         0.0733
       6    H2      21.157715   17.400530   20.543044 H          1 MOL1         0.0733
       7    C3      19.662458   18.629817   21.517161 C.2        1 MOL1        -0.1395
       8    H3      18.599561   18.685161   21.750406 H          1 MOL1         0.0816
       9    C4      20.471101   19.659488   21.785655 C.2        1 MOL1        -0.1394
      10    H4      21.534777   19.601635   21.556949 H          1 MOL1         0.0816
      11    C5      20.012025   20.958182   22.410138 C.3        1 MOL1        -0.1826
      12    H5      20.409003   21.806493   21.836293 H          1 MOL1         0.0736
      13    H6      18.916760   21.036792   22.372433 H          1 MOL1         0.0736
      14    C6      20.480567   21.064065   23.874463 C.3        1 MOL1        -0.2882
      15    H7      21.575982   21.027303   23.938816 H          1 MOL1         0.0749
      16    H8      20.144385   22.007998   24.322838 H          1 MOL1         0.0749
      17    H9      20.075025   20.238364   24.473992 H          1 MOL1         0.0749
@<TRIPOS>BOND
    1     1     2    1
    2     1     3    2
    3     1     4    1
    4     4     5    1
    5     4     6    1
    6     4     7    1
    7     7     8    1
    8     7     9    2
    9     9    10    1
   10     9    11    1
   11    11    12    1
   12    11    13    1
   13    11    14    1
   14    14    15    1
   15    14    16    1
   16    14    17    1
@<TRIPOS>SUBSTRUCTURE
       1 MOL1            1 RESIDUE      1      MOL     
@<SCITEGIC>MOL_PROPERTY
VConf Rank
SciTegic.value.IntegerValue
54

@<SCITEGIC>MOL_PROPERTY
Conf_Id
SciTegic.value.IntegerValue
7

@<SCITEGIC>MOL_PROPERTY
Delta U+W
SciTegic.value.DoubleValue
-0.041

@<SCITEGIC>MOL_PROPERTY
U+W
SciTegic.value.DoubleValue
-49.468

@<SCITEGIC>MOL_PROPERTY
Grad RMS
SciTegic.value.DoubleValue
0.000000

@<SCITEGIC>MOL_PROPERTY
U
SciTegic.value.DoubleValue
14.121

@<SCITEGIC>MOL_PROPERTY
W
SciTegic.value.DoubleValue
-63.589

@<SCITEGIC>MOL_PROPERTY
W(PB)
SciTegic.value.DoubleValue
-65.660

@<SCITEGIC>MOL_PROPERTY
W(SA)
SciTegic.value.DoubleValue
2.071

@<SCITEGIC>MOL_PROPERTY
Valence
SciTegic.value.DoubleValue
15.230

@<SCITEGIC>MOL_PROPERTY
Coulomb
SciTegic.value.DoubleValue
-1.333

@<SCITEGIC>MOL_PROPERTY
VdW
SciTegic.value.DoubleValue
0.224

@<SCITEGIC>MOL_PROPERTY
VdW6
SciTegic.value.DoubleValue
-4.212

@<SCITEGIC>MOL_PROPERTY
VdW12
SciTegic.value.DoubleValue
4.436

@<SCITEGIC>MOL_PROPERTY
Bond
SciTegic.value.DoubleValue
0.044

@<SCITEGIC>MOL_PROPERTY
Angle
SciTegic.value.DoubleValue
2.230

@<SCITEGIC>MOL_PROPERTY
Pdih
SciTegic.value.DoubleValue
12.956

@<SCITEGIC>MOL_PROPERTY
Idih
SciTegic.value.DoubleValue
0.000

@<SCITEGIC>MOL_PROPERTY
Tether
SciTegic.value.DoubleValue
0.000

@<TRIPOS>MOLECULE
guest-s20_confgen4.mol2 : confsearch ligand conformer 55
          17          16           1
SMALL
USER_CHARGES
 
@<TRIPOS>ATOM
       1    C1      19.577727   21.335678   20.515083 C.2        1 MOL1         0.6132
       2    O1      20.379521   22.171369   20.883511 O.co2      1 MOL1        -0.6749
       3    O2      18.384915   21.547077   20.417143 O.co2      1 MOL1        -0.6749
       4    C2      20.099982   19.955441   20.128079 C.3        1 MOL1        -0.1955
       5    H1      21.105961   20.081286   19.711022 H          1 MOL1         0.0733
       6    H2      19.478305   19.579294   19.307255 H          1 MOL1         0.0733
       7    C3      20.138172   18.928713   21.251133 C.2        1 MOL1        -0.1395
       8    H3      20.513974   17.950643   20.953314 H          1 MOL1         0.0816
       9    C4      19.762106   19.135088   22.518800 C.2        1 MOL1        -0.1394
      10    H4      19.383698   20.103828   22.842967 H          1 MOL1         0.0816
      11    C5      19.818707   18.077724   23.598947 C.3        1 MOL1        -0.1826
      12    H5      18.865304   18.053452   24.143881 H          1 MOL1         0.0736
      13    H6      19.953857   17.081401   23.155969 H          1 MOL1         0.0736
      14    C6      20.968093   18.356621   24.586958 C.3        1 MOL1        -0.2882
      15    H7      21.003570   17.587241   25.369170 H          1 MOL1         0.0749
      16    H8      21.935770   18.360218   24.068130 H          1 MOL1         0.0749
      17    H9      20.837744   19.331998   25.073894 H          1 MOL1         0.0749
@<TRIPOS>BOND
    1     1     2    1
    2     1     3    2
    3     1     4    1
    4     4     5    1
    5     4     6    1
    6     4     7    1
    7     7     8    1
    8     7     9    2
    9     9    10    1
   10     9    11    1
   11    11    12    1
   12    11    13    1
   13    11    14    1
   14    14    15    1
   15    14    16    1
   16    14    17    1
@<TRIPOS>SUBSTRUCTURE
       1 MOL1            1 RESIDUE      1      MOL     
@<SCITEGIC>MOL_PROPERTY
VConf Rank
SciTegic.value.IntegerValue
55

@<SCITEGIC>MOL_PROPERTY
Conf_Id
SciTegic.value.IntegerValue
39

@<SCITEGIC>MOL_PROPERTY
Delta U+W
SciTegic.value.DoubleValue
-0.422

@<SCITEGIC>MOL_PROPERTY
U+W
SciTegic.value.DoubleValue
-49.849

@<SCITEGIC>MOL_PROPERTY
Grad RMS
SciTegic.value.DoubleValue
0.000000

@<SCITEGIC>MOL_PROPERTY
U
SciTegic.value.DoubleValue
14.465

@<SCITEGIC>MOL_PROPERTY
W
SciTegic.value.DoubleValue
-64.314

@<SCITEGIC>MOL_PROPERTY
W(PB)
SciTegic.value.DoubleValue
-66.406

@<SCITEGIC>MOL_PROPERTY
W(SA)
SciTegic.value.DoubleValue
2.093

@<SCITEGIC>MOL_PROPERTY
Valence
SciTegic.value.DoubleValue
14.072

@<SCITEGIC>MOL_PROPERTY
Coulomb
SciTegic.value.DoubleValue
-0.199

@<SCITEGIC>MOL_PROPERTY
VdW
SciTegic.value.DoubleValue
0.592

@<SCITEGIC>MOL_PROPERTY
VdW6
SciTegic.value.DoubleValue
-5.019

@<SCITEGIC>MOL_PROPERTY
VdW12
SciTegic.value.DoubleValue
5.611

@<SCITEGIC>MOL_PROPERTY
Bond
SciTegic.value.DoubleValue
0.085

@<SCITEGIC>MOL_PROPERTY
Angle
SciTegic.value.DoubleValue
2.748

@<SCITEGIC>MOL_PROPERTY
Pdih
SciTegic.value.DoubleValue
11.238

@<SCITEGIC>MOL_PROPERTY
Idih
SciTegic.value.DoubleValue
0.001

@<SCITEGIC>MOL_PROPERTY
Tether
SciTegic.value.DoubleValue
0.000

@<TRIPOS>MOLECULE
guest-s20_confgen4.mol2 : confsearch ligand conformer 56
          17          16           1
SMALL
USER_CHARGES
 
@<TRIPOS>ATOM
       1    C1      22.386171   18.587377   24.193713 C.2        1 MOL1         0.6132
       2    O1      22.101086   17.789727   25.065173 O.co2      1 MOL1        -0.6749
       3    O2      23.061717   19.579194   24.385431 O.co2      1 MOL1        -0.6749
       4    C2      21.872322   18.324922   22.784216 C.3        1 MOL1        -0.1955
       5    H1      21.972563   17.251603   22.585604 H          1 MOL1         0.0733
       6    H2      22.529776   18.844765   22.076999 H          1 MOL1         0.0733
       7    C3      20.429350   18.755654   22.602430 C.2        1 MOL1        -0.1395
       8    H3      19.696047   18.170731   23.156806 H          1 MOL1         0.0816
       9    C4      20.041381   19.774865   21.829826 C.2        1 MOL1        -0.1394
      10    H4      20.775441   20.361215   21.278092 H          1 MOL1         0.0816
      11    C5      18.602396   20.205305   21.652728 C.3        1 MOL1        -0.1826
      12    H5      17.966549   19.747024   22.422727 H          1 MOL1         0.0736
      13    H6      18.521990   21.292903   21.783885 H          1 MOL1         0.0736
      14    C6      18.075409   19.815685   20.257901 C.3        1 MOL1        -0.2882
      15    H7      18.122099   18.728258   20.113255 H          1 MOL1         0.0749
      16    H8      17.031144   20.131139   20.135081 H          1 MOL1         0.0749
      17    H9      18.670273   20.291741   19.467372 H          1 MOL1         0.0749
@<TRIPOS>BOND
    1     1     2    1
    2     1     3    2
    3     1     4    1
    4     4     5    1
    5     4     6    1
    6     4     7    1
    7     7     8    1
    8     7     9    2
    9     9    10    1
   10     9    11    1
   11    11    12    1
   12    11    13    1
   13    11    14    1
   14    14    15    1
   15    14    16    1
   16    14    17    1
@<TRIPOS>SUBSTRUCTURE
       1 MOL1            1 RESIDUE      1      MOL     
@<SCITEGIC>MOL_PROPERTY
VConf Rank
SciTegic.value.IntegerValue
56

@<SCITEGIC>MOL_PROPERTY
Conf_Id
SciTegic.value.IntegerValue
38

@<SCITEGIC>MOL_PROPERTY
Delta U+W
SciTegic.value.DoubleValue
0.000

@<SCITEGIC>MOL_PROPERTY
U+W
SciTegic.value.DoubleValue
-49.427

@<SCITEGIC>MOL_PROPERTY
Grad RMS
SciTegic.value.DoubleValue
0.000000

@<SCITEGIC>MOL_PROPERTY
U
SciTegic.value.DoubleValue
13.666

@<SCITEGIC>MOL_PROPERTY
W
SciTegic.value.DoubleValue
-63.093

@<SCITEGIC>MOL_PROPERTY
W(PB)
SciTegic.value.DoubleValue
-65.225

@<SCITEGIC>MOL_PROPERTY
W(SA)
SciTegic.value.DoubleValue
2.132

@<SCITEGIC>MOL_PROPERTY
Valence
SciTegic.value.DoubleValue
15.226

@<SCITEGIC>MOL_PROPERTY
Coulomb
SciTegic.value.DoubleValue
-1.822

@<SCITEGIC>MOL_PROPERTY
VdW
SciTegic.value.DoubleValue
0.261

@<SCITEGIC>MOL_PROPERTY
VdW6
SciTegic.value.DoubleValue
-4.165

@<SCITEGIC>MOL_PROPERTY
VdW12
SciTegic.value.DoubleValue
4.426

@<SCITEGIC>MOL_PROPERTY
Bond
SciTegic.value.DoubleValue
0.044

@<SCITEGIC>MOL_PROPERTY
Angle
SciTegic.value.DoubleValue
2.229

@<SCITEGIC>MOL_PROPERTY
Pdih
SciTegic.value.DoubleValue
12.953

@<SCITEGIC>MOL_PROPERTY
Idih
SciTegic.value.DoubleValue
0.000

@<SCITEGIC>MOL_PROPERTY
Tether
SciTegic.value.DoubleValue
0.000

@<TRIPOS>MOLECULE
guest-s20_confgen4.mol2 : confsearch ligand conformer 57
          17          16           1
SMALL
USER_CHARGES
 
@<TRIPOS>ATOM
       1    C1      22.058584   21.661008   22.735558 C.2        1 MOL1         0.6132
       2    O1      23.176830   21.362659   22.364974 O.co2      1 MOL1        -0.6749
       3    O2      21.833038   22.298623   23.745279 O.co2      1 MOL1        -0.6749
       4    C2      20.874176   21.217381   21.887043 C.3        1 MOL1        -0.1955
       5    H1      21.228243   21.054888   20.861922 H          1 MOL1         0.0733
       6    H2      20.158406   22.046781   21.851323 H          1 MOL1         0.0733
       7    C3      20.201864   19.972453   22.433756 C.2        1 MOL1        -0.1395
       8    H3      19.684352   20.102493   23.383741 H          1 MOL1         0.0816
       9    C4      20.220506   18.781243   21.828034 C.2        1 MOL1        -0.1394
      10    H4      20.740876   18.651156   20.879692 H          1 MOL1         0.0816
      11    C5      19.552903   17.540010   22.376639 C.3        1 MOL1        -0.1826
      12    H5      20.255318   16.696158   22.344079 H          1 MOL1         0.0736
      13    H6      19.281566   17.683846   23.431583 H          1 MOL1         0.0736
      14    C6      18.288906   17.187775   21.568367 C.3        1 MOL1        -0.2882
      15    H7      18.536821   17.000803   20.515272 H          1 MOL1         0.0749
      16    H8      17.809293   16.285982   21.970642 H          1 MOL1         0.0749
      17    H9      17.559844   18.007847   21.607754 H          1 MOL1         0.0749
@<TRIPOS>BOND
    1     1     2    1
    2     1     3    2
    3     1     4    1
    4     4     5    1
    5     4     6    1
    6     4     7    1
    7     7     8    1
    8     7     9    2
    9     9    10    1
   10     9    11    1
   11    11    12    1
   12    11    13    1
   13    11    14    1
   14    14    15    1
   15    14    16    1
   16    14    17    1
@<TRIPOS>SUBSTRUCTURE
       1 MOL1            1 RESIDUE      1      MOL     
@<SCITEGIC>MOL_PROPERTY
VConf Rank
SciTegic.value.IntegerValue
57

@<SCITEGIC>MOL_PROPERTY
Conf_Id
SciTegic.value.IntegerValue
35

@<SCITEGIC>MOL_PROPERTY
Delta U+W
SciTegic.value.DoubleValue
-0.102

@<SCITEGIC>MOL_PROPERTY
U+W
SciTegic.value.DoubleValue
-49.529

@<SCITEGIC>MOL_PROPERTY
Grad RMS
SciTegic.value.DoubleValue
0.000000

@<SCITEGIC>MOL_PROPERTY
U
SciTegic.value.DoubleValue
13.666

@<SCITEGIC>MOL_PROPERTY
W
SciTegic.value.DoubleValue
-63.195

@<SCITEGIC>MOL_PROPERTY
W(PB)
SciTegic.value.DoubleValue
-65.299

@<SCITEGIC>MOL_PROPERTY
W(SA)
SciTegic.value.DoubleValue
2.103

@<SCITEGIC>MOL_PROPERTY
Valence
SciTegic.value.DoubleValue
15.226

@<SCITEGIC>MOL_PROPERTY
Coulomb
SciTegic.value.DoubleValue
-1.822

@<SCITEGIC>MOL_PROPERTY
VdW
SciTegic.value.DoubleValue
0.261

@<SCITEGIC>MOL_PROPERTY
VdW6
SciTegic.value.DoubleValue
-4.165

@<SCITEGIC>MOL_PROPERTY
VdW12
SciTegic.value.DoubleValue
4.426

@<SCITEGIC>MOL_PROPERTY
Bond
SciTegic.value.DoubleValue
0.044

@<SCITEGIC>MOL_PROPERTY
Angle
SciTegic.value.DoubleValue
2.229

@<SCITEGIC>MOL_PROPERTY
Pdih
SciTegic.value.DoubleValue
12.953

@<SCITEGIC>MOL_PROPERTY
Idih
SciTegic.value.DoubleValue
0.000

@<SCITEGIC>MOL_PROPERTY
Tether
SciTegic.value.DoubleValue
0.000

@<TRIPOS>MOLECULE
guest-s20_confgen4.mol2 : confsearch ligand conformer 58
          17          16           1
SMALL
USER_CHARGES
 
@<TRIPOS>ATOM
       1    C1      21.951981   16.722757   21.940249 C.2        1 MOL1         0.6132
       2    O1      21.438318   15.774107   22.499877 O.co2      1 MOL1        -0.6749
       3    O2      22.453988   16.659981   20.835306 O.co2      1 MOL1        -0.6749
       4    C2      21.975179   18.059915   22.669058 C.3        1 MOL1        -0.1955
       5    H1      22.802778   18.655869   22.265940 H          1 MOL1         0.0733
       6    H2      22.205570   17.863027   23.722464 H          1 MOL1         0.0733
       7    C3      20.659378   18.806240   22.554714 C.2        1 MOL1        -0.1395
       8    H3      19.825507   18.339386   23.076055 H          1 MOL1         0.0816
       9    C4      20.504197   19.946318   21.869988 C.2        1 MOL1        -0.1394
      10    H4      21.361122   20.381746   21.356990 H          1 MOL1         0.0816
      11    C5      19.219514   20.741898   21.711136 C.3        1 MOL1        -0.1826
      12    H5      19.384306   21.763081   22.080643 H          1 MOL1         0.0736
      13    H6      18.996050   20.847853   20.640922 H          1 MOL1         0.0736
      14    C6      17.988135   20.141321   22.424608 C.3        1 MOL1        -0.2882
      15    H7      18.155635   20.070761   23.507367 H          1 MOL1         0.0749
      16    H8      17.103859   20.771050   22.261739 H          1 MOL1         0.0749
      17    H9      17.761348   19.137813   22.041163 H          1 MOL1         0.0749
@<TRIPOS>BOND
    1     1     2    1
    2     1     3    2
    3     1     4    1
    4     4     5    1
    5     4     6    1
    6     4     7    1
    7     7     8    1
    8     7     9    2
    9     9    10    1
   10     9    11    1
   11    11    12    1
   12    11    13    1
   13    11    14    1
   14    14    15    1
   15    14    16    1
   16    14    17    1
@<TRIPOS>SUBSTRUCTURE
       1 MOL1            1 RESIDUE      1      MOL     
@<SCITEGIC>MOL_PROPERTY
VConf Rank
SciTegic.value.IntegerValue
58

@<SCITEGIC>MOL_PROPERTY
Conf_Id
SciTegic.value.IntegerValue
19

@<SCITEGIC>MOL_PROPERTY
Delta U+W
SciTegic.value.DoubleValue
-0.496

@<SCITEGIC>MOL_PROPERTY
U+W
SciTegic.value.DoubleValue
-49.923

@<SCITEGIC>MOL_PROPERTY
Grad RMS
SciTegic.value.DoubleValue
0.000000

@<SCITEGIC>MOL_PROPERTY
U
SciTegic.value.DoubleValue
13.863

@<SCITEGIC>MOL_PROPERTY
W
SciTegic.value.DoubleValue
-63.786

@<SCITEGIC>MOL_PROPERTY
W(PB)
SciTegic.value.DoubleValue
-65.856

@<SCITEGIC>MOL_PROPERTY
W(SA)
SciTegic.value.DoubleValue
2.070

@<SCITEGIC>MOL_PROPERTY
Valence
SciTegic.value.DoubleValue
14.117

@<SCITEGIC>MOL_PROPERTY
Coulomb
SciTegic.value.DoubleValue
-1.228

@<SCITEGIC>MOL_PROPERTY
VdW
SciTegic.value.DoubleValue
0.974

@<SCITEGIC>MOL_PROPERTY
VdW6
SciTegic.value.DoubleValue
-4.885

@<SCITEGIC>MOL_PROPERTY
VdW12
SciTegic.value.DoubleValue
5.859

@<SCITEGIC>MOL_PROPERTY
Bond
SciTegic.value.DoubleValue
0.094

@<SCITEGIC>MOL_PROPERTY
Angle
SciTegic.value.DoubleValue
2.818

@<SCITEGIC>MOL_PROPERTY
Pdih
SciTegic.value.DoubleValue
11.205

@<SCITEGIC>MOL_PROPERTY
Idih
SciTegic.value.DoubleValue
0.000

@<SCITEGIC>MOL_PROPERTY
Tether
SciTegic.value.DoubleValue
0.000

@<TRIPOS>MOLECULE
guest-s20_confgen4.mol2 : confsearch ligand conformer 59
          17          16           1
SMALL
USER_CHARGES
 
@<TRIPOS>ATOM
       1    C1      21.543975   19.833628   19.740700 C.2        1 MOL1         0.6132
       2    O1      21.691821   18.763683   19.183770 O.co2      1 MOL1        -0.6749
       3    O2      21.137830   20.832539   19.180141 O.co2      1 MOL1        -0.6749
       4    C2      21.896382   19.933291   21.219113 C.3        1 MOL1        -0.1955
       5    H1      22.423909   20.881533   21.374156 H          1 MOL1         0.0733
       6    H2      22.603430   19.129845   21.458304 H          1 MOL1         0.0733
       7    C3      20.673283   19.865316   22.113635 C.2        1 MOL1        -0.1395
       8    H3      19.997191   20.716812   22.042431 H          1 MOL1         0.0816
       9    C4      20.401501   18.849574   22.938631 C.2        1 MOL1        -0.1394
      10    H4      21.075278   17.995995   23.005617 H          1 MOL1         0.0816
      11    C5      19.179808   18.782404   23.827613 C.3        1 MOL1        -0.1826
      12    H5      19.478329   18.507190   24.848233 H          1 MOL1         0.0736
      13    H6      18.698536   19.767845   23.894635 H          1 MOL1         0.0736
      14    C6      18.163425   17.753937   23.294496 C.3        1 MOL1        -0.2882
      15    H7      18.606625   16.750283   23.253556 H          1 MOL1         0.0749
      16    H8      17.278804   17.709592   23.942991 H          1 MOL1         0.0749
      17    H9      17.831451   18.022540   22.282900 H          1 MOL1         0.0749
@<TRIPOS>BOND
    1     1     2    1
    2     1     3    2
    3     1     4    1
    4     4     5    1
    5     4     6    1
    6     4     7    1
    7     7     8    1
    8     7     9    2
    9     9    10    1
   10     9    11    1
   11    11    12    1
   12    11    13    1
   13    11    14    1
   14    14    15    1
   15    14    16    1
   16    14    17    1
@<TRIPOS>SUBSTRUCTURE
       1 MOL1            1 RESIDUE      1      MOL     
@<SCITEGIC>MOL_PROPERTY
VConf Rank
SciTegic.value.IntegerValue
59

@<SCITEGIC>MOL_PROPERTY
Conf_Id
SciTegic.value.IntegerValue
7

@<SCITEGIC>MOL_PROPERTY
Delta U+W
SciTegic.value.DoubleValue
-0.041

@<SCITEGIC>MOL_PROPERTY
U+W
SciTegic.value.DoubleValue
-49.468

@<SCITEGIC>MOL_PROPERTY
Grad RMS
SciTegic.value.DoubleValue
0.000000

@<SCITEGIC>MOL_PROPERTY
U
SciTegic.value.DoubleValue
14.121

@<SCITEGIC>MOL_PROPERTY
W
SciTegic.value.DoubleValue
-63.589

@<SCITEGIC>MOL_PROPERTY
W(PB)
SciTegic.value.DoubleValue
-65.660

@<SCITEGIC>MOL_PROPERTY
W(SA)
SciTegic.value.DoubleValue
2.071

@<SCITEGIC>MOL_PROPERTY
Valence
SciTegic.value.DoubleValue
15.230

@<SCITEGIC>MOL_PROPERTY
Coulomb
SciTegic.value.DoubleValue
-1.333

@<SCITEGIC>MOL_PROPERTY
VdW
SciTegic.value.DoubleValue
0.224

@<SCITEGIC>MOL_PROPERTY
VdW6
SciTegic.value.DoubleValue
-4.212

@<SCITEGIC>MOL_PROPERTY
VdW12
SciTegic.value.DoubleValue
4.436

@<SCITEGIC>MOL_PROPERTY
Bond
SciTegic.value.DoubleValue
0.044

@<SCITEGIC>MOL_PROPERTY
Angle
SciTegic.value.DoubleValue
2.230

@<SCITEGIC>MOL_PROPERTY
Pdih
SciTegic.value.DoubleValue
12.956

@<SCITEGIC>MOL_PROPERTY
Idih
SciTegic.value.DoubleValue
0.000

@<SCITEGIC>MOL_PROPERTY
Tether
SciTegic.value.DoubleValue
0.000

@<TRIPOS>MOLECULE
guest-s20_confgen4.mol2 : confsearch ligand conformer 60
          17          16           1
SMALL
USER_CHARGES
 
@<TRIPOS>ATOM
       1    C1      20.333799   19.414268   25.016682 C.2        1 MOL1         0.6132
       2    O1      21.534781   19.541666   25.152345 O.co2      1 MOL1        -0.6749
       3    O2      19.683831   18.548964   25.569738 O.co2      1 MOL1        -0.6749
       4    C2      19.598155   20.411078   24.126302 C.3        1 MOL1        -0.1955
       5    H1      20.119471   21.372911   24.196136 H          1 MOL1         0.0733
       6    H2      18.603502   20.575412   24.556860 H          1 MOL1         0.0733
       7    C3      19.461427   20.009973   22.664353 C.2        1 MOL1        -0.1395
       8    H3      18.933187   20.735334   22.046809 H          1 MOL1         0.0816
       9    C4      19.924890   18.882944   22.111176 C.2        1 MOL1        -0.1394
      10    H4      20.457239   18.141635   22.705985 H          1 MOL1         0.0816
      11    C5      19.760790   18.530514   20.649394 C.3        1 MOL1        -0.1826
      12    H5      19.394533   17.499192   20.555852 H          1 MOL1         0.0736
      13    H6      19.006361   19.176589   20.179736 H          1 MOL1         0.0736
      14    C6      21.095771   18.672125   19.892553 C.3        1 MOL1        -0.2882
      15    H7      20.971143   18.413876   18.832914 H          1 MOL1         0.0749
      16    H8      21.469235   19.703023   19.950590 H          1 MOL1         0.0749
      17    H9      21.859289   18.007567   20.317830 H          1 MOL1         0.0749
@<TRIPOS>BOND
    1     1     2    1
    2     1     3    2
    3     1     4    1
    4     4     5    1
    5     4     6    1
    6     4     7    1
    7     7     8    1
    8     7     9    2
    9     9    10    1
   10     9    11    1
   11    11    12    1
   12    11    13    1
   13    11    14    1
   14    14    15    1
   15    14    16    1
   16    14    17    1
@<TRIPOS>SUBSTRUCTURE
       1 MOL1            1 RESIDUE      1      MOL     
@<SCITEGIC>MOL_PROPERTY
VConf Rank
SciTegic.value.IntegerValue
60

@<SCITEGIC>MOL_PROPERTY
Conf_Id
SciTegic.value.IntegerValue
39

@<SCITEGIC>MOL_PROPERTY
Delta U+W
SciTegic.value.DoubleValue
-0.422

@<SCITEGIC>MOL_PROPERTY
U+W
SciTegic.value.DoubleValue
-49.849

@<SCITEGIC>MOL_PROPERTY
Grad RMS
SciTegic.value.DoubleValue
0.000000

@<SCITEGIC>MOL_PROPERTY
U
SciTegic.value.DoubleValue
14.465

@<SCITEGIC>MOL_PROPERTY
W
SciTegic.value.DoubleValue
-64.314

@<SCITEGIC>MOL_PROPERTY
W(PB)
SciTegic.value.DoubleValue
-66.406

@<SCITEGIC>MOL_PROPERTY
W(SA)
SciTegic.value.DoubleValue
2.093

@<SCITEGIC>MOL_PROPERTY
Valence
SciTegic.value.DoubleValue
14.072

@<SCITEGIC>MOL_PROPERTY
Coulomb
SciTegic.value.DoubleValue
-0.199

@<SCITEGIC>MOL_PROPERTY
VdW
SciTegic.value.DoubleValue
0.592

@<SCITEGIC>MOL_PROPERTY
VdW6
SciTegic.value.DoubleValue
-5.019

@<SCITEGIC>MOL_PROPERTY
VdW12
SciTegic.value.DoubleValue
5.611

@<SCITEGIC>MOL_PROPERTY
Bond
SciTegic.value.DoubleValue
0.085

@<SCITEGIC>MOL_PROPERTY
Angle
SciTegic.value.DoubleValue
2.748

@<SCITEGIC>MOL_PROPERTY
Pdih
SciTegic.value.DoubleValue
11.238

@<SCITEGIC>MOL_PROPERTY
Idih
SciTegic.value.DoubleValue
0.001

@<SCITEGIC>MOL_PROPERTY
Tether
SciTegic.value.DoubleValue
0.000

@<TRIPOS>MOLECULE
guest-s20_confgen4.mol2 : confsearch ligand conformer 61
          17          16           1
SMALL
USER_CHARGES
 
@<TRIPOS>ATOM
       1    C1      20.455829   22.352622   22.750907 C.2        1 MOL1         0.6132
       2    O1      21.085572   23.008769   21.944771 O.co2      1 MOL1        -0.6749
       3    O2      20.546793   22.498716   23.953904 O.co2      1 MOL1        -0.6749
       4    C2      19.497010   21.293861   22.222423 C.3        1 MOL1        -0.1955
       5    H1      18.982581   21.713326   21.350115 H          1 MOL1         0.0733
       6    H2      18.733188   21.110105   22.987570 H          1 MOL1         0.0733
       7    C3      20.204844   20.007710   21.840938 C.2        1 MOL1        -0.1395
       8    H3      20.864643   20.078690   20.976746 H          1 MOL1         0.0816
       9    C4      20.060462   18.849381   22.491827 C.2        1 MOL1        -0.1394
      10    H4      19.402828   18.779838   23.357703 H          1 MOL1         0.0816
      11    C5      20.769998   17.568825   22.112280 C.3        1 MOL1        -0.1826
      12    H5      21.591203   17.777215   21.412696 H          1 MOL1         0.0736
      13    H6      21.223470   17.117634   23.005210 H          1 MOL1         0.0736
      14    C6      19.794040   16.564731   21.468571 C.3        1 MOL1        -0.2882
      15    H7      19.346806   16.984797   20.558006 H          1 MOL1         0.0749
      16    H8      20.314451   15.637410   21.195931 H          1 MOL1         0.0749
      17    H9      18.981995   16.308481   22.161642 H          1 MOL1         0.0749
@<TRIPOS>BOND
    1     1     2    1
    2     1     3    2
    3     1     4    1
    4     4     5    1
    5     4     6    1
    6     4     7    1
    7     7     8    1
    8     7     9    2
    9     9    10    1
   10     9    11    1
   11    11    12    1
   12    11    13    1
   13    11    14    1
   14    14    15    1
   15    14    16    1
   16    14    17    1
@<TRIPOS>SUBSTRUCTURE
       1 MOL1            1 RESIDUE      1      MOL     
@<SCITEGIC>MOL_PROPERTY
VConf Rank
SciTegic.value.IntegerValue
61

@<SCITEGIC>MOL_PROPERTY
Conf_Id
SciTegic.value.IntegerValue
38

@<SCITEGIC>MOL_PROPERTY
Delta U+W
SciTegic.value.DoubleValue
0.000

@<SCITEGIC>MOL_PROPERTY
U+W
SciTegic.value.DoubleValue
-49.427

@<SCITEGIC>MOL_PROPERTY
Grad RMS
SciTegic.value.DoubleValue
0.000000

@<SCITEGIC>MOL_PROPERTY
U
SciTegic.value.DoubleValue
13.666

@<SCITEGIC>MOL_PROPERTY
W
SciTegic.value.DoubleValue
-63.093

@<SCITEGIC>MOL_PROPERTY
W(PB)
SciTegic.value.DoubleValue
-65.225

@<SCITEGIC>MOL_PROPERTY
W(SA)
SciTegic.value.DoubleValue
2.132

@<SCITEGIC>MOL_PROPERTY
Valence
SciTegic.value.DoubleValue
15.226

@<SCITEGIC>MOL_PROPERTY
Coulomb
SciTegic.value.DoubleValue
-1.822

@<SCITEGIC>MOL_PROPERTY
VdW
SciTegic.value.DoubleValue
0.261

@<SCITEGIC>MOL_PROPERTY
VdW6
SciTegic.value.DoubleValue
-4.165

@<SCITEGIC>MOL_PROPERTY
VdW12
SciTegic.value.DoubleValue
4.426

@<SCITEGIC>MOL_PROPERTY
Bond
SciTegic.value.DoubleValue
0.044

@<SCITEGIC>MOL_PROPERTY
Angle
SciTegic.value.DoubleValue
2.229

@<SCITEGIC>MOL_PROPERTY
Pdih
SciTegic.value.DoubleValue
12.953

@<SCITEGIC>MOL_PROPERTY
Idih
SciTegic.value.DoubleValue
0.000

@<SCITEGIC>MOL_PROPERTY
Tether
SciTegic.value.DoubleValue
0.000

@<TRIPOS>MOLECULE
guest-s20_confgen4.mol2 : confsearch ligand conformer 62
          17          16           1
SMALL
USER_CHARGES
 
@<TRIPOS>ATOM
       1    C1      21.851806   17.856631   24.320281 C.2        1 MOL1         0.6132
       2    O1      21.683668   18.422325   25.382608 O.co2      1 MOL1        -0.6749
       3    O2      22.923093   17.411456   23.958173 O.co2      1 MOL1        -0.6749
       4    C2      20.654995   17.690642   23.393083 C.3        1 MOL1        -0.1955
       5    H1      19.742247   17.738482   23.999090 H          1 MOL1         0.0733
       6    H2      20.701750   16.683561   22.962840 H          1 MOL1         0.0733
       7    C3      20.628462   18.728631   22.287362 C.2        1 MOL1        -0.1395
       8    H3      21.423461   18.640405   21.547502 H          1 MOL1         0.0816
       9    C4      19.715815   19.700237   22.191000 C.2        1 MOL1        -0.1394
      10    H4      18.922995   19.789804   22.932940 H          1 MOL1         0.0816
      11    C5      19.693250   20.736795   21.089928 C.3        1 MOL1        -0.1826
      12    H5      19.575897   21.738155   21.525864 H          1 MOL1         0.0736
      13    H6      20.647493   20.739886   20.545290 H          1 MOL1         0.0736
      14    C6      18.542259   20.469028   20.100696 C.3        1 MOL1        -0.2882
      15    H7      17.571267   20.498211   20.612312 H          1 MOL1         0.0749
      16    H8      18.530562   21.224705   19.304517 H          1 MOL1         0.0749
      17    H9      18.652506   19.482149   19.632172 H          1 MOL1         0.0749
@<TRIPOS>BOND
    1     1     2    1
    2     1     3    2
    3     1     4    1
    4     4     5    1
    5     4     6    1
    6     4     7    1
    7     7     8    1
    8     7     9    2
    9     9    10    1
   10     9    11    1
   11    11    12    1
   12    11    13    1
   13    11    14    1
   14    14    15    1
   15    14    16    1
   16    14    17    1
@<TRIPOS>SUBSTRUCTURE
       1 MOL1            1 RESIDUE      1      MOL     
@<SCITEGIC>MOL_PROPERTY
VConf Rank
SciTegic.value.IntegerValue
62

@<SCITEGIC>MOL_PROPERTY
Conf_Id
SciTegic.value.IntegerValue
35

@<SCITEGIC>MOL_PROPERTY
Delta U+W
SciTegic.value.DoubleValue
-0.102

@<SCITEGIC>MOL_PROPERTY
U+W
SciTegic.value.DoubleValue
-49.529

@<SCITEGIC>MOL_PROPERTY
Grad RMS
SciTegic.value.DoubleValue
0.000000

@<SCITEGIC>MOL_PROPERTY
U
SciTegic.value.DoubleValue
13.666

@<SCITEGIC>MOL_PROPERTY
W
SciTegic.value.DoubleValue
-63.195

@<SCITEGIC>MOL_PROPERTY
W(PB)
SciTegic.value.DoubleValue
-65.299

@<SCITEGIC>MOL_PROPERTY
W(SA)
SciTegic.value.DoubleValue
2.103

@<SCITEGIC>MOL_PROPERTY
Valence
SciTegic.value.DoubleValue
15.226

@<SCITEGIC>MOL_PROPERTY
Coulomb
SciTegic.value.DoubleValue
-1.822

@<SCITEGIC>MOL_PROPERTY
VdW
SciTegic.value.DoubleValue
0.261

@<SCITEGIC>MOL_PROPERTY
VdW6
SciTegic.value.DoubleValue
-4.165

@<SCITEGIC>MOL_PROPERTY
VdW12
SciTegic.value.DoubleValue
4.426

@<SCITEGIC>MOL_PROPERTY
Bond
SciTegic.value.DoubleValue
0.044

@<SCITEGIC>MOL_PROPERTY
Angle
SciTegic.value.DoubleValue
2.229

@<SCITEGIC>MOL_PROPERTY
Pdih
SciTegic.value.DoubleValue
12.953

@<SCITEGIC>MOL_PROPERTY
Idih
SciTegic.value.DoubleValue
0.000

@<SCITEGIC>MOL_PROPERTY
Tether
SciTegic.value.DoubleValue
0.000

@<TRIPOS>MOLECULE
guest-s20_confgen4.mol2 : confsearch ligand conformer 63
          17          16           1
SMALL
USER_CHARGES
 
@<TRIPOS>ATOM
       1    C1      21.563401   21.602900   23.002948 C.2        1 MOL1         0.6132
       2    O1      21.068948   22.542950   22.412361 O.co2      1 MOL1        -0.6749
       3    O2      21.812166   21.612293   24.192434 O.co2      1 MOL1        -0.6749
       4    C2      21.897419   20.349212   22.205205 C.3        1 MOL1        -0.1955
       5    H1      22.687342   19.804939   22.736594 H          1 MOL1         0.0733
       6    H2      22.317867   20.666306   21.243860 H          1 MOL1         0.0733
       7    C3      20.685166   19.466110   21.977219 C.2        1 MOL1        -0.1395
       8    H3      19.929236   19.892968   21.320369 H          1 MOL1         0.0816
       9    C4      20.527041   18.257027   22.530235 C.2        1 MOL1        -0.1394
      10    H4      21.303353   17.864411   23.186191 H          1 MOL1         0.0816
      11    C5      19.341547   17.324117   22.348923 C.3        1 MOL1        -0.1826
      12    H5      19.700276   16.364028   21.953893 H          1 MOL1         0.0736
      13    H6      18.913489   17.096212   23.334492 H          1 MOL1         0.0736
      14    C6      18.224044   17.861195   21.427640 C.3        1 MOL1        -0.2882
      15    H7      18.604618   18.049554   20.415174 H          1 MOL1         0.0749
      16    H8      17.406621   17.132705   21.349208 H          1 MOL1         0.0749
      17    H9      17.804331   18.796195   21.821473 H          1 MOL1         0.0749
@<TRIPOS>BOND
    1     1     2    1
    2     1     3    2
    3     1     4    1
    4     4     5    1
    5     4     6    1
    6     4     7    1
    7     7     8    1
    8     7     9    2
    9     9    10    1
   10     9    11    1
   11    11    12    1
   12    11    13    1
   13    11    14    1
   14    14    15    1
   15    14    16    1
   16    14    17    1
@<TRIPOS>SUBSTRUCTURE
       1 MOL1            1 RESIDUE      1      MOL     
@<SCITEGIC>MOL_PROPERTY
VConf Rank
SciTegic.value.IntegerValue
63

@<SCITEGIC>MOL_PROPERTY
Conf_Id
SciTegic.value.IntegerValue
19

@<SCITEGIC>MOL_PROPERTY
Delta U+W
SciTegic.value.DoubleValue
-0.496

@<SCITEGIC>MOL_PROPERTY
U+W
SciTegic.value.DoubleValue
-49.923

@<SCITEGIC>MOL_PROPERTY
Grad RMS
SciTegic.value.DoubleValue
0.000000

@<SCITEGIC>MOL_PROPERTY
U
SciTegic.value.DoubleValue
13.863

@<SCITEGIC>MOL_PROPERTY
W
SciTegic.value.DoubleValue
-63.786

@<SCITEGIC>MOL_PROPERTY
W(PB)
SciTegic.value.DoubleValue
-65.856

@<SCITEGIC>MOL_PROPERTY
W(SA)
SciTegic.value.DoubleValue
2.070

@<SCITEGIC>MOL_PROPERTY
Valence
SciTegic.value.DoubleValue
14.117

@<SCITEGIC>MOL_PROPERTY
Coulomb
SciTegic.value.DoubleValue
-1.228

@<SCITEGIC>MOL_PROPERTY
VdW
SciTegic.value.DoubleValue
0.974

@<SCITEGIC>MOL_PROPERTY
VdW6
SciTegic.value.DoubleValue
-4.885

@<SCITEGIC>MOL_PROPERTY
VdW12
SciTegic.value.DoubleValue
5.859

@<SCITEGIC>MOL_PROPERTY
Bond
SciTegic.value.DoubleValue
0.094

@<SCITEGIC>MOL_PROPERTY
Angle
SciTegic.value.DoubleValue
2.818

@<SCITEGIC>MOL_PROPERTY
Pdih
SciTegic.value.DoubleValue
11.205

@<SCITEGIC>MOL_PROPERTY
Idih
SciTegic.value.DoubleValue
0.000

@<SCITEGIC>MOL_PROPERTY
Tether
SciTegic.value.DoubleValue
0.000

@<TRIPOS>MOLECULE
guest-s20_confgen4.mol2 : confsearch ligand conformer 64
          17          16           1
SMALL
USER_CHARGES
 
@<TRIPOS>ATOM
       1    C1      22.088129   17.171602   21.067123 C.2        1 MOL1         0.6132
       2    O1      22.969874   17.908899   20.672496 O.co2      1 MOL1        -0.6749
       3    O2      22.295059   16.157319   21.703842 O.co2      1 MOL1        -0.6749
       4    C2      20.645011   17.530490   20.737823 C.3        1 MOL1        -0.1955
       5    H1      20.127939   16.607686   20.450503 H          1 MOL1         0.0733
       6    H2      20.646348   18.184942   19.857855 H          1 MOL1         0.0733
       7    C3      19.929513   18.187416   21.902844 C.2        1 MOL1        -0.1395
       8    H3      19.752100   17.542506   22.762978 H          1 MOL1         0.0816
       9    C4      19.534799   19.464198   21.918527 C.2        1 MOL1        -0.1394
      10    H4      19.717060   20.110010   21.060176 H          1 MOL1         0.0816
      11    C5      18.824084   20.118097   23.082415 C.3        1 MOL1        -0.1826
      12    H5      17.943504   20.665205   22.719409 H          1 MOL1         0.0736
      13    H6      18.455542   19.357328   23.784281 H          1 MOL1         0.0736
      14    C6      19.760647   21.088545   23.828118 C.3        1 MOL1        -0.2882
      15    H7      20.114179   21.883722   23.158690 H          1 MOL1         0.0749
      16    H8      19.240052   21.559851   24.671871 H          1 MOL1         0.0749
      17    H9      20.637737   20.558190   24.221968 H          1 MOL1         0.0749
@<TRIPOS>BOND
    1     1     2    1
    2     1     3    2
    3     1     4    1
    4     4     5    1
    5     4     6    1
    6     4     7    1
    7     7     8    1
    8     7     9    2
    9     9    10    1
   10     9    11    1
   11    11    12    1
   12    11    13    1
   13    11    14    1
   14    14    15    1
   15    14    16    1
   16    14    17    1
@<TRIPOS>SUBSTRUCTURE
       1 MOL1            1 RESIDUE      1      MOL     
@<SCITEGIC>MOL_PROPERTY
VConf Rank
SciTegic.value.IntegerValue
64

@<SCITEGIC>MOL_PROPERTY
Conf_Id
SciTegic.value.IntegerValue
7

@<SCITEGIC>MOL_PROPERTY
Delta U+W
SciTegic.value.DoubleValue
-0.041

@<SCITEGIC>MOL_PROPERTY
U+W
SciTegic.value.DoubleValue
-49.468

@<SCITEGIC>MOL_PROPERTY
Grad RMS
SciTegic.value.DoubleValue
0.000000

@<SCITEGIC>MOL_PROPERTY
U
SciTegic.value.DoubleValue
14.121

@<SCITEGIC>MOL_PROPERTY
W
SciTegic.value.DoubleValue
-63.589

@<SCITEGIC>MOL_PROPERTY
W(PB)
SciTegic.value.DoubleValue
-65.660

@<SCITEGIC>MOL_PROPERTY
W(SA)
SciTegic.value.DoubleValue
2.071

@<SCITEGIC>MOL_PROPERTY
Valence
SciTegic.value.DoubleValue
15.230

@<SCITEGIC>MOL_PROPERTY
Coulomb
SciTegic.value.DoubleValue
-1.333

@<SCITEGIC>MOL_PROPERTY
VdW
SciTegic.value.DoubleValue
0.224

@<SCITEGIC>MOL_PROPERTY
VdW6
SciTegic.value.DoubleValue
-4.212

@<SCITEGIC>MOL_PROPERTY
VdW12
SciTegic.value.DoubleValue
4.436

@<SCITEGIC>MOL_PROPERTY
Bond
SciTegic.value.DoubleValue
0.044

@<SCITEGIC>MOL_PROPERTY
Angle
SciTegic.value.DoubleValue
2.230

@<SCITEGIC>MOL_PROPERTY
Pdih
SciTegic.value.DoubleValue
12.956

@<SCITEGIC>MOL_PROPERTY
Idih
SciTegic.value.DoubleValue
0.000

@<SCITEGIC>MOL_PROPERTY
Tether
SciTegic.value.DoubleValue
0.000

@<TRIPOS>MOLECULE
guest-s20_confgen4.mol2 : confsearch ligand conformer 65
          17          16           1
SMALL
USER_CHARGES
 
@<TRIPOS>ATOM
       1    C1      17.537769   19.206085   21.315668 C.2        1 MOL1         0.6132
       2    O1      16.978049   19.922049   22.122577 O.co2      1 MOL1        -0.6749
       3    O2      17.173992   18.076158   21.054876 O.co2      1 MOL1        -0.6749
       4    C2      18.745224   19.765550   20.569594 C.3        1 MOL1        -0.1955
       5    H1      18.594678   20.844510   20.447325 H          1 MOL1         0.0733
       6    H2      18.739548   19.343872   19.557727 H          1 MOL1         0.0733
       7    C3      20.096725   19.509743   21.221426 C.2        1 MOL1        -0.1395
       8    H3      20.944768   19.917292   20.672544 H          1 MOL1         0.0816
       9    C4      20.305133   18.852225   22.368262 C.2        1 MOL1        -0.1394
      10    H4      19.474676   18.435687   22.937095 H          1 MOL1         0.0816
      11    C5      21.672221   18.623527   22.973827 C.3        1 MOL1        -0.1826
      12    H5      21.778732   17.568455   23.260182 H          1 MOL1         0.0736
      13    H6      22.459783   18.830869   22.236326 H          1 MOL1         0.0736
      14    C6      21.885519   19.515876   24.212073 C.3        1 MOL1        -0.2882
      15    H7      22.878323   19.344800   24.648115 H          1 MOL1         0.0749
      16    H8      21.808946   20.578097   23.944832 H          1 MOL1         0.0749
      17    H9      21.133320   19.302276   24.982805 H          1 MOL1         0.0749
@<TRIPOS>BOND
    1     1     2    1
    2     1     3    2
    3     1     4    1
    4     4     5    1
    5     4     6    1
    6     4     7    1
    7     7     8    1
    8     7     9    2
    9     9    10    1
   10     9    11    1
   11    11    12    1
   12    11    13    1
   13    11    14    1
   14    14    15    1
   15    14    16    1
   16    14    17    1
@<TRIPOS>SUBSTRUCTURE
       1 MOL1            1 RESIDUE      1      MOL     
@<SCITEGIC>MOL_PROPERTY
VConf Rank
SciTegic.value.IntegerValue
65

@<SCITEGIC>MOL_PROPERTY
Conf_Id
SciTegic.value.IntegerValue
39

@<SCITEGIC>MOL_PROPERTY
Delta U+W
SciTegic.value.DoubleValue
-0.422

@<SCITEGIC>MOL_PROPERTY
U+W
SciTegic.value.DoubleValue
-49.849

@<SCITEGIC>MOL_PROPERTY
Grad RMS
SciTegic.value.DoubleValue
0.000000

@<SCITEGIC>MOL_PROPERTY
U
SciTegic.value.DoubleValue
14.465

@<SCITEGIC>MOL_PROPERTY
W
SciTegic.value.DoubleValue
-64.314

@<SCITEGIC>MOL_PROPERTY
W(PB)
SciTegic.value.DoubleValue
-66.406

@<SCITEGIC>MOL_PROPERTY
W(SA)
SciTegic.value.DoubleValue
2.093

@<SCITEGIC>MOL_PROPERTY
Valence
SciTegic.value.DoubleValue
14.072

@<SCITEGIC>MOL_PROPERTY
Coulomb
SciTegic.value.DoubleValue
-0.199

@<SCITEGIC>MOL_PROPERTY
VdW
SciTegic.value.DoubleValue
0.592

@<SCITEGIC>MOL_PROPERTY
VdW6
SciTegic.value.DoubleValue
-5.019

@<SCITEGIC>MOL_PROPERTY
VdW12
SciTegic.value.DoubleValue
5.611

@<SCITEGIC>MOL_PROPERTY
Bond
SciTegic.value.DoubleValue
0.085

@<SCITEGIC>MOL_PROPERTY
Angle
SciTegic.value.DoubleValue
2.748

@<SCITEGIC>MOL_PROPERTY
Pdih
SciTegic.value.DoubleValue
11.238

@<SCITEGIC>MOL_PROPERTY
Idih
SciTegic.value.DoubleValue
0.001

@<SCITEGIC>MOL_PROPERTY
Tether
SciTegic.value.DoubleValue
0.000

@<TRIPOS>MOLECULE
guest-s20_confgen4.mol2 : confsearch ligand conformer 66
          17          16           1
SMALL
USER_CHARGES
 
@<TRIPOS>ATOM
       1    C1      18.836839   16.588713   21.014843 C.2        1 MOL1         0.6132
       2    O1      17.807306   16.695339   20.377933 O.co2      1 MOL1        -0.6749
       3    O2      19.042699   15.697617   21.815085 O.co2      1 MOL1        -0.6749
       4    C2      19.929317   17.626333   20.792485 C.3        1 MOL1        -0.1955
       5    H1      19.980212   17.833999   19.717407 H          1 MOL1         0.0733
       6    H2      20.889428   17.180435   21.078844 H          1 MOL1         0.0733
       7    C3      19.675821   18.910167   21.559463 C.2        1 MOL1        -0.1395
       8    H3      18.821640   19.494525   21.218726 H          1 MOL1         0.0816
       9    C4      20.419958   19.330698   22.586907 C.2        1 MOL1        -0.1394
      10    H4      21.272167   18.744386   22.929014 H          1 MOL1         0.0816
      11    C5      20.163419   20.609262   23.352925 C.3        1 MOL1        -0.1826
      12    H5      19.161989   20.999616   23.124925 H          1 MOL1         0.0736
      13    H6      20.184057   20.405346   24.432057 H          1 MOL1         0.0736
      14    C6      21.218004   21.680151   23.012177 C.3        1 MOL1        -0.2882
      15    H7      21.198473   21.919533   21.940769 H          1 MOL1         0.0749
      16    H8      21.027028   22.605261   23.571449 H          1 MOL1         0.0749
      17    H9      22.227355   21.330728   23.266232 H          1 MOL1         0.0749
@<TRIPOS>BOND
    1     1     2    1
    2     1     3    2
    3     1     4    1
    4     4     5    1
    5     4     6    1
    6     4     7    1
    7     7     8    1
    8     7     9    2
    9     9    10    1
   10     9    11    1
   11    11    12    1
   12    11    13    1
   13    11    14    1
   14    14    15    1
   15    14    16    1
   16    14    17    1
@<TRIPOS>SUBSTRUCTURE
       1 MOL1            1 RESIDUE      1      MOL     
@<SCITEGIC>MOL_PROPERTY
VConf Rank
SciTegic.value.IntegerValue
66

@<SCITEGIC>MOL_PROPERTY
Conf_Id
SciTegic.value.IntegerValue
38

@<SCITEGIC>MOL_PROPERTY
Delta U+W
SciTegic.value.DoubleValue
0.000

@<SCITEGIC>MOL_PROPERTY
U+W
SciTegic.value.DoubleValue
-49.427

@<SCITEGIC>MOL_PROPERTY
Grad RMS
SciTegic.value.DoubleValue
0.000000

@<SCITEGIC>MOL_PROPERTY
U
SciTegic.value.DoubleValue
13.666

@<SCITEGIC>MOL_PROPERTY
W
SciTegic.value.DoubleValue
-63.093

@<SCITEGIC>MOL_PROPERTY
W(PB)
SciTegic.value.DoubleValue
-65.225

@<SCITEGIC>MOL_PROPERTY
W(SA)
SciTegic.value.DoubleValue
2.132

@<SCITEGIC>MOL_PROPERTY
Valence
SciTegic.value.DoubleValue
15.226

@<SCITEGIC>MOL_PROPERTY
Coulomb
SciTegic.value.DoubleValue
-1.822

@<SCITEGIC>MOL_PROPERTY
VdW
SciTegic.value.DoubleValue
0.261

@<SCITEGIC>MOL_PROPERTY
VdW6
SciTegic.value.DoubleValue
-4.165

@<SCITEGIC>MOL_PROPERTY
VdW12
SciTegic.value.DoubleValue
4.426

@<SCITEGIC>MOL_PROPERTY
Bond
SciTegic.value.DoubleValue
0.044

@<SCITEGIC>MOL_PROPERTY
Angle
SciTegic.value.DoubleValue
2.229

@<SCITEGIC>MOL_PROPERTY
Pdih
SciTegic.value.DoubleValue
12.953

@<SCITEGIC>MOL_PROPERTY
Idih
SciTegic.value.DoubleValue
0.000

@<SCITEGIC>MOL_PROPERTY
Tether
SciTegic.value.DoubleValue
0.000

@<TRIPOS>MOLECULE
guest-s20_confgen4.mol2 : confsearch ligand conformer 67
          17          16           1
SMALL
USER_CHARGES
 
@<TRIPOS>ATOM
       1    C1      22.482954   19.224941   20.038819 C.2        1 MOL1         0.6132
       2    O1      22.051351   19.446496   18.924615 O.co2      1 MOL1        -0.6749
       3    O2      23.382516   18.440368   20.267281 O.co2      1 MOL1        -0.6749
       4    C2      21.868180   19.974224   21.213652 C.3        1 MOL1        -0.1955
       5    H1      21.415772   20.897726   20.832716 H          1 MOL1         0.0733
       6    H2      22.682329   20.269513   21.885570 H          1 MOL1         0.0733
       7    C3      20.849070   19.139605   21.965695 C.2        1 MOL1        -0.1395
       8    H3      21.255842   18.287082   22.508779 H          1 MOL1         0.0816
       9    C4      19.537184   19.394160   21.985349 C.2        1 MOL1        -0.1394
      10    H4      19.130710   20.244958   21.439471 H          1 MOL1         0.0816
      11    C5      18.521963   18.558514   22.732573 C.3        1 MOL1        -0.1826
      12    H5      17.675611   18.325482   22.072333 H          1 MOL1         0.0736
      13    H6      18.961510   17.597357   23.032896 H          1 MOL1         0.0736
      14    C6      18.009115   19.297933   23.983696 C.3        1 MOL1        -0.2882
      15    H7      17.529547   20.246597   23.708964 H          1 MOL1         0.0749
      16    H8      17.272339   18.687003   24.521295 H          1 MOL1         0.0749
      17    H9      18.835532   19.519145   24.671955 H          1 MOL1         0.0749
@<TRIPOS>BOND
    1     1     2    1
    2     1     3    2
    3     1     4    1
    4     4     5    1
    5     4     6    1
    6     4     7    1
    7     7     8    1
    8     7     9    2
    9     9    10    1
   10     9    11    1
   11    11    12    1
   12    11    13    1
   13    11    14    1
   14    14    15    1
   15    14    16    1
   16    14    17    1
@<TRIPOS>SUBSTRUCTURE
       1 MOL1            1 RESIDUE      1      MOL     
@<SCITEGIC>MOL_PROPERTY
VConf Rank
SciTegic.value.IntegerValue
67

@<SCITEGIC>MOL_PROPERTY
Conf_Id
SciTegic.value.IntegerValue
35

@<SCITEGIC>MOL_PROPERTY
Delta U+W
SciTegic.value.DoubleValue
-0.102

@<SCITEGIC>MOL_PROPERTY
U+W
SciTegic.value.DoubleValue
-49.529

@<SCITEGIC>MOL_PROPERTY
Grad RMS
SciTegic.value.DoubleValue
0.000000

@<SCITEGIC>MOL_PROPERTY
U
SciTegic.value.DoubleValue
13.666

@<SCITEGIC>MOL_PROPERTY
W
SciTegic.value.DoubleValue
-63.195

@<SCITEGIC>MOL_PROPERTY
W(PB)
SciTegic.value.DoubleValue
-65.299

@<SCITEGIC>MOL_PROPERTY
W(SA)
SciTegic.value.DoubleValue
2.103

@<SCITEGIC>MOL_PROPERTY
Valence
SciTegic.value.DoubleValue
15.226

@<SCITEGIC>MOL_PROPERTY
Coulomb
SciTegic.value.DoubleValue
-1.822

@<SCITEGIC>MOL_PROPERTY
VdW
SciTegic.value.DoubleValue
0.261

@<SCITEGIC>MOL_PROPERTY
VdW6
SciTegic.value.DoubleValue
-4.165

@<SCITEGIC>MOL_PROPERTY
VdW12
SciTegic.value.DoubleValue
4.426

@<SCITEGIC>MOL_PROPERTY
Bond
SciTegic.value.DoubleValue
0.044

@<SCITEGIC>MOL_PROPERTY
Angle
SciTegic.value.DoubleValue
2.229

@<SCITEGIC>MOL_PROPERTY
Pdih
SciTegic.value.DoubleValue
12.953

@<SCITEGIC>MOL_PROPERTY
Idih
SciTegic.value.DoubleValue
0.000

@<SCITEGIC>MOL_PROPERTY
Tether
SciTegic.value.DoubleValue
0.000

@<TRIPOS>MOLECULE
guest-s20_confgen4.mol2 : confsearch ligand conformer 68
          17          16           1
SMALL
USER_CHARGES
 
@<TRIPOS>ATOM
       1    C1      22.433141   20.438500   20.780047 C.2        1 MOL1         0.6132
       2    O1      22.004777   21.010869   19.797261 O.co2      1 MOL1        -0.6749
       3    O2      23.223086   20.937330   21.557223 O.co2      1 MOL1        -0.6749
       4    C2      21.960211   19.015200   21.045091 C.3        1 MOL1        -0.1955
       5    H1      22.715970   18.511581   21.659731 H          1 MOL1         0.0733
       6    H2      21.926520   18.489232   20.083981 H          1 MOL1         0.0733
       7    C3      20.597776   18.970717   21.710822 C.2        1 MOL1        -0.1395
       8    H3      19.775115   19.312818   21.085293 H          1 MOL1         0.0816
       9    C4      20.393273   18.554646   22.966917 C.2        1 MOL1        -0.1394
      10    H4      21.242059   18.223522   23.564414 H          1 MOL1         0.0816
      11    C5      19.061527   18.487644   23.695308 C.3        1 MOL1        -0.1826
      12    H5      18.889854   17.455865   24.030667 H          1 MOL1         0.0736
      13    H6      19.126249   19.088992   24.612211 H          1 MOL1         0.0736
      14    C6      17.842925   18.957979   22.870795 C.3        1 MOL1        -0.2882
      15    H7      17.714627   18.342168   21.970951 H          1 MOL1         0.0749
      16    H8      16.923149   18.880438   23.464958 H          1 MOL1         0.0749
      17    H9      17.956603   20.005619   22.562547 H          1 MOL1         0.0749
@<TRIPOS>BOND
    1     1     2    1
    2     1     3    2
    3     1     4    1
    4     4     5    1
    5     4     6    1
    6     4     7    1
    7     7     8    1
    8     7     9    2
    9     9    10    1
   10     9    11    1
   11    11    12    1
   12    11    13    1
   13    11    14    1
   14    14    15    1
   15    14    16    1
   16    14    17    1
@<TRIPOS>SUBSTRUCTURE
       1 MOL1            1 RESIDUE      1      MOL     
@<SCITEGIC>MOL_PROPERTY
VConf Rank
SciTegic.value.IntegerValue
68

@<SCITEGIC>MOL_PROPERTY
Conf_Id
SciTegic.value.IntegerValue
19

@<SCITEGIC>MOL_PROPERTY
Delta U+W
SciTegic.value.DoubleValue
-0.496

@<SCITEGIC>MOL_PROPERTY
U+W
SciTegic.value.DoubleValue
-49.923

@<SCITEGIC>MOL_PROPERTY
Grad RMS
SciTegic.value.DoubleValue
0.000000

@<SCITEGIC>MOL_PROPERTY
U
SciTegic.value.DoubleValue
13.863

@<SCITEGIC>MOL_PROPERTY
W
SciTegic.value.DoubleValue
-63.786

@<SCITEGIC>MOL_PROPERTY
W(PB)
SciTegic.value.DoubleValue
-65.856

@<SCITEGIC>MOL_PROPERTY
W(SA)
SciTegic.value.DoubleValue
2.070

@<SCITEGIC>MOL_PROPERTY
Valence
SciTegic.value.DoubleValue
14.117

@<SCITEGIC>MOL_PROPERTY
Coulomb
SciTegic.value.DoubleValue
-1.228

@<SCITEGIC>MOL_PROPERTY
VdW
SciTegic.value.DoubleValue
0.974

@<SCITEGIC>MOL_PROPERTY
VdW6
SciTegic.value.DoubleValue
-4.885

@<SCITEGIC>MOL_PROPERTY
VdW12
SciTegic.value.DoubleValue
5.859

@<SCITEGIC>MOL_PROPERTY
Bond
SciTegic.value.DoubleValue
0.094

@<SCITEGIC>MOL_PROPERTY
Angle
SciTegic.value.DoubleValue
2.818

@<SCITEGIC>MOL_PROPERTY
Pdih
SciTegic.value.DoubleValue
11.205

@<SCITEGIC>MOL_PROPERTY
Idih
SciTegic.value.DoubleValue
0.000

@<SCITEGIC>MOL_PROPERTY
Tether
SciTegic.value.DoubleValue
0.000

@<TRIPOS>MOLECULE
guest-s20_confgen4.mol2 : confsearch ligand conformer 69
          17          16           1
SMALL
USER_CHARGES
 
@<TRIPOS>ATOM
       1    C1      20.351222   21.171886   20.176862 C.2        1 MOL1         0.6132
       2    O1      20.728880   20.554402   19.200696 O.co2      1 MOL1        -0.6749
       3    O2      19.447292   21.983796   20.150142 O.co2      1 MOL1        -0.6749
       4    C2      21.054632   20.924332   21.504928 C.3        1 MOL1        -0.1955
       5    H1      21.197187   21.894851   21.994066 H          1 MOL1         0.0733
       6    H2      22.052611   20.521175   21.294793 H          1 MOL1         0.0733
       7    C3      20.272278   19.993769   22.411977 C.2        1 MOL1        -0.1395
       8    H3      19.332147   20.394501   22.789846 H          1 MOL1         0.0816
       9    C4      20.666752   18.760526   22.743214 C.2        1 MOL1        -0.1394
      10    H4      21.604420   18.358415   22.360926 H          1 MOL1         0.0816
      11    C5      19.883695   17.833137   23.645492 C.3        1 MOL1        -0.1826
      12    H5      20.549939   17.407396   24.407980 H          1 MOL1         0.0736
      13    H6      19.103100   18.388656   24.183338 H          1 MOL1         0.0736
      14    C6      19.233274   16.693560   22.837218 C.3        1 MOL1        -0.2882
      15    H7      19.995192   16.096524   22.319092 H          1 MOL1         0.0749
      16    H8      18.666020   16.023944   23.496691 H          1 MOL1         0.0749
      17    H9      18.542935   17.095138   22.083661 H          1 MOL1         0.0749
@<TRIPOS>BOND
    1     1     2    1
    2     1     3    2
    3     1     4    1
    4     4     5    1
    5     4     6    1
    6     4     7    1
    7     7     8    1
    8     7     9    2
    9     9    10    1
   10     9    11    1
   11    11    12    1
   12    11    13    1
   13    11    14    1
   14    14    15    1
   15    14    16    1
   16    14    17    1
@<TRIPOS>SUBSTRUCTURE
       1 MOL1            1 RESIDUE      1      MOL     
@<SCITEGIC>MOL_PROPERTY
VConf Rank
SciTegic.value.IntegerValue
69

@<SCITEGIC>MOL_PROPERTY
Conf_Id
SciTegic.value.IntegerValue
7

@<SCITEGIC>MOL_PROPERTY
Delta U+W
SciTegic.value.DoubleValue
-0.041

@<SCITEGIC>MOL_PROPERTY
U+W
SciTegic.value.DoubleValue
-49.468

@<SCITEGIC>MOL_PROPERTY
Grad RMS
SciTegic.value.DoubleValue
0.000000

@<SCITEGIC>MOL_PROPERTY
U
SciTegic.value.DoubleValue
14.121

@<SCITEGIC>MOL_PROPERTY
W
SciTegic.value.DoubleValue
-63.589

@<SCITEGIC>MOL_PROPERTY
W(PB)
SciTegic.value.DoubleValue
-65.660

@<SCITEGIC>MOL_PROPERTY
W(SA)
SciTegic.value.DoubleValue
2.071

@<SCITEGIC>MOL_PROPERTY
Valence
SciTegic.value.DoubleValue
15.230

@<SCITEGIC>MOL_PROPERTY
Coulomb
SciTegic.value.DoubleValue
-1.333

@<SCITEGIC>MOL_PROPERTY
VdW
SciTegic.value.DoubleValue
0.224

@<SCITEGIC>MOL_PROPERTY
VdW6
SciTegic.value.DoubleValue
-4.212

@<SCITEGIC>MOL_PROPERTY
VdW12
SciTegic.value.DoubleValue
4.436

@<SCITEGIC>MOL_PROPERTY
Bond
SciTegic.value.DoubleValue
0.044

@<SCITEGIC>MOL_PROPERTY
Angle
SciTegic.value.DoubleValue
2.230

@<SCITEGIC>MOL_PROPERTY
Pdih
SciTegic.value.DoubleValue
12.956

@<SCITEGIC>MOL_PROPERTY
Idih
SciTegic.value.DoubleValue
0.000

@<SCITEGIC>MOL_PROPERTY
Tether
SciTegic.value.DoubleValue
0.000

@<TRIPOS>MOLECULE
guest-s20_confgen4.mol2 : confsearch ligand conformer 70
          17          16           1
SMALL
USER_CHARGES
 
@<TRIPOS>ATOM
       1    C1      17.719938   20.433356   22.953351 C.2        1 MOL1         0.6132
       2    O1      17.362119   20.874569   21.878972 O.co2      1 MOL1        -0.6749
       3    O2      17.806532   21.107674   23.960763 O.co2      1 MOL1        -0.6749
       4    C2      18.051525   18.947274   23.049190 C.3        1 MOL1        -0.1955
       5    H1      17.411119   18.413226   22.337543 H          1 MOL1         0.0733
       6    H2      17.751125   18.599800   24.044550 H          1 MOL1         0.0733
       7    C3      19.507716   18.581500   22.799002 C.2        1 MOL1        -0.1395
       8    H3      19.722506   17.516125   22.872405 H          1 MOL1         0.0816
       9    C4      20.494680   19.436847   22.506974 C.2        1 MOL1        -0.1394
      10    H4      20.306712   20.506875   22.426718 H          1 MOL1         0.0816
      11    C5      21.929216   19.020878   22.268189 C.3        1 MOL1        -0.1826
      12    H5      22.603095   19.663253   22.851079 H          1 MOL1         0.0736
      13    H6      22.095045   17.992127   22.616509 H          1 MOL1         0.0736
      14    C6      22.292280   19.117899   20.773597 C.3        1 MOL1        -0.2882
      15    H7      23.334462   18.816309   20.606385 H          1 MOL1         0.0749
      16    H8      21.647322   18.463386   20.172568 H          1 MOL1         0.0749
      17    H9      22.172015   20.145974   20.407460 H          1 MOL1         0.0749
@<TRIPOS>BOND
    1     1     2    1
    2     1     3    2
    3     1     4    1
    4     4     5    1
    5     4     6    1
    6     4     7    1
    7     7     8    1
    8     7     9    2
    9     9    10    1
   10     9    11    1
   11    11    12    1
   12    11    13    1
   13    11    14    1
   14    14    15    1
   15    14    16    1
   16    14    17    1
@<TRIPOS>SUBSTRUCTURE
       1 MOL1            1 RESIDUE      1      MOL     
@<SCITEGIC>MOL_PROPERTY
VConf Rank
SciTegic.value.IntegerValue
70

@<SCITEGIC>MOL_PROPERTY
Conf_Id
SciTegic.value.IntegerValue
39

@<SCITEGIC>MOL_PROPERTY
Delta U+W
SciTegic.value.DoubleValue
-0.422

@<SCITEGIC>MOL_PROPERTY
U+W
SciTegic.value.DoubleValue
-49.849

@<SCITEGIC>MOL_PROPERTY
Grad RMS
SciTegic.value.DoubleValue
0.000000

@<SCITEGIC>MOL_PROPERTY
U
SciTegic.value.DoubleValue
14.465

@<SCITEGIC>MOL_PROPERTY
W
SciTegic.value.DoubleValue
-64.314

@<SCITEGIC>MOL_PROPERTY
W(PB)
SciTegic.value.DoubleValue
-66.406

@<SCITEGIC>MOL_PROPERTY
W(SA)
SciTegic.value.DoubleValue
2.093

@<SCITEGIC>MOL_PROPERTY
Valence
SciTegic.value.DoubleValue
14.072

@<SCITEGIC>MOL_PROPERTY
Coulomb
SciTegic.value.DoubleValue
-0.199

@<SCITEGIC>MOL_PROPERTY
VdW
SciTegic.value.DoubleValue
0.592

@<SCITEGIC>MOL_PROPERTY
VdW6
SciTegic.value.DoubleValue
-5.019

@<SCITEGIC>MOL_PROPERTY
VdW12
SciTegic.value.DoubleValue
5.611

@<SCITEGIC>MOL_PROPERTY
Bond
SciTegic.value.DoubleValue
0.085

@<SCITEGIC>MOL_PROPERTY
Angle
SciTegic.value.DoubleValue
2.748

@<SCITEGIC>MOL_PROPERTY
Pdih
SciTegic.value.DoubleValue
11.238

@<SCITEGIC>MOL_PROPERTY
Idih
SciTegic.value.DoubleValue
0.001

@<SCITEGIC>MOL_PROPERTY
Tether
SciTegic.value.DoubleValue
0.000

@<TRIPOS>MOLECULE
guest-s20_confgen4.mol2 : confsearch ligand conformer 71
          17          16           1
SMALL
USER_CHARGES
 
@<TRIPOS>ATOM
       1    C1      22.922124   17.856808   22.416379 C.2        1 MOL1         0.6132
       2    O1      23.424744   17.418958   21.400200 O.co2      1 MOL1        -0.6749
       3    O2      22.961979   17.283089   23.486929 O.co2      1 MOL1        -0.6749
       4    C2      22.208626   19.200371   22.343148 C.3        1 MOL1        -0.1955
       5    H1      22.808511   19.864106   21.709822 H          1 MOL1         0.0733
       6    H2      22.198639   19.638784   23.348302 H          1 MOL1         0.0733
       7    C3      20.802124   19.081617   21.787815 C.2        1 MOL1        -0.1395
       8    H3      20.739294   18.804058   20.736048 H          1 MOL1         0.0816
       9    C4      19.692287   19.290991   22.502414 C.2        1 MOL1        -0.1394
      10    H4      19.755783   19.565602   23.554849 H          1 MOL1         0.0816
      11    C5      18.290550   19.168429   21.947948 C.3        1 MOL1        -0.1826
      12    H5      18.304022   18.647771   20.980500 H          1 MOL1         0.0736
      13    H6      17.676031   18.559695   22.624959 H          1 MOL1         0.0736
      14    C6      17.641374   20.555022   21.771907 C.3        1 MOL1        -0.2882
      15    H7      18.225421   21.173656   21.077800 H          1 MOL1         0.0749
      16    H8      16.624316   20.459614   21.369940 H          1 MOL1         0.0749
      17    H9      17.579888   21.083538   22.732282 H          1 MOL1         0.0749
@<TRIPOS>BOND
    1     1     2    1
    2     1     3    2
    3     1     4    1
    4     4     5    1
    5     4     6    1
    6     4     7    1
    7     7     8    1
    8     7     9    2
    9     9    10    1
   10     9    11    1
   11    11    12    1
   12    11    13    1
   13    11    14    1
   14    14    15    1
   15    14    16    1
   16    14    17    1
@<TRIPOS>SUBSTRUCTURE
       1 MOL1            1 RESIDUE      1      MOL     
@<SCITEGIC>MOL_PROPERTY
VConf Rank
SciTegic.value.IntegerValue
71

@<SCITEGIC>MOL_PROPERTY
Conf_Id
SciTegic.value.IntegerValue
38

@<SCITEGIC>MOL_PROPERTY
Delta U+W
SciTegic.value.DoubleValue
0.000

@<SCITEGIC>MOL_PROPERTY
U+W
SciTegic.value.DoubleValue
-49.427

@<SCITEGIC>MOL_PROPERTY
Grad RMS
SciTegic.value.DoubleValue
0.000000

@<SCITEGIC>MOL_PROPERTY
U
SciTegic.value.DoubleValue
13.666

@<SCITEGIC>MOL_PROPERTY
W
SciTegic.value.DoubleValue
-63.093

@<SCITEGIC>MOL_PROPERTY
W(PB)
SciTegic.value.DoubleValue
-65.225

@<SCITEGIC>MOL_PROPERTY
W(SA)
SciTegic.value.DoubleValue
2.132

@<SCITEGIC>MOL_PROPERTY
Valence
SciTegic.value.DoubleValue
15.226

@<SCITEGIC>MOL_PROPERTY
Coulomb
SciTegic.value.DoubleValue
-1.822

@<SCITEGIC>MOL_PROPERTY
VdW
SciTegic.value.DoubleValue
0.261

@<SCITEGIC>MOL_PROPERTY
VdW6
SciTegic.value.DoubleValue
-4.165

@<SCITEGIC>MOL_PROPERTY
VdW12
SciTegic.value.DoubleValue
4.426

@<SCITEGIC>MOL_PROPERTY
Bond
SciTegic.value.DoubleValue
0.044

@<SCITEGIC>MOL_PROPERTY
Angle
SciTegic.value.DoubleValue
2.229

@<SCITEGIC>MOL_PROPERTY
Pdih
SciTegic.value.DoubleValue
12.953

@<SCITEGIC>MOL_PROPERTY
Idih
SciTegic.value.DoubleValue
0.000

@<SCITEGIC>MOL_PROPERTY
Tether
SciTegic.value.DoubleValue
0.000

@<TRIPOS>MOLECULE
guest-s20_confgen4.mol2 : confsearch ligand conformer 72
          17          16           1
SMALL
USER_CHARGES
 
@<TRIPOS>ATOM
       1    C1      18.942772   17.285844   24.291797 C.2        1 MOL1         0.6132
       2    O1      18.633717   16.239252   23.757055 O.co2      1 MOL1        -0.6749
       3    O2      18.312697   17.787045   25.202161 O.co2      1 MOL1        -0.6749
       4    C2      20.190307   18.007574   23.799489 C.3        1 MOL1        -0.1955
       5    H1      20.846512   17.270787   23.320763 H          1 MOL1         0.0733
       6    H2      20.724228   18.390092   24.677052 H          1 MOL1         0.0733
       7    C3      19.866559   19.145324   22.850038 C.2        1 MOL1        -0.1395
       8    H3      19.351911   19.994010   23.299561 H          1 MOL1         0.0816
       9    C4      20.169938   19.146805   21.548429 C.2        1 MOL1        -0.1394
      10    H4      20.681730   18.296469   21.098919 H          1 MOL1         0.0816
      11    C5      19.842798   20.280510   20.602377 C.3        1 MOL1        -0.1826
      12    H5      19.370875   19.881179   19.694436 H          1 MOL1         0.0736
      13    H6      19.116036   20.965651   21.060219 H          1 MOL1         0.0736
      14    C6      21.112286   21.065560   20.218767 C.3        1 MOL1        -0.2882
      15    H7      21.842306   20.411994   19.723440 H          1 MOL1         0.0749
      16    H8      20.868719   21.886352   19.531699 H          1 MOL1         0.0749
      17    H9      21.588133   21.496658   21.109454 H          1 MOL1         0.0749
@<TRIPOS>BOND
    1     1     2    1
    2     1     3    2
    3     1     4    1
    4     4     5    1
    5     4     6    1
    6     4     7    1
    7     7     8    1
    8     7     9    2
    9     9    10    1
   10     9    11    1
   11    11    12    1
   12    11    13    1
   13    11    14    1
   14    14    15    1
   15    14    16    1
   16    14    17    1
@<TRIPOS>SUBSTRUCTURE
       1 MOL1            1 RESIDUE      1      MOL     
@<SCITEGIC>MOL_PROPERTY
VConf Rank
SciTegic.value.IntegerValue
72

@<SCITEGIC>MOL_PROPERTY
Conf_Id
SciTegic.value.IntegerValue
35

@<SCITEGIC>MOL_PROPERTY
Delta U+W
SciTegic.value.DoubleValue
-0.102

@<SCITEGIC>MOL_PROPERTY
U+W
SciTegic.value.DoubleValue
-49.529

@<SCITEGIC>MOL_PROPERTY
Grad RMS
SciTegic.value.DoubleValue
0.000000

@<SCITEGIC>MOL_PROPERTY
U
SciTegic.value.DoubleValue
13.666

@<SCITEGIC>MOL_PROPERTY
W
SciTegic.value.DoubleValue
-63.195

@<SCITEGIC>MOL_PROPERTY
W(PB)
SciTegic.value.DoubleValue
-65.299

@<SCITEGIC>MOL_PROPERTY
W(SA)
SciTegic.value.DoubleValue
2.103

@<SCITEGIC>MOL_PROPERTY
Valence
SciTegic.value.DoubleValue
15.226

@<SCITEGIC>MOL_PROPERTY
Coulomb
SciTegic.value.DoubleValue
-1.822

@<SCITEGIC>MOL_PROPERTY
VdW
SciTegic.value.DoubleValue
0.261

@<SCITEGIC>MOL_PROPERTY
VdW6
SciTegic.value.DoubleValue
-4.165

@<SCITEGIC>MOL_PROPERTY
VdW12
SciTegic.value.DoubleValue
4.426

@<SCITEGIC>MOL_PROPERTY
Bond
SciTegic.value.DoubleValue
0.044

@<SCITEGIC>MOL_PROPERTY
Angle
SciTegic.value.DoubleValue
2.229

@<SCITEGIC>MOL_PROPERTY
Pdih
SciTegic.value.DoubleValue
12.953

@<SCITEGIC>MOL_PROPERTY
Idih
SciTegic.value.DoubleValue
0.000

@<SCITEGIC>MOL_PROPERTY
Tether
SciTegic.value.DoubleValue
0.000

@<TRIPOS>MOLECULE
guest-s20_confgen4.mol2 : confsearch ligand conformer 73
          17          16           1
SMALL
USER_CHARGES
 
@<TRIPOS>ATOM
       1    C1      22.963344   18.907364   21.127089 C.2        1 MOL1         0.6132
       2    O1      23.757250   19.339861   21.939265 O.co2      1 MOL1        -0.6749
       3    O2      23.127076   17.871446   20.513155 O.co2      1 MOL1        -0.6749
       4    C2      21.699561   19.713882   20.858624 C.3        1 MOL1        -0.1955
       5    H1      21.332735   19.453735   19.858451 H          1 MOL1         0.0733
       6    H2      21.978155   20.773688   20.832039 H          1 MOL1         0.0733
       7    C3      20.629609   19.483147   21.909039 C.2        1 MOL1        -0.1395
       8    H3      20.873442   19.867504   22.897930 H          1 MOL1         0.0816
       9    C4      19.471257   18.855529   21.670235 C.2        1 MOL1        -0.1394
      10    H4      19.264032   18.480370   20.668537 H          1 MOL1         0.0816
      11    C5      18.360849   18.587587   22.672129 C.3        1 MOL1        -0.1826
      12    H5      17.429564   19.036475   22.301031 H          1 MOL1         0.0736
      13    H6      18.171312   17.506429   22.713280 H          1 MOL1         0.0736
      14    C6      18.633778   19.104753   24.101841 C.3        1 MOL1        -0.2882
      15    H7      18.774748   20.193562   24.106786 H          1 MOL1         0.0749
      16    H8      17.788868   18.872334   24.763005 H          1 MOL1         0.0749
      17    H9      19.531286   18.635454   24.525784 H          1 MOL1         0.0749
@<TRIPOS>BOND
    1     1     2    1
    2     1     3    2
    3     1     4    1
    4     4     5    1
    5     4     6    1
    6     4     7    1
    7     7     8    1
    8     7     9    2
    9     9    10    1
   10     9    11    1
   11    11    12    1
   12    11    13    1
   13    11    14    1
   14    14    15    1
   15    14    16    1
   16    14    17    1
@<TRIPOS>SUBSTRUCTURE
       1 MOL1            1 RESIDUE      1      MOL     
@<SCITEGIC>MOL_PROPERTY
VConf Rank
SciTegic.value.IntegerValue
73

@<SCITEGIC>MOL_PROPERTY
Conf_Id
SciTegic.value.IntegerValue
19

@<SCITEGIC>MOL_PROPERTY
Delta U+W
SciTegic.value.DoubleValue
-0.496

@<SCITEGIC>MOL_PROPERTY
U+W
SciTegic.value.DoubleValue
-49.923

@<SCITEGIC>MOL_PROPERTY
Grad RMS
SciTegic.value.DoubleValue
0.000000

@<SCITEGIC>MOL_PROPERTY
U
SciTegic.value.DoubleValue
13.863

@<SCITEGIC>MOL_PROPERTY
W
SciTegic.value.DoubleValue
-63.786

@<SCITEGIC>MOL_PROPERTY
W(PB)
SciTegic.value.DoubleValue
-65.856

@<SCITEGIC>MOL_PROPERTY
W(SA)
SciTegic.value.DoubleValue
2.070

@<SCITEGIC>MOL_PROPERTY
Valence
SciTegic.value.DoubleValue
14.117

@<SCITEGIC>MOL_PROPERTY
Coulomb
SciTegic.value.DoubleValue
-1.228

@<SCITEGIC>MOL_PROPERTY
VdW
SciTegic.value.DoubleValue
0.974

@<SCITEGIC>MOL_PROPERTY
VdW6
SciTegic.value.DoubleValue
-4.885

@<SCITEGIC>MOL_PROPERTY
VdW12
SciTegic.value.DoubleValue
5.859

@<SCITEGIC>MOL_PROPERTY
Bond
SciTegic.value.DoubleValue
0.094

@<SCITEGIC>MOL_PROPERTY
Angle
SciTegic.value.DoubleValue
2.818

@<SCITEGIC>MOL_PROPERTY
Pdih
SciTegic.value.DoubleValue
11.205

@<SCITEGIC>MOL_PROPERTY
Idih
SciTegic.value.DoubleValue
0.000

@<SCITEGIC>MOL_PROPERTY
Tether
SciTegic.value.DoubleValue
0.000

@<TRIPOS>MOLECULE
guest-s20_confgen4.mol2 : confsearch ligand conformer 74
          17          16           1
SMALL
USER_CHARGES
 
@<TRIPOS>ATOM
       1    C1      21.677010   20.760441   20.358393 C.2        1 MOL1         0.6132
       2    O1      22.808598   20.667206   20.791554 O.co2      1 MOL1        -0.6749
       3    O2      21.398227   20.659934   19.179758 O.co2      1 MOL1        -0.6749
       4    C2      20.546355   21.028509   21.343069 C.3        1 MOL1        -0.1955
       5    H1      19.876731   21.768778   20.890200 H          1 MOL1         0.0733
       6    H2      20.975169   21.490257   22.240600 H          1 MOL1         0.0733
       7    C3      19.772420   19.772302   21.694826 C.2        1 MOL1        -0.1395
       8    H3      19.190140   19.341600   20.880786 H          1 MOL1         0.0816
       9    C4      19.782120   19.197069   22.901155 C.2        1 MOL1        -0.1394
      10    H4      20.368639   19.625284   23.713365 H          1 MOL1         0.0816
      11    C5      19.011984   17.942789   23.249016 C.3        1 MOL1        -0.1826
      12    H5      18.461963   18.093516   24.187781 H          1 MOL1         0.0736
      13    H6      18.262425   17.725064   22.475734 H          1 MOL1         0.0736
      14    C6      19.958260   16.735335   23.396011 C.3        1 MOL1        -0.2882
      15    H7      20.695525   16.909973   24.190598 H          1 MOL1         0.0749
      16    H8      19.394226   15.827896   23.647979 H          1 MOL1         0.0749
      17    H9      20.501783   16.550055   22.460097 H          1 MOL1         0.0749
@<TRIPOS>BOND
    1     1     2    1
    2     1     3    2
    3     1     4    1
    4     4     5    1
    5     4     6    1
    6     4     7    1
    7     7     8    1
    8     7     9    2
    9     9    10    1
   10     9    11    1
   11    11    12    1
   12    11    13    1
   13    11    14    1
   14    14    15    1
   15    14    16    1
   16    14    17    1
@<TRIPOS>SUBSTRUCTURE
       1 MOL1            1 RESIDUE      1      MOL     
@<SCITEGIC>MOL_PROPERTY
VConf Rank
SciTegic.value.IntegerValue
74

@<SCITEGIC>MOL_PROPERTY
Conf_Id
SciTegic.value.IntegerValue
7

@<SCITEGIC>MOL_PROPERTY
Delta U+W
SciTegic.value.DoubleValue
-0.041

@<SCITEGIC>MOL_PROPERTY
U+W
SciTegic.value.DoubleValue
-49.468

@<SCITEGIC>MOL_PROPERTY
Grad RMS
SciTegic.value.DoubleValue
0.000000

@<SCITEGIC>MOL_PROPERTY
U
SciTegic.value.DoubleValue
14.121

@<SCITEGIC>MOL_PROPERTY
W
SciTegic.value.DoubleValue
-63.589

@<SCITEGIC>MOL_PROPERTY
W(PB)
SciTegic.value.DoubleValue
-65.660

@<SCITEGIC>MOL_PROPERTY
W(SA)
SciTegic.value.DoubleValue
2.071

@<SCITEGIC>MOL_PROPERTY
Valence
SciTegic.value.DoubleValue
15.230

@<SCITEGIC>MOL_PROPERTY
Coulomb
SciTegic.value.DoubleValue
-1.333

@<SCITEGIC>MOL_PROPERTY
VdW
SciTegic.value.DoubleValue
0.224

@<SCITEGIC>MOL_PROPERTY
VdW6
SciTegic.value.DoubleValue
-4.212

@<SCITEGIC>MOL_PROPERTY
VdW12
SciTegic.value.DoubleValue
4.436

@<SCITEGIC>MOL_PROPERTY
Bond
SciTegic.value.DoubleValue
0.044

@<SCITEGIC>MOL_PROPERTY
Angle
SciTegic.value.DoubleValue
2.230

@<SCITEGIC>MOL_PROPERTY
Pdih
SciTegic.value.DoubleValue
12.956

@<SCITEGIC>MOL_PROPERTY
Idih
SciTegic.value.DoubleValue
0.000

@<SCITEGIC>MOL_PROPERTY
Tether
SciTegic.value.DoubleValue
0.000

@<TRIPOS>MOLECULE
guest-s20_confgen4.mol2 : confsearch ligand conformer 75
          17          16           1
SMALL
USER_CHARGES
 
@<TRIPOS>ATOM
       1    C1      18.546619   18.473191   20.149383 C.2        1 MOL1         0.6132
       2    O1      19.391982   18.193196   19.322367 O.co2      1 MOL1        -0.6749
       3    O2      17.634266   19.248538   19.940738 O.co2      1 MOL1        -0.6749
       4    C2      18.618355   17.793806   21.513519 C.3        1 MOL1        -0.1955
       5    H1      19.042392   16.793263   21.369040 H          1 MOL1         0.0733
       6    H2      17.591879   17.638180   21.865439 H          1 MOL1         0.0733
       7    C3      19.415092   18.536834   22.576532 C.2        1 MOL1        -0.1395
       8    H3      19.453407   18.034636   23.542387 H          1 MOL1         0.0816
       9    C4      20.043467   19.707177   22.413937 C.2        1 MOL1        -0.1394
      10    H4      20.021646   20.229667   21.458290 H          1 MOL1         0.0816
      11    C5      20.822507   20.405958   23.506064 C.3        1 MOL1        -0.1826
      12    H5      20.527770   21.463052   23.552986 H          1 MOL1         0.0736
      13    H6      20.587360   19.969500   24.486555 H          1 MOL1         0.0736
      14    C6      22.339650   20.306419   23.254259 C.3        1 MOL1        -0.2882
      15    H7      22.899820   20.816236   24.048839 H          1 MOL1         0.0749
      16    H8      22.662484   19.257265   23.228792 H          1 MOL1         0.0749
      17    H9      22.608712   20.770152   22.296127 H          1 MOL1         0.0749
@<TRIPOS>BOND
    1     1     2    1
    2     1     3    2
    3     1     4    1
    4     4     5    1
    5     4     6    1
    6     4     7    1
    7     7     8    1
    8     7     9    2
    9     9    10    1
   10     9    11    1
   11    11    12    1
   12    11    13    1
   13    11    14    1
   14    14    15    1
   15    14    16    1
   16    14    17    1
@<TRIPOS>SUBSTRUCTURE
       1 MOL1            1 RESIDUE      1      MOL     
@<SCITEGIC>MOL_PROPERTY
VConf Rank
SciTegic.value.IntegerValue
75

@<SCITEGIC>MOL_PROPERTY
Conf_Id
SciTegic.value.IntegerValue
39

@<SCITEGIC>MOL_PROPERTY
Delta U+W
SciTegic.value.DoubleValue
-0.422

@<SCITEGIC>MOL_PROPERTY
U+W
SciTegic.value.DoubleValue
-49.849

@<SCITEGIC>MOL_PROPERTY
Grad RMS
SciTegic.value.DoubleValue
0.000000

@<SCITEGIC>MOL_PROPERTY
U
SciTegic.value.DoubleValue
14.465

@<SCITEGIC>MOL_PROPERTY
W
SciTegic.value.DoubleValue
-64.314

@<SCITEGIC>MOL_PROPERTY
W(PB)
SciTegic.value.DoubleValue
-66.406

@<SCITEGIC>MOL_PROPERTY
W(SA)
SciTegic.value.DoubleValue
2.093

@<SCITEGIC>MOL_PROPERTY
Valence
SciTegic.value.DoubleValue
14.072

@<SCITEGIC>MOL_PROPERTY
Coulomb
SciTegic.value.DoubleValue
-0.199

@<SCITEGIC>MOL_PROPERTY
VdW
SciTegic.value.DoubleValue
0.592

@<SCITEGIC>MOL_PROPERTY
VdW6
SciTegic.value.DoubleValue
-5.019

@<SCITEGIC>MOL_PROPERTY
VdW12
SciTegic.value.DoubleValue
5.611

@<SCITEGIC>MOL_PROPERTY
Bond
SciTegic.value.DoubleValue
0.085

@<SCITEGIC>MOL_PROPERTY
Angle
SciTegic.value.DoubleValue
2.748

@<SCITEGIC>MOL_PROPERTY
Pdih
SciTegic.value.DoubleValue
11.238

@<SCITEGIC>MOL_PROPERTY
Idih
SciTegic.value.DoubleValue
0.001

@<SCITEGIC>MOL_PROPERTY
Tether
SciTegic.value.DoubleValue
0.000

@<TRIPOS>MOLECULE
guest-s20_confgen4.mol2 : confsearch ligand conformer 76
          17          16           1
SMALL
USER_CHARGES
 
@<TRIPOS>ATOM
       1    C1      21.695026   21.224441   24.027971 C.2        1 MOL1         0.6132
       2    O1      21.076376   21.680156   24.969542 O.co2      1 MOL1        -0.6749
       3    O2      22.491636   21.867236   23.372954 O.co2      1 MOL1        -0.6749
       4    C2      21.461750   19.766686   23.653620 C.3        1 MOL1        -0.1955
       5    H1      21.392559   19.189219   24.582734 H          1 MOL1         0.0733
       6    H2      22.346433   19.404687   23.116095 H          1 MOL1         0.0733
       7    C3      20.205656   19.573473   22.825585 C.2        1 MOL1        -0.1395
       8    H3      19.269316   19.760778   23.350356 H          1 MOL1         0.0816
       9    C4      20.202168   19.203548   21.541306 C.2        1 MOL1        -0.1394
      10    H4      21.138930   19.019304   21.016338 H          1 MOL1         0.0816
      11    C5      18.948801   19.015041   20.716165 C.3        1 MOL1        -0.1826
      12    H5      18.082977   19.460805   21.224951 H          1 MOL1         0.0736
      13    H6      19.054522   19.538851   19.756487 H          1 MOL1         0.0736
      14    C6      18.675037   17.520512   20.458292 C.3        1 MOL1        -0.2882
      15    H7      18.540070   16.979960   21.404436 H          1 MOL1         0.0749
      16    H8      17.764824   17.390104   19.858632 H          1 MOL1         0.0749
      17    H9      19.509632   17.057310   19.915777 H          1 MOL1         0.0749
@<TRIPOS>BOND
    1     1     2    1
    2     1     3    2
    3     1     4    1
    4     4     5    1
    5     4     6    1
    6     4     7    1
    7     7     8    1
    8     7     9    2
    9     9    10    1
   10     9    11    1
   11    11    12    1
   12    11    13    1
   13    11    14    1
   14    14    15    1
   15    14    16    1
   16    14    17    1
@<TRIPOS>SUBSTRUCTURE
       1 MOL1            1 RESIDUE      1      MOL     
@<SCITEGIC>MOL_PROPERTY
VConf Rank
SciTegic.value.IntegerValue
76

@<SCITEGIC>MOL_PROPERTY
Conf_Id
SciTegic.value.IntegerValue
38

@<SCITEGIC>MOL_PROPERTY
Delta U+W
SciTegic.value.DoubleValue
0.000

@<SCITEGIC>MOL_PROPERTY
U+W
SciTegic.value.DoubleValue
-49.427

@<SCITEGIC>MOL_PROPERTY
Grad RMS
SciTegic.value.DoubleValue
0.000000

@<SCITEGIC>MOL_PROPERTY
U
SciTegic.value.DoubleValue
13.666

@<SCITEGIC>MOL_PROPERTY
W
SciTegic.value.DoubleValue
-63.093

@<SCITEGIC>MOL_PROPERTY
W(PB)
SciTegic.value.DoubleValue
-65.225

@<SCITEGIC>MOL_PROPERTY
W(SA)
SciTegic.value.DoubleValue
2.132

@<SCITEGIC>MOL_PROPERTY
Valence
SciTegic.value.DoubleValue
15.226

@<SCITEGIC>MOL_PROPERTY
Coulomb
SciTegic.value.DoubleValue
-1.822

@<SCITEGIC>MOL_PROPERTY
VdW
SciTegic.value.DoubleValue
0.261

@<SCITEGIC>MOL_PROPERTY
VdW6
SciTegic.value.DoubleValue
-4.165

@<SCITEGIC>MOL_PROPERTY
VdW12
SciTegic.value.DoubleValue
4.426

@<SCITEGIC>MOL_PROPERTY
Bond
SciTegic.value.DoubleValue
0.044

@<SCITEGIC>MOL_PROPERTY
Angle
SciTegic.value.DoubleValue
2.229

@<SCITEGIC>MOL_PROPERTY
Pdih
SciTegic.value.DoubleValue
12.953

@<SCITEGIC>MOL_PROPERTY
Idih
SciTegic.value.DoubleValue
0.000

@<SCITEGIC>MOL_PROPERTY
Tether
SciTegic.value.DoubleValue
0.000

@<TRIPOS>MOLECULE
guest-s20_confgen4.mol2 : confsearch ligand conformer 77
          17          16           1
SMALL
USER_CHARGES
 
@<TRIPOS>ATOM
       1    C1      17.756726   20.600535   20.427298 C.2        1 MOL1         0.6132
       2    O1      16.945157   19.747506   20.126441 O.co2      1 MOL1        -0.6749
       3    O2      18.071939   21.516720   19.693673 O.co2      1 MOL1        -0.6749
       4    C2      18.411641   20.522150   21.800086 C.3        1 MOL1        -0.1955
       5    H1      17.751400   19.950145   22.463059 H          1 MOL1         0.0733
       6    H2      18.467250   21.539920   22.203270 H          1 MOL1         0.0733
       7    C3      19.796720   19.905997   21.748568 C.2        1 MOL1        -0.1395
       8    H3      20.552653   20.503014   21.239315 H          1 MOL1         0.0816
       9    C4      20.110324   18.717973   22.274381 C.2        1 MOL1        -0.1394
      10    H4      19.353196   18.120082   22.780687 H          1 MOL1         0.0816
      11    C5      21.491079   18.103382   22.218588 C.3        1 MOL1        -0.1826
      12    H5      21.419398   17.060889   21.880055 H          1 MOL1         0.0736
      13    H6      22.117161   18.630568   21.485570 H          1 MOL1         0.0736
      14    C6      22.173974   18.149333   23.599386 C.3        1 MOL1        -0.2882
      15    H7      21.587714   17.596262   24.344933 H          1 MOL1         0.0749
      16    H8      23.175104   17.701389   23.552776 H          1 MOL1         0.0749
      17    H9      22.280089   19.185241   23.947571 H          1 MOL1         0.0749
@<TRIPOS>BOND
    1     1     2    1
    2     1     3    2
    3     1     4    1
    4     4     5    1
    5     4     6    1
    6     4     7    1
    7     7     8    1
    8     7     9    2
    9     9    10    1
   10     9    11    1
   11    11    12    1
   12    11    13    1
   13    11    14    1
   14    14    15    1
   15    14    16    1
   16    14    17    1
@<TRIPOS>SUBSTRUCTURE
       1 MOL1            1 RESIDUE      1      MOL     
@<SCITEGIC>MOL_PROPERTY
VConf Rank
SciTegic.value.IntegerValue
77

@<SCITEGIC>MOL_PROPERTY
Conf_Id
SciTegic.value.IntegerValue
35

@<SCITEGIC>MOL_PROPERTY
Delta U+W
SciTegic.value.DoubleValue
-0.102

@<SCITEGIC>MOL_PROPERTY
U+W
SciTegic.value.DoubleValue
-49.529

@<SCITEGIC>MOL_PROPERTY
Grad RMS
SciTegic.value.DoubleValue
0.000000

@<SCITEGIC>MOL_PROPERTY
U
SciTegic.value.DoubleValue
13.666

@<SCITEGIC>MOL_PROPERTY
W
SciTegic.value.DoubleValue
-63.195

@<SCITEGIC>MOL_PROPERTY
W(PB)
SciTegic.value.DoubleValue
-65.299

@<SCITEGIC>MOL_PROPERTY
W(SA)
SciTegic.value.DoubleValue
2.103

@<SCITEGIC>MOL_PROPERTY
Valence
SciTegic.value.DoubleValue
15.226

@<SCITEGIC>MOL_PROPERTY
Coulomb
SciTegic.value.DoubleValue
-1.822

@<SCITEGIC>MOL_PROPERTY
VdW
SciTegic.value.DoubleValue
0.261

@<SCITEGIC>MOL_PROPERTY
VdW6
SciTegic.value.DoubleValue
-4.165

@<SCITEGIC>MOL_PROPERTY
VdW12
SciTegic.value.DoubleValue
4.426

@<SCITEGIC>MOL_PROPERTY
Bond
SciTegic.value.DoubleValue
0.044

@<SCITEGIC>MOL_PROPERTY
Angle
SciTegic.value.DoubleValue
2.229

@<SCITEGIC>MOL_PROPERTY
Pdih
SciTegic.value.DoubleValue
12.953

@<SCITEGIC>MOL_PROPERTY
Idih
SciTegic.value.DoubleValue
0.000

@<SCITEGIC>MOL_PROPERTY
Tether
SciTegic.value.DoubleValue
0.000

@<TRIPOS>MOLECULE
guest-s20_confgen4.mol2 : confsearch ligand conformer 78
          17          16           1
SMALL
USER_CHARGES
 
@<TRIPOS>ATOM
       1    C1      19.845504   20.902462   24.508045 C.2        1 MOL1         0.6132
       2    O1      18.740278   21.405783   24.462070 O.co2      1 MOL1        -0.6749
       3    O2      20.329720   20.435630   25.520198 O.co2      1 MOL1        -0.6749
       4    C2      20.670783   20.864207   23.228535 C.3        1 MOL1        -0.1955
       5    H1      21.729880   20.799071   23.505403 H          1 MOL1         0.0733
       6    H2      20.532842   21.821389   22.712506 H          1 MOL1         0.0733
       7    C3      20.274192   19.719035   22.316010 C.2        1 MOL1        -0.1395
       8    H3      19.281272   19.809378   21.878930 H          1 MOL1         0.0816
       9    C4      21.058584   18.665840   22.054817 C.2        1 MOL1        -0.1394
      10    H4      22.044795   18.607791   22.514277 H          1 MOL1         0.0816
      11    C5      20.724937   17.486172   21.157235 C.3        1 MOL1        -0.1826
      12    H5      21.488379   17.408759   20.371315 H          1 MOL1         0.0736
      13    H6      20.807640   16.559530   21.741200 H          1 MOL1         0.0736
      14    C6      19.328824   17.542260   20.498638 C.3        1 MOL1        -0.2882
      15    H7      19.229051   18.430927   19.861677 H          1 MOL1         0.0749
      16    H8      19.164218   16.657805   19.869613 H          1 MOL1         0.0749
      17    H9      18.535965   17.567083   21.257748 H          1 MOL1         0.0749
@<TRIPOS>BOND
    1     1     2    1
    2     1     3    2
    3     1     4    1
    4     4     5    1
    5     4     6    1
    6     4     7    1
    7     7     8    1
    8     7     9    2
    9     9    10    1
   10     9    11    1
   11    11    12    1
   12    11    13    1
   13    11    14    1
   14    14    15    1
   15    14    16    1
   16    14    17    1
@<TRIPOS>SUBSTRUCTURE
       1 MOL1            1 RESIDUE      1      MOL     
@<SCITEGIC>MOL_PROPERTY
VConf Rank
SciTegic.value.IntegerValue
78

@<SCITEGIC>MOL_PROPERTY
Conf_Id
SciTegic.value.IntegerValue
19

@<SCITEGIC>MOL_PROPERTY
Delta U+W
SciTegic.value.DoubleValue
-0.496

@<SCITEGIC>MOL_PROPERTY
U+W
SciTegic.value.DoubleValue
-49.923

@<SCITEGIC>MOL_PROPERTY
Grad RMS
SciTegic.value.DoubleValue
0.000000

@<SCITEGIC>MOL_PROPERTY
U
SciTegic.value.DoubleValue
13.863

@<SCITEGIC>MOL_PROPERTY
W
SciTegic.value.DoubleValue
-63.786

@<SCITEGIC>MOL_PROPERTY
W(PB)
SciTegic.value.DoubleValue
-65.856

@<SCITEGIC>MOL_PROPERTY
W(SA)
SciTegic.value.DoubleValue
2.070

@<SCITEGIC>MOL_PROPERTY
Valence
SciTegic.value.DoubleValue
14.117

@<SCITEGIC>MOL_PROPERTY
Coulomb
SciTegic.value.DoubleValue
-1.228

@<SCITEGIC>MOL_PROPERTY
VdW
SciTegic.value.DoubleValue
0.974

@<SCITEGIC>MOL_PROPERTY
VdW6
SciTegic.value.DoubleValue
-4.885

@<SCITEGIC>MOL_PROPERTY
VdW12
SciTegic.value.DoubleValue
5.859

@<SCITEGIC>MOL_PROPERTY
Bond
SciTegic.value.DoubleValue
0.094

@<SCITEGIC>MOL_PROPERTY
Angle
SciTegic.value.DoubleValue
2.818

@<SCITEGIC>MOL_PROPERTY
Pdih
SciTegic.value.DoubleValue
11.205

@<SCITEGIC>MOL_PROPERTY
Idih
SciTegic.value.DoubleValue
0.000

@<SCITEGIC>MOL_PROPERTY
Tether
SciTegic.value.DoubleValue
0.000

@<TRIPOS>MOLECULE
guest-s20_confgen4.mol2 : confsearch ligand conformer 79
          17          16           1
SMALL
USER_CHARGES
 
@<TRIPOS>ATOM
       1    C1      18.282401   16.878153   21.643664 C.2        1 MOL1         0.6132
       2    O1      19.004067   16.045536   21.131064 O.co2      1 MOL1        -0.6749
       3    O2      17.470752   16.621466   22.511040 O.co2      1 MOL1        -0.6749
       4    C2      18.391754   18.320667   21.167193 C.3        1 MOL1        -0.1955
       5    H1      17.375553   18.722168   21.079926 H          1 MOL1         0.0733
       6    H2      18.823189   18.317306   20.158973 H          1 MOL1         0.0733
       7    C3      19.213290   19.182169   22.107222 C.2        1 MOL1        -0.1395
       8    H3      18.766743   19.359712   23.085123 H          1 MOL1         0.0816
       9    C4      20.407040   19.699729   21.801755 C.2        1 MOL1        -0.1394
      10    H4      20.855412   19.517597   20.825615 H          1 MOL1         0.0816
      11    C5      21.225927   20.556105   22.741637 C.3        1 MOL1        -0.1826
      12    H5      21.572800   21.456212   22.216272 H          1 MOL1         0.0736
      13    H6      20.609622   20.900152   23.583664 H          1 MOL1         0.0736
      14    C6      22.440328   19.777302   23.283566 C.3        1 MOL1        -0.2882
      15    H7      23.095643   19.453942   22.464160 H          1 MOL1         0.0749
      16    H8      23.030729   20.403184   23.965303 H          1 MOL1         0.0749
      17    H9      22.116325   18.884606   23.834744 H          1 MOL1         0.0749
@<TRIPOS>BOND
    1     1     2    1
    2     1     3    2
    3     1     4    1
    4     4     5    1
    5     4     6    1
    6     4     7    1
    7     7     8    1
    8     7     9    2
    9     9    10    1
   10     9    11    1
   11    11    12    1
   12    11    13    1
   13    11    14    1
   14    14    15    1
   15    14    16    1
   16    14    17    1
@<TRIPOS>SUBSTRUCTURE
       1 MOL1            1 RESIDUE      1      MOL     
@<SCITEGIC>MOL_PROPERTY
VConf Rank
SciTegic.value.IntegerValue
79

@<SCITEGIC>MOL_PROPERTY
Conf_Id
SciTegic.value.IntegerValue
7

@<SCITEGIC>MOL_PROPERTY
Delta U+W
SciTegic.value.DoubleValue
-0.041

@<SCITEGIC>MOL_PROPERTY
U+W
SciTegic.value.DoubleValue
-49.468

@<SCITEGIC>MOL_PROPERTY
Grad RMS
SciTegic.value.DoubleValue
0.000000

@<SCITEGIC>MOL_PROPERTY
U
SciTegic.value.DoubleValue
14.121

@<SCITEGIC>MOL_PROPERTY
W
SciTegic.value.DoubleValue
-63.589

@<SCITEGIC>MOL_PROPERTY
W(PB)
SciTegic.value.DoubleValue
-65.660

@<SCITEGIC>MOL_PROPERTY
W(SA)
SciTegic.value.DoubleValue
2.071

@<SCITEGIC>MOL_PROPERTY
Valence
SciTegic.value.DoubleValue
15.230

@<SCITEGIC>MOL_PROPERTY
Coulomb
SciTegic.value.DoubleValue
-1.333

@<SCITEGIC>MOL_PROPERTY
VdW
SciTegic.value.DoubleValue
0.224

@<SCITEGIC>MOL_PROPERTY
VdW6
SciTegic.value.DoubleValue
-4.212

@<SCITEGIC>MOL_PROPERTY
VdW12
SciTegic.value.DoubleValue
4.436

@<SCITEGIC>MOL_PROPERTY
Bond
SciTegic.value.DoubleValue
0.044

@<SCITEGIC>MOL_PROPERTY
Angle
SciTegic.value.DoubleValue
2.230

@<SCITEGIC>MOL_PROPERTY
Pdih
SciTegic.value.DoubleValue
12.956

@<SCITEGIC>MOL_PROPERTY
Idih
SciTegic.value.DoubleValue
0.000

@<SCITEGIC>MOL_PROPERTY
Tether
SciTegic.value.DoubleValue
0.000

@<TRIPOS>MOLECULE
guest-s20_confgen4.mol2 : confsearch ligand conformer 80
          17          16           1
SMALL
USER_CHARGES
 
@<TRIPOS>ATOM
       1    C1      22.325238   20.936211   22.066109 C.2        1 MOL1         0.6132
       2    O1      22.778499   20.591276   20.992532 O.co2      1 MOL1        -0.6749
       3    O2      22.975825   20.962189   23.092337 O.co2      1 MOL1        -0.6749
       4    C2      20.868979   21.387426   22.123477 C.3        1 MOL1        -0.1955
       5    H1      20.624107   21.856316   21.163295 H          1 MOL1         0.0733
       6    H2      20.793066   22.181952   22.874932 H          1 MOL1         0.0733
       7    C3      19.854354   20.295332   22.431282 C.2        1 MOL1        -0.1395
       8    H3      18.821316   20.638927   22.467629 H          1 MOL1         0.0816
       9    C4      20.130059   19.003787   22.647832 C.2        1 MOL1        -0.1394
      10    H4      21.154263   18.633993   22.616342 H          1 MOL1         0.0816
      11    C5      19.082083   17.956340   22.952035 C.3        1 MOL1        -0.1826
      12    H5      19.395249   17.360091   23.819752 H          1 MOL1         0.0736
      13    H6      18.129642   18.431923   23.223754 H          1 MOL1         0.0736
      14    C6      18.861134   17.026794   21.742836 C.3        1 MOL1        -0.2882
      15    H7      18.100911   16.268051   21.969617 H          1 MOL1         0.0749
      16    H8      18.522275   17.598317   20.868690 H          1 MOL1         0.0749
      17    H9      19.790406   16.508147   21.472804 H          1 MOL1         0.0749
@<TRIPOS>BOND
    1     1     2    1
    2     1     3    2
    3     1     4    1
    4     4     5    1
    5     4     6    1
    6     4     7    1
    7     7     8    1
    8     7     9    2
    9     9    10    1
   10     9    11    1
   11    11    12    1
   12    11    13    1
   13    11    14    1
   14    14    15    1
   15    14    16    1
   16    14    17    1
@<TRIPOS>SUBSTRUCTURE
       1 MOL1            1 RESIDUE      1      MOL     
@<SCITEGIC>MOL_PROPERTY
VConf Rank
SciTegic.value.IntegerValue
80

@<SCITEGIC>MOL_PROPERTY
Conf_Id
SciTegic.value.IntegerValue
39

@<SCITEGIC>MOL_PROPERTY
Delta U+W
SciTegic.value.DoubleValue
-0.422

@<SCITEGIC>MOL_PROPERTY
U+W
SciTegic.value.DoubleValue
-49.849

@<SCITEGIC>MOL_PROPERTY
Grad RMS
SciTegic.value.DoubleValue
0.000000

@<SCITEGIC>MOL_PROPERTY
U
SciTegic.value.DoubleValue
14.465

@<SCITEGIC>MOL_PROPERTY
W
SciTegic.value.DoubleValue
-64.314

@<SCITEGIC>MOL_PROPERTY
W(PB)
SciTegic.value.DoubleValue
-66.406

@<SCITEGIC>MOL_PROPERTY
W(SA)
SciTegic.value.DoubleValue
2.093

@<SCITEGIC>MOL_PROPERTY
Valence
SciTegic.value.DoubleValue
14.072

@<SCITEGIC>MOL_PROPERTY
Coulomb
SciTegic.value.DoubleValue
-0.199

@<SCITEGIC>MOL_PROPERTY
VdW
SciTegic.value.DoubleValue
0.592

@<SCITEGIC>MOL_PROPERTY
VdW6
SciTegic.value.DoubleValue
-5.019

@<SCITEGIC>MOL_PROPERTY
VdW12
SciTegic.value.DoubleValue
5.611

@<SCITEGIC>MOL_PROPERTY
Bond
SciTegic.value.DoubleValue
0.085

@<SCITEGIC>MOL_PROPERTY
Angle
SciTegic.value.DoubleValue
2.748

@<SCITEGIC>MOL_PROPERTY
Pdih
SciTegic.value.DoubleValue
11.238

@<SCITEGIC>MOL_PROPERTY
Idih
SciTegic.value.DoubleValue
0.001

@<SCITEGIC>MOL_PROPERTY
Tether
SciTegic.value.DoubleValue
0.000

@<TRIPOS>MOLECULE
guest-s20_confgen4.mol2 : confsearch ligand conformer 81
          17          16           1
SMALL
USER_CHARGES
 
@<TRIPOS>ATOM
       1    C1      19.763668   16.997358   19.933718 C.2        1 MOL1         0.6132
       2    O1      19.219017   17.316083   18.895099 O.co2      1 MOL1        -0.6749
       3    O2      19.570428   15.937541   20.496093 O.co2      1 MOL1        -0.6749
       4    C2      20.745550   17.978802   20.560040 C.3        1 MOL1        -0.1955
       5    H1      21.341951   18.417681   19.751832 H          1 MOL1         0.0733
       6    H2      21.435969   17.413617   21.197636 H          1 MOL1         0.0733
       7    C3      20.050430   19.073016   21.347600 C.2        1 MOL1        -0.1395
       8    H3      19.470226   19.777501   20.752398 H          1 MOL1         0.0816
       9    C4      20.116072   19.199442   22.676484 C.2        1 MOL1        -0.1394
      10    H4      20.694000   18.492889   23.271332 H          1 MOL1         0.0816
      11    C5      19.419190   20.288962   23.460463 C.3        1 MOL1        -0.1826
      12    H5      18.666329   20.790003   22.836461 H          1 MOL1         0.0736
      13    H6      18.881116   19.847780   24.310387 H          1 MOL1         0.0736
      14    C6      20.429229   21.331911   23.977318 C.3        1 MOL1        -0.2882
      15    H7      20.962064   21.805762   23.142361 H          1 MOL1         0.0749
      16    H8      19.917814   22.119492   24.545875 H          1 MOL1         0.0749
      17    H9      21.172662   20.864269   24.636142 H          1 MOL1         0.0749
@<TRIPOS>BOND
    1     1     2    1
    2     1     3    2
    3     1     4    1
    4     4     5    1
    5     4     6    1
    6     4     7    1
    7     7     8    1
    8     7     9    2
    9     9    10    1
   10     9    11    1
   11    11    12    1
   12    11    13    1
   13    11    14    1
   14    14    15    1
   15    14    16    1
   16    14    17    1
@<TRIPOS>SUBSTRUCTURE
       1 MOL1            1 RESIDUE      1      MOL     
@<SCITEGIC>MOL_PROPERTY
VConf Rank
SciTegic.value.IntegerValue
81

@<SCITEGIC>MOL_PROPERTY
Conf_Id
SciTegic.value.IntegerValue
38

@<SCITEGIC>MOL_PROPERTY
Delta U+W
SciTegic.value.DoubleValue
0.000

@<SCITEGIC>MOL_PROPERTY
U+W
SciTegic.value.DoubleValue
-49.427

@<SCITEGIC>MOL_PROPERTY
Grad RMS
SciTegic.value.DoubleValue
0.000000

@<SCITEGIC>MOL_PROPERTY
U
SciTegic.value.DoubleValue
13.666

@<SCITEGIC>MOL_PROPERTY
W
SciTegic.value.DoubleValue
-63.093

@<SCITEGIC>MOL_PROPERTY
W(PB)
SciTegic.value.DoubleValue
-65.225

@<SCITEGIC>MOL_PROPERTY
W(SA)
SciTegic.value.DoubleValue
2.132

@<SCITEGIC>MOL_PROPERTY
Valence
SciTegic.value.DoubleValue
15.226

@<SCITEGIC>MOL_PROPERTY
Coulomb
SciTegic.value.DoubleValue
-1.822

@<SCITEGIC>MOL_PROPERTY
VdW
SciTegic.value.DoubleValue
0.261

@<SCITEGIC>MOL_PROPERTY
VdW6
SciTegic.value.DoubleValue
-4.165

@<SCITEGIC>MOL_PROPERTY
VdW12
SciTegic.value.DoubleValue
4.426

@<SCITEGIC>MOL_PROPERTY
Bond
SciTegic.value.DoubleValue
0.044

@<SCITEGIC>MOL_PROPERTY
Angle
SciTegic.value.DoubleValue
2.229

@<SCITEGIC>MOL_PROPERTY
Pdih
SciTegic.value.DoubleValue
12.953

@<SCITEGIC>MOL_PROPERTY
Idih
SciTegic.value.DoubleValue
0.000

@<SCITEGIC>MOL_PROPERTY
Tether
SciTegic.value.DoubleValue
0.000

@<TRIPOS>MOLECULE
guest-s20_confgen4.mol2 : confsearch ligand conformer 82
          17          16           1
SMALL
USER_CHARGES
 
@<TRIPOS>ATOM
       1    C1      20.450642   21.446375   24.371547 C.2        1 MOL1         0.6132
       2    O1      21.603908   21.829514   24.372816 O.co2      1 MOL1        -0.6749
       3    O2      19.791903   21.294433   25.381466 O.co2      1 MOL1        -0.6749
       4    C2      19.791278   21.144829   23.032177 C.3        1 MOL1        -0.1955
       5    H1      20.318953   21.710535   22.254890 H          1 MOL1         0.0733
       6    H2      18.765948   21.530618   23.069212 H          1 MOL1         0.0733
       7    C3      19.778638   19.662314   22.711653 C.2        1 MOL1        -0.1395
       8    H3      19.139394   19.053799   23.350619 H          1 MOL1         0.0816
       9    C4      20.487223   19.100573   21.727487 C.2        1 MOL1        -0.1394
      10    H4      21.128685   19.709194   21.090958 H          1 MOL1         0.0816
      11    C5      20.476430   17.621525   21.411861 C.3        1 MOL1        -0.1826
      12    H5      21.507411   17.257264   21.307343 H          1 MOL1         0.0736
      13    H6      20.024273   17.055483   22.237919 H          1 MOL1         0.0736
      14    C6      19.697253   17.338102   20.112778 C.3        1 MOL1        -0.2882
      15    H7      20.151271   17.862064   19.261450 H          1 MOL1         0.0749
      16    H8      19.693490   16.263477   19.888606 H          1 MOL1         0.0749
      17    H9      18.654825   17.671006   20.202876 H          1 MOL1         0.0749
@<TRIPOS>BOND
    1     1     2    1
    2     1     3    2
    3     1     4    1
    4     4     5    1
    5     4     6    1
    6     4     7    1
    7     7     8    1
    8     7     9    2
    9     9    10    1
   10     9    11    1
   11    11    12    1
   12    11    13    1
   13    11    14    1
   14    14    15    1
   15    14    16    1
   16    14    17    1
@<TRIPOS>SUBSTRUCTURE
       1 MOL1            1 RESIDUE      1      MOL     
@<SCITEGIC>MOL_PROPERTY
VConf Rank
SciTegic.value.IntegerValue
82

@<SCITEGIC>MOL_PROPERTY
Conf_Id
SciTegic.value.IntegerValue
35

@<SCITEGIC>MOL_PROPERTY
Delta U+W
SciTegic.value.DoubleValue
-0.102

@<SCITEGIC>MOL_PROPERTY
U+W
SciTegic.value.DoubleValue
-49.529

@<SCITEGIC>MOL_PROPERTY
Grad RMS
SciTegic.value.DoubleValue
0.000000

@<SCITEGIC>MOL_PROPERTY
U
SciTegic.value.DoubleValue
13.666

@<SCITEGIC>MOL_PROPERTY
W
SciTegic.value.DoubleValue
-63.195

@<SCITEGIC>MOL_PROPERTY
W(PB)
SciTegic.value.DoubleValue
-65.299

@<SCITEGIC>MOL_PROPERTY
W(SA)
SciTegic.value.DoubleValue
2.103

@<SCITEGIC>MOL_PROPERTY
Valence
SciTegic.value.DoubleValue
15.226

@<SCITEGIC>MOL_PROPERTY
Coulomb
SciTegic.value.DoubleValue
-1.822

@<SCITEGIC>MOL_PROPERTY
VdW
SciTegic.value.DoubleValue
0.261

@<SCITEGIC>MOL_PROPERTY
VdW6
SciTegic.value.DoubleValue
-4.165

@<SCITEGIC>MOL_PROPERTY
VdW12
SciTegic.value.DoubleValue
4.426

@<SCITEGIC>MOL_PROPERTY
Bond
SciTegic.value.DoubleValue
0.044

@<SCITEGIC>MOL_PROPERTY
Angle
SciTegic.value.DoubleValue
2.229

@<SCITEGIC>MOL_PROPERTY
Pdih
SciTegic.value.DoubleValue
12.953

@<SCITEGIC>MOL_PROPERTY
Idih
SciTegic.value.DoubleValue
0.000

@<SCITEGIC>MOL_PROPERTY
Tether
SciTegic.value.DoubleValue
0.000

@<TRIPOS>MOLECULE
guest-s20_confgen4.mol2 : confsearch ligand conformer 83
          17          16           1
SMALL
USER_CHARGES
 
@<TRIPOS>ATOM
       1    C1      17.750193   18.025264   23.403235 C.2        1 MOL1         0.6132
       2    O1      17.764179   16.810774   23.360930 O.co2      1 MOL1        -0.6749
       3    O2      17.422908   18.659672   24.386729 O.co2      1 MOL1        -0.6749
       4    C2      18.156226   18.791993   22.151454 C.3        1 MOL1        -0.1955
       5    H1      17.696087   19.786497   22.194111 H          1 MOL1         0.0733
       6    H2      17.722988   18.275358   21.287218 H          1 MOL1         0.0733
       7    C3      19.661830   18.893886   21.995959 C.2        1 MOL1        -0.1395
       8    H3      20.162256   17.949237   21.790286 H          1 MOL1         0.0816
       9    C4      20.348217   20.038460   22.103360 C.2        1 MOL1        -0.1394
      10    H4      19.813281   20.963885   22.314350 H          1 MOL1         0.0816
      11    C5      21.851201   20.211919   21.963572 C.3        1 MOL1        -0.1826
      12    H5      22.053697   20.939134   21.165662 H          1 MOL1         0.0736
      13    H6      22.244556   20.665811   22.883232 H          1 MOL1         0.0736
      14    C6      22.633102   18.912457   21.670221 C.3        1 MOL1        -0.2882
      15    H7      22.302810   18.458317   20.726787 H          1 MOL1         0.0749
      16    H8      23.707512   19.120740   21.584830 H          1 MOL1         0.0749
      17    H9      22.495821   18.179718   22.476284 H          1 MOL1         0.0749
@<TRIPOS>BOND
    1     1     2    1
    2     1     3    2
    3     1     4    1
    4     4     5    1
    5     4     6    1
    6     4     7    1
    7     7     8    1
    8     7     9    2
    9     9    10    1
   10     9    11    1
   11    11    12    1
   12    11    13    1
   13    11    14    1
   14    14    15    1
   15    14    16    1
   16    14    17    1
@<TRIPOS>SUBSTRUCTURE
       1 MOL1            1 RESIDUE      1      MOL     
@<SCITEGIC>MOL_PROPERTY
VConf Rank
SciTegic.value.IntegerValue
83

@<SCITEGIC>MOL_PROPERTY
Conf_Id
SciTegic.value.IntegerValue
19

@<SCITEGIC>MOL_PROPERTY
Delta U+W
SciTegic.value.DoubleValue
-0.496

@<SCITEGIC>MOL_PROPERTY
U+W
SciTegic.value.DoubleValue
-49.923

@<SCITEGIC>MOL_PROPERTY
Grad RMS
SciTegic.value.DoubleValue
0.000000

@<SCITEGIC>MOL_PROPERTY
U
SciTegic.value.DoubleValue
13.863

@<SCITEGIC>MOL_PROPERTY
W
SciTegic.value.DoubleValue
-63.786

@<SCITEGIC>MOL_PROPERTY
W(PB)
SciTegic.value.DoubleValue
-65.856

@<SCITEGIC>MOL_PROPERTY
W(SA)
SciTegic.value.DoubleValue
2.070

@<SCITEGIC>MOL_PROPERTY
Valence
SciTegic.value.DoubleValue
14.117

@<SCITEGIC>MOL_PROPERTY
Coulomb
SciTegic.value.DoubleValue
-1.228

@<SCITEGIC>MOL_PROPERTY
VdW
SciTegic.value.DoubleValue
0.974

@<SCITEGIC>MOL_PROPERTY
VdW6
SciTegic.value.DoubleValue
-4.885

@<SCITEGIC>MOL_PROPERTY
VdW12
SciTegic.value.DoubleValue
5.859

@<SCITEGIC>MOL_PROPERTY
Bond
SciTegic.value.DoubleValue
0.094

@<SCITEGIC>MOL_PROPERTY
Angle
SciTegic.value.DoubleValue
2.818

@<SCITEGIC>MOL_PROPERTY
Pdih
SciTegic.value.DoubleValue
11.205

@<SCITEGIC>MOL_PROPERTY
Idih
SciTegic.value.DoubleValue
0.000

@<SCITEGIC>MOL_PROPERTY
Tether
SciTegic.value.DoubleValue
0.000

@<TRIPOS>MOLECULE
guest-s20_confgen4.mol2 : confsearch ligand conformer 84
          17          16           1
SMALL
USER_CHARGES
 
@<TRIPOS>ATOM
       1    C1      22.034426   21.313456   22.012324 C.2        1 MOL1         0.6132
       2    O1      22.822876   20.918500   21.176161 O.co2      1 MOL1        -0.6749
       3    O2      21.546927   22.426681   22.003464 O.co2      1 MOL1        -0.6749
       4    C2      21.642629   20.367266   23.139731 C.3        1 MOL1        -0.1955
       5    H1      21.622124   20.946031   24.070374 H          1 MOL1         0.0733
       6    H2      22.433444   19.615087   23.246927 H          1 MOL1         0.0733
       7    C3      20.295717   19.710370   22.905039 C.2        1 MOL1        -0.1395
       8    H3      19.438309   20.381760   22.941111 H          1 MOL1         0.0816
       9    C4      20.127956   18.407252   22.660184 C.2        1 MOL1        -0.1394
      10    H4      20.986145   17.737263   22.619120 H          1 MOL1         0.0816
      11    C5      18.784245   17.754740   22.423530 C.3        1 MOL1        -0.1826
      12    H5      18.696378   16.851394   23.042211 H          1 MOL1         0.0736
      13    H6      17.971106   18.427178   22.729864 H          1 MOL1         0.0736
      14    C6      18.604510   17.380626   20.939372 C.3        1 MOL1        -0.2882
      15    H7      19.382938   16.677262   20.615712 H          1 MOL1         0.0749
      16    H8      17.627753   16.907971   20.773208 H          1 MOL1         0.0749
      17    H9      18.664094   18.273172   20.302588 H          1 MOL1         0.0749
@<TRIPOS>BOND
    1     1     2    1
    2     1     3    2
    3     1     4    1
    4     4     5    1
    5     4     6    1
    6     4     7    1
    7     7     8    1
    8     7     9    2
    9     9    10    1
   10     9    11    1
   11    11    12    1
   12    11    13    1
   13    11    14    1
   14    14    15    1
   15    14    16    1
   16    14    17    1
@<TRIPOS>SUBSTRUCTURE
       1 MOL1            1 RESIDUE      1      MOL     
@<SCITEGIC>MOL_PROPERTY
VConf Rank
SciTegic.value.IntegerValue
84

@<SCITEGIC>MOL_PROPERTY
Conf_Id
SciTegic.value.IntegerValue
7

@<SCITEGIC>MOL_PROPERTY
Delta U+W
SciTegic.value.DoubleValue
-0.041

@<SCITEGIC>MOL_PROPERTY
U+W
SciTegic.value.DoubleValue
-49.468

@<SCITEGIC>MOL_PROPERTY
Grad RMS
SciTegic.value.DoubleValue
0.000000

@<SCITEGIC>MOL_PROPERTY
U
SciTegic.value.DoubleValue
14.121

@<SCITEGIC>MOL_PROPERTY
W
SciTegic.value.DoubleValue
-63.589

@<SCITEGIC>MOL_PROPERTY
W(PB)
SciTegic.value.DoubleValue
-65.660

@<SCITEGIC>MOL_PROPERTY
W(SA)
SciTegic.value.DoubleValue
2.071

@<SCITEGIC>MOL_PROPERTY
Valence
SciTegic.value.DoubleValue
15.230

@<SCITEGIC>MOL_PROPERTY
Coulomb
SciTegic.value.DoubleValue
-1.333

@<SCITEGIC>MOL_PROPERTY
VdW
SciTegic.value.DoubleValue
0.224

@<SCITEGIC>MOL_PROPERTY
VdW6
SciTegic.value.DoubleValue
-4.212

@<SCITEGIC>MOL_PROPERTY
VdW12
SciTegic.value.DoubleValue
4.436

@<SCITEGIC>MOL_PROPERTY
Bond
SciTegic.value.DoubleValue
0.044

@<SCITEGIC>MOL_PROPERTY
Angle
SciTegic.value.DoubleValue
2.230

@<SCITEGIC>MOL_PROPERTY
Pdih
SciTegic.value.DoubleValue
12.956

@<SCITEGIC>MOL_PROPERTY
Idih
SciTegic.value.DoubleValue
0.000

@<SCITEGIC>MOL_PROPERTY
Tether
SciTegic.value.DoubleValue
0.000

@<TRIPOS>MOLECULE
guest-s20_confgen4.mol2 : confsearch ligand conformer 85
          17          16           1
SMALL
USER_CHARGES
 
@<TRIPOS>ATOM
       1    C1      21.060616   21.419725   20.799541 C.2        1 MOL1         0.6132
       2    O1      20.468455   21.256368   19.750897 O.co2      1 MOL1        -0.6749
       3    O2      22.267562   21.539363   20.877317 O.co2      1 MOL1        -0.6749
       4    C2      20.242662   21.507200   22.084406 C.3        1 MOL1        -0.1955
       5    H1      19.275399   21.960002   21.837141 H          1 MOL1         0.0733
       6    H2      20.744439   22.215191   22.754249 H          1 MOL1         0.0733
       7    C3      20.017801   20.188841   22.811209 C.2        1 MOL1        -0.1395
       8    H3      19.431900   20.273945   23.725553 H          1 MOL1         0.0816
       9    C4      20.466683   18.989589   22.422242 C.2        1 MOL1        -0.1394
      10    H4      21.053899   18.876697   21.511657 H          1 MOL1         0.0816
      11    C5      20.215997   17.706788   23.183503 C.3        1 MOL1        -0.1826
      12    H5      21.157546   17.152210   23.295069 H          1 MOL1         0.0736
      13    H6      19.856806   17.925185   24.198608 H          1 MOL1         0.0736
      14    C6      19.183112   16.824180   22.456049 C.3        1 MOL1        -0.2882
      15    H7      19.006165   15.894315   23.012016 H          1 MOL1         0.0749
      16    H8      18.223954   17.349051   22.355445 H          1 MOL1         0.0749
      17    H9      19.534410   16.558421   21.450355 H          1 MOL1         0.0749
@<TRIPOS>BOND
    1     1     2    1
    2     1     3    2
    3     1     4    1
    4     4     5    1
    5     4     6    1
    6     4     7    1
    7     7     8    1
    8     7     9    2
    9     9    10    1
   10     9    11    1
   11    11    12    1
   12    11    13    1
   13    11    14    1
   14    14    15    1
   15    14    16    1
   16    14    17    1
@<TRIPOS>SUBSTRUCTURE
       1 MOL1            1 RESIDUE      1      MOL     
@<SCITEGIC>MOL_PROPERTY
VConf Rank
SciTegic.value.IntegerValue
85

@<SCITEGIC>MOL_PROPERTY
Conf_Id
SciTegic.value.IntegerValue
39

@<SCITEGIC>MOL_PROPERTY
Delta U+W
SciTegic.value.DoubleValue
-0.422

@<SCITEGIC>MOL_PROPERTY
U+W
SciTegic.value.DoubleValue
-49.849

@<SCITEGIC>MOL_PROPERTY
Grad RMS
SciTegic.value.DoubleValue
0.000000

@<SCITEGIC>MOL_PROPERTY
U
SciTegic.value.DoubleValue
14.465

@<SCITEGIC>MOL_PROPERTY
W
SciTegic.value.DoubleValue
-64.314

@<SCITEGIC>MOL_PROPERTY
W(PB)
SciTegic.value.DoubleValue
-66.406

@<SCITEGIC>MOL_PROPERTY
W(SA)
SciTegic.value.DoubleValue
2.093

@<SCITEGIC>MOL_PROPERTY
Valence
SciTegic.value.DoubleValue
14.072

@<SCITEGIC>MOL_PROPERTY
Coulomb
SciTegic.value.DoubleValue
-0.199

@<SCITEGIC>MOL_PROPERTY
VdW
SciTegic.value.DoubleValue
0.592

@<SCITEGIC>MOL_PROPERTY
VdW6
SciTegic.value.DoubleValue
-5.019

@<SCITEGIC>MOL_PROPERTY
VdW12
SciTegic.value.DoubleValue
5.611

@<SCITEGIC>MOL_PROPERTY
Bond
SciTegic.value.DoubleValue
0.085

@<SCITEGIC>MOL_PROPERTY
Angle
SciTegic.value.DoubleValue
2.748

@<SCITEGIC>MOL_PROPERTY
Pdih
SciTegic.value.DoubleValue
11.238

@<SCITEGIC>MOL_PROPERTY
Idih
SciTegic.value.DoubleValue
0.001

@<SCITEGIC>MOL_PROPERTY
Tether
SciTegic.value.DoubleValue
0.000

@<TRIPOS>MOLECULE
guest-s20_confgen4.mol2 : confsearch ligand conformer 86
          17          16           1
SMALL
USER_CHARGES
 
@<TRIPOS>ATOM
       1    C1      20.817968   21.519984   19.991476 C.2        1 MOL1         0.6132
       2    O1      19.923245   22.286409   19.693107 O.co2      1 MOL1        -0.6749
       3    O2      21.616164   21.074534   19.190679 O.co2      1 MOL1        -0.6749
       4    C2      20.947424   21.100476   21.449851 C.3        1 MOL1        -0.1955
       5    H1      20.767576   21.986005   22.070337 H          1 MOL1         0.0733
       6    H2      21.984211   20.790001   21.626821 H          1 MOL1         0.0733
       7    C3      19.977642   19.996104   21.824858 C.2        1 MOL1        -0.1395
       8    H3      18.926186   20.281815   21.828223 H          1 MOL1         0.0816
       9    C4      20.343293   18.748178   22.133416 C.2        1 MOL1        -0.1394
      10    H4      21.394643   18.462376   22.126957 H          1 MOL1         0.0816
      11    C5      19.374583   17.647268   22.503440 C.3        1 MOL1        -0.1826
      12    H5      18.347379   17.934360   22.239525 H          1 MOL1         0.0736
      13    H6      19.606223   16.740787   21.927966 H          1 MOL1         0.0736
      14    C6      19.444655   17.331173   24.010170 C.3        1 MOL1        -0.2882
      15    H7      19.191303   18.217518   24.606665 H          1 MOL1         0.0749
      16    H8      18.740089   16.531260   24.272488 H          1 MOL1         0.0749
      17    H9      20.453128   17.003860   24.295262 H          1 MOL1         0.0749
@<TRIPOS>BOND
    1     1     2    1
    2     1     3    2
    3     1     4    1
    4     4     5    1
    5     4     6    1
    6     4     7    1
    7     7     8    1
    8     7     9    2
    9     9    10    1
   10     9    11    1
   11    11    12    1
   12    11    13    1
   13    11    14    1
   14    14    15    1
   15    14    16    1
   16    14    17    1
@<TRIPOS>SUBSTRUCTURE
       1 MOL1            1 RESIDUE      1      MOL     
@<SCITEGIC>MOL_PROPERTY
VConf Rank
SciTegic.value.IntegerValue
86

@<SCITEGIC>MOL_PROPERTY
Conf_Id
SciTegic.value.IntegerValue
38

@<SCITEGIC>MOL_PROPERTY
Delta U+W
SciTegic.value.DoubleValue
0.000

@<SCITEGIC>MOL_PROPERTY
U+W
SciTegic.value.DoubleValue
-49.427

@<SCITEGIC>MOL_PROPERTY
Grad RMS
SciTegic.value.DoubleValue
0.000000

@<SCITEGIC>MOL_PROPERTY
U
SciTegic.value.DoubleValue
13.666

@<SCITEGIC>MOL_PROPERTY
W
SciTegic.value.DoubleValue
-63.093

@<SCITEGIC>MOL_PROPERTY
W(PB)
SciTegic.value.DoubleValue
-65.225

@<SCITEGIC>MOL_PROPERTY
W(SA)
SciTegic.value.DoubleValue
2.132

@<SCITEGIC>MOL_PROPERTY
Valence
SciTegic.value.DoubleValue
15.226

@<SCITEGIC>MOL_PROPERTY
Coulomb
SciTegic.value.DoubleValue
-1.822

@<SCITEGIC>MOL_PROPERTY
VdW
SciTegic.value.DoubleValue
0.261

@<SCITEGIC>MOL_PROPERTY
VdW6
SciTegic.value.DoubleValue
-4.165

@<SCITEGIC>MOL_PROPERTY
VdW12
SciTegic.value.DoubleValue
4.426

@<SCITEGIC>MOL_PROPERTY
Bond
SciTegic.value.DoubleValue
0.044

@<SCITEGIC>MOL_PROPERTY
Angle
SciTegic.value.DoubleValue
2.229

@<SCITEGIC>MOL_PROPERTY
Pdih
SciTegic.value.DoubleValue
12.953

@<SCITEGIC>MOL_PROPERTY
Idih
SciTegic.value.DoubleValue
0.000

@<SCITEGIC>MOL_PROPERTY
Tether
SciTegic.value.DoubleValue
0.000

@<TRIPOS>MOLECULE
guest-s20_confgen4.mol2 : confsearch ligand conformer 87
          17          16           1
SMALL
USER_CHARGES
 
@<TRIPOS>ATOM
       1    C1      19.406269   21.832395   20.379634 C.2        1 MOL1         0.6132
       2    O1      20.379657   22.559232   20.347364 O.co2      1 MOL1        -0.6749
       3    O2      18.263723   22.241759   20.442659 O.co2      1 MOL1        -0.6749
       4    C2      19.627712   20.326271   20.333190 C.3        1 MOL1        -0.1955
       5    H1      20.600453   20.136817   19.863592 H          1 MOL1         0.0733
       6    H2      18.864515   19.895662   19.674697 H          1 MOL1         0.0733
       7    C3      19.552742   19.685526   21.705986 C.2        1 MOL1        -0.1395
       8    H3      18.566626   19.692784   22.169369 H          1 MOL1         0.0816
       9    C4      20.596702   19.142032   22.339224 C.2        1 MOL1        -0.1394
      10    H4      21.583141   19.137957   21.876642 H          1 MOL1         0.0816
      11    C5      20.520883   18.507089   23.709779 C.3        1 MOL1        -0.1826
      12    H5      21.332162   18.892346   24.342184 H          1 MOL1         0.0736
      13    H6      19.578704   18.776560   24.206673 H          1 MOL1         0.0736
      14    C6      20.627235   16.972510   23.615893 C.3        1 MOL1        -0.2882
      15    H7      21.578605   16.673140   23.156870 H          1 MOL1         0.0749
      16    H8      20.572312   16.517519   24.613416 H          1 MOL1         0.0749
      17    H9      19.810087   16.561506   23.008484 H          1 MOL1         0.0749
@<TRIPOS>BOND
    1     1     2    1
    2     1     3    2
    3     1     4    1
    4     4     5    1
    5     4     6    1
    6     4     7    1
    7     7     8    1
    8     7     9    2
    9     9    10    1
   10     9    11    1
   11    11    12    1
   12    11    13    1
   13    11    14    1
   14    14    15    1
   15    14    16    1
   16    14    17    1
@<TRIPOS>SUBSTRUCTURE
       1 MOL1            1 RESIDUE      1      MOL     
@<SCITEGIC>MOL_PROPERTY
VConf Rank
SciTegic.value.IntegerValue
87

@<SCITEGIC>MOL_PROPERTY
Conf_Id
SciTegic.value.IntegerValue
35

@<SCITEGIC>MOL_PROPERTY
Delta U+W
SciTegic.value.DoubleValue
-0.102

@<SCITEGIC>MOL_PROPERTY
U+W
SciTegic.value.DoubleValue
-49.529

@<SCITEGIC>MOL_PROPERTY
Grad RMS
SciTegic.value.DoubleValue
0.000000

@<SCITEGIC>MOL_PROPERTY
U
SciTegic.value.DoubleValue
13.666

@<SCITEGIC>MOL_PROPERTY
W
SciTegic.value.DoubleValue
-63.195

@<SCITEGIC>MOL_PROPERTY
W(PB)
SciTegic.value.DoubleValue
-65.299

@<SCITEGIC>MOL_PROPERTY
W(SA)
SciTegic.value.DoubleValue
2.103

@<SCITEGIC>MOL_PROPERTY
Valence
SciTegic.value.DoubleValue
15.226

@<SCITEGIC>MOL_PROPERTY
Coulomb
SciTegic.value.DoubleValue
-1.822

@<SCITEGIC>MOL_PROPERTY
VdW
SciTegic.value.DoubleValue
0.261

@<SCITEGIC>MOL_PROPERTY
VdW6
SciTegic.value.DoubleValue
-4.165

@<SCITEGIC>MOL_PROPERTY
VdW12
SciTegic.value.DoubleValue
4.426

@<SCITEGIC>MOL_PROPERTY
Bond
SciTegic.value.DoubleValue
0.044

@<SCITEGIC>MOL_PROPERTY
Angle
SciTegic.value.DoubleValue
2.229

@<SCITEGIC>MOL_PROPERTY
Pdih
SciTegic.value.DoubleValue
12.953

@<SCITEGIC>MOL_PROPERTY
Idih
SciTegic.value.DoubleValue
0.000

@<SCITEGIC>MOL_PROPERTY
Tether
SciTegic.value.DoubleValue
0.000

@<TRIPOS>MOLECULE
guest-s20_confgen4.mol2 : confsearch ligand conformer 88
          17          16           1
SMALL
USER_CHARGES
 
@<TRIPOS>ATOM
       1    C1      21.066520   20.848266   24.424731 C.2        1 MOL1         0.6132
       2    O1      22.211779   21.215171   24.249416 O.co2      1 MOL1        -0.6749
       3    O2      20.168482   21.590614   24.770122 O.co2      1 MOL1        -0.6749
       4    C2      20.743289   19.375709   24.208416 C.3        1 MOL1        -0.1955
       5    H1      19.849669   19.131006   24.795059 H          1 MOL1         0.0733
       6    H2      21.569820   18.787161   24.623104 H          1 MOL1         0.0733
       7    C3      20.544600   19.034095   22.743757 C.2        1 MOL1        -0.1395
       8    H3      21.444045   19.105181   22.134629 H          1 MOL1         0.0816
       9    C4      19.368625   18.676285   22.212940 C.2        1 MOL1        -0.1394
      10    H4      18.488869   18.620344   22.853240 H          1 MOL1         0.0816
      11    C5      19.098057   18.325608   20.759527 C.3        1 MOL1        -0.1826
      12    H5      18.675620   17.312911   20.709575 H          1 MOL1         0.0736
      13    H6      18.314971   18.991386   20.372180 H          1 MOL1         0.0736
      14    C6      20.329162   18.403582   19.829834 C.3        1 MOL1        -0.2882
      15    H7      21.114119   17.708863   20.156344 H          1 MOL1         0.0749
      16    H8      20.052142   18.138188   18.801313 H          1 MOL1         0.0749
      17    H9      20.747095   19.418753   19.814032 H          1 MOL1         0.0749
@<TRIPOS>BOND
    1     1     2    1
    2     1     3    2
    3     1     4    1
    4     4     5    1
    5     4     6    1
    6     4     7    1
    7     7     8    1
    8     7     9    2
    9     9    10    1
   10     9    11    1
   11    11    12    1
   12    11    13    1
   13    11    14    1
   14    14    15    1
   15    14    16    1
   16    14    17    1
@<TRIPOS>SUBSTRUCTURE
       1 MOL1            1 RESIDUE      1      MOL     
@<SCITEGIC>MOL_PROPERTY
VConf Rank
SciTegic.value.IntegerValue
88

@<SCITEGIC>MOL_PROPERTY
Conf_Id
SciTegic.value.IntegerValue
19

@<SCITEGIC>MOL_PROPERTY
Delta U+W
SciTegic.value.DoubleValue
-0.496

@<SCITEGIC>MOL_PROPERTY
U+W
SciTegic.value.DoubleValue
-49.923

@<SCITEGIC>MOL_PROPERTY
Grad RMS
SciTegic.value.DoubleValue
0.000000

@<SCITEGIC>MOL_PROPERTY
U
SciTegic.value.DoubleValue
13.863

@<SCITEGIC>MOL_PROPERTY
W
SciTegic.value.DoubleValue
-63.786

@<SCITEGIC>MOL_PROPERTY
W(PB)
SciTegic.value.DoubleValue
-65.856

@<SCITEGIC>MOL_PROPERTY
W(SA)
SciTegic.value.DoubleValue
2.070

@<SCITEGIC>MOL_PROPERTY
Valence
SciTegic.value.DoubleValue
14.117

@<SCITEGIC>MOL_PROPERTY
Coulomb
SciTegic.value.DoubleValue
-1.228

@<SCITEGIC>MOL_PROPERTY
VdW
SciTegic.value.DoubleValue
0.974

@<SCITEGIC>MOL_PROPERTY
VdW6
SciTegic.value.DoubleValue
-4.885

@<SCITEGIC>MOL_PROPERTY
VdW12
SciTegic.value.DoubleValue
5.859

@<SCITEGIC>MOL_PROPERTY
Bond
SciTegic.value.DoubleValue
0.094

@<SCITEGIC>MOL_PROPERTY
Angle
SciTegic.value.DoubleValue
2.818

@<SCITEGIC>MOL_PROPERTY
Pdih
SciTegic.value.DoubleValue
11.205

@<SCITEGIC>MOL_PROPERTY
Idih
SciTegic.value.DoubleValue
0.000

@<SCITEGIC>MOL_PROPERTY
Tether
SciTegic.value.DoubleValue
0.000

@<TRIPOS>MOLECULE
guest-s20_confgen4.mol2 : confsearch ligand conformer 89
          17          16           1
SMALL
USER_CHARGES
 
@<TRIPOS>ATOM
       1    C1      18.460749   16.683830   22.480987 C.2        1 MOL1         0.6132
       2    O1      17.343634   17.149019   22.369330 O.co2      1 MOL1        -0.6749
       3    O2      18.833635   15.684135   21.899122 O.co2      1 MOL1        -0.6749
       4    C2      19.445467   17.383943   23.408349 C.3        1 MOL1        -0.1955
       5    H1      19.983327   16.611434   23.969973 H          1 MOL1         0.0733
       6    H2      18.873051   17.970518   24.136994 H          1 MOL1         0.0733
       7    C3      20.428515   18.260867   22.656430 C.2        1 MOL1        -0.1395
       8    H3      21.139073   17.727693   22.025519 H          1 MOL1         0.0816
       9    C4      20.451512   19.595278   22.727375 C.2        1 MOL1        -0.1394
      10    H4      19.737431   20.128168   23.354412 H          1 MOL1         0.0816
      11    C5      21.430727   20.467996   21.974489 C.3        1 MOL1        -0.1826
      12    H5      21.874373   21.203644   22.658977 H          1 MOL1         0.0736
      13    H6      22.259568   19.864022   21.580221 H          1 MOL1         0.0736
      14    C6      20.736418   21.202096   20.810864 C.3        1 MOL1        -0.2882
      15    H7      19.926735   21.844780   21.180723 H          1 MOL1         0.0749
      16    H8      21.451542   21.833506   20.267737 H          1 MOL1         0.0749
      17    H9      20.305821   20.485080   20.099418 H          1 MOL1         0.0749
@<TRIPOS>BOND
    1     1     2    1
    2     1     3    2
    3     1     4    1
    4     4     5    1
    5     4     6    1
    6     4     7    1
    7     7     8    1
    8     7     9    2
    9     9    10    1
   10     9    11    1
   11    11    12    1
   12    11    13    1
   13    11    14    1
   14    14    15    1
   15    14    16    1
   16    14    17    1
@<TRIPOS>SUBSTRUCTURE
       1 MOL1            1 RESIDUE      1      MOL     
@<SCITEGIC>MOL_PROPERTY
VConf Rank
SciTegic.value.IntegerValue
89

@<SCITEGIC>MOL_PROPERTY
Conf_Id
SciTegic.value.IntegerValue
7

@<SCITEGIC>MOL_PROPERTY
Delta U+W
SciTegic.value.DoubleValue
-0.041

@<SCITEGIC>MOL_PROPERTY
U+W
SciTegic.value.DoubleValue
-49.468

@<SCITEGIC>MOL_PROPERTY
Grad RMS
SciTegic.value.DoubleValue
0.000000

@<SCITEGIC>MOL_PROPERTY
U
SciTegic.value.DoubleValue
14.121

@<SCITEGIC>MOL_PROPERTY
W
SciTegic.value.DoubleValue
-63.589

@<SCITEGIC>MOL_PROPERTY
W(PB)
SciTegic.value.DoubleValue
-65.660

@<SCITEGIC>MOL_PROPERTY
W(SA)
SciTegic.value.DoubleValue
2.071

@<SCITEGIC>MOL_PROPERTY
Valence
SciTegic.value.DoubleValue
15.230

@<SCITEGIC>MOL_PROPERTY
Coulomb
SciTegic.value.DoubleValue
-1.333

@<SCITEGIC>MOL_PROPERTY
VdW
SciTegic.value.DoubleValue
0.224

@<SCITEGIC>MOL_PROPERTY
VdW6
SciTegic.value.DoubleValue
-4.212

@<SCITEGIC>MOL_PROPERTY
VdW12
SciTegic.value.DoubleValue
4.436

@<SCITEGIC>MOL_PROPERTY
Bond
SciTegic.value.DoubleValue
0.044

@<SCITEGIC>MOL_PROPERTY
Angle
SciTegic.value.DoubleValue
2.230

@<SCITEGIC>MOL_PROPERTY
Pdih
SciTegic.value.DoubleValue
12.956

@<SCITEGIC>MOL_PROPERTY
Idih
SciTegic.value.DoubleValue
0.000

@<SCITEGIC>MOL_PROPERTY
Tether
SciTegic.value.DoubleValue
0.000

@<TRIPOS>MOLECULE
guest-s20_confgen4.mol2 : confsearch ligand conformer 90
          17          16           1
SMALL
USER_CHARGES
 
@<TRIPOS>ATOM
       1    C1      22.615681   19.340276   23.467394 C.2        1 MOL1         0.6132
       2    O1      22.962844   20.477192   23.214623 O.co2      1 MOL1        -0.6749
       3    O2      23.281495   18.359669   23.198723 O.co2      1 MOL1        -0.6749
       4    C2      21.285458   19.134488   24.185541 C.3        1 MOL1        -0.1955
       5    H1      21.120087   19.997515   24.840984 H          1 MOL1         0.0733
       6    H2      21.392567   18.268359   24.848917 H          1 MOL1         0.0733
       7    C3      20.074997   18.939723   23.283472 C.2        1 MOL1        -0.1395
       8    H3      19.136110   18.794474   23.816333 H          1 MOL1         0.0816
       9    C4      20.083543   18.936860   21.945222 C.2        1 MOL1        -0.1394
      10    H4      21.008501   19.080793   21.388022 H          1 MOL1         0.0816
      11    C5      18.849575   18.737039   21.093555 C.3        1 MOL1        -0.1826
      12    H5      19.053337   17.988341   20.316090 H          1 MOL1         0.0736
      13    H6      18.022252   18.343989   21.700351 H          1 MOL1         0.0736
      14    C6      18.413514   20.058881   20.432025 C.3        1 MOL1        -0.2882
      15    H7      17.518738   19.907733   19.814295 H          1 MOL1         0.0749
      16    H8      18.179372   20.816240   21.191747 H          1 MOL1         0.0749
      17    H9      19.209337   20.455499   19.787961 H          1 MOL1         0.0749
@<TRIPOS>BOND
    1     1     2    1
    2     1     3    2
    3     1     4    1
    4     4     5    1
    5     4     6    1
    6     4     7    1
    7     7     8    1
    8     7     9    2
    9     9    10    1
   10     9    11    1
   11    11    12    1
   12    11    13    1
   13    11    14    1
   14    14    15    1
   15    14    16    1
   16    14    17    1
@<TRIPOS>SUBSTRUCTURE
       1 MOL1            1 RESIDUE      1      MOL     
@<SCITEGIC>MOL_PROPERTY
VConf Rank
SciTegic.value.IntegerValue
90

@<SCITEGIC>MOL_PROPERTY
Conf_Id
SciTegic.value.IntegerValue
39

@<SCITEGIC>MOL_PROPERTY
Delta U+W
SciTegic.value.DoubleValue
-0.422

@<SCITEGIC>MOL_PROPERTY
U+W
SciTegic.value.DoubleValue
-49.849

@<SCITEGIC>MOL_PROPERTY
Grad RMS
SciTegic.value.DoubleValue
0.000000

@<SCITEGIC>MOL_PROPERTY
U
SciTegic.value.DoubleValue
14.465

@<SCITEGIC>MOL_PROPERTY
W
SciTegic.value.DoubleValue
-64.314

@<SCITEGIC>MOL_PROPERTY
W(PB)
SciTegic.value.DoubleValue
-66.406

@<SCITEGIC>MOL_PROPERTY
W(SA)
SciTegic.value.DoubleValue
2.093

@<SCITEGIC>MOL_PROPERTY
Valence
SciTegic.value.DoubleValue
14.072

@<SCITEGIC>MOL_PROPERTY
Coulomb
SciTegic.value.DoubleValue
-0.199

@<SCITEGIC>MOL_PROPERTY
VdW
SciTegic.value.DoubleValue
0.592

@<SCITEGIC>MOL_PROPERTY
VdW6
SciTegic.value.DoubleValue
-5.019

@<SCITEGIC>MOL_PROPERTY
VdW12
SciTegic.value.DoubleValue
5.611

@<SCITEGIC>MOL_PROPERTY
Bond
SciTegic.value.DoubleValue
0.085

@<SCITEGIC>MOL_PROPERTY
Angle
SciTegic.value.DoubleValue
2.748

@<SCITEGIC>MOL_PROPERTY
Pdih
SciTegic.value.DoubleValue
11.238

@<SCITEGIC>MOL_PROPERTY
Idih
SciTegic.value.DoubleValue
0.001

@<SCITEGIC>MOL_PROPERTY
Tether
SciTegic.value.DoubleValue
0.000

@<TRIPOS>MOLECULE
guest-s20_confgen4.mol2 : confsearch ligand conformer 91
          17          16           1
SMALL
USER_CHARGES
 
@<TRIPOS>ATOM
       1    C1      21.046499   17.069822   24.174538 C.2        1 MOL1         0.6132
       2    O1      20.411198   16.989801   25.207471 O.co2      1 MOL1        -0.6749
       3    O2      22.255626   16.961341   24.119203 O.co2      1 MOL1        -0.6749
       4    C2      20.283269   17.313991   22.879368 C.3        1 MOL1        -0.1955
       5    H1      19.373758   16.702781   22.906233 H          1 MOL1         0.0733
       6    H2      20.893601   16.944420   22.046570 H          1 MOL1         0.0733
       7    C3      19.923642   18.774500   22.683593 C.2        1 MOL1        -0.1395
       8    H3      19.189679   19.170739   23.384659 H          1 MOL1         0.0816
       9    C4      20.447102   19.556204   21.734301 C.2        1 MOL1        -0.1394
      10    H4      21.183195   19.160133   21.035476 H          1 MOL1         0.0816
      11    C5      20.090108   21.013348   21.542965 C.3        1 MOL1        -0.1826
      12    H5      19.555722   21.396947   22.423024 H          1 MOL1         0.0736
      13    H6      21.007221   21.610075   21.446243 H          1 MOL1         0.0736
      14    C6      19.215133   21.209245   20.289529 C.3        1 MOL1        -0.2882
      15    H7      18.279247   20.641391   20.374735 H          1 MOL1         0.0749
      16    H8      18.959885   22.268488   20.155593 H          1 MOL1         0.0749
      17    H9      19.740831   20.868881   19.387740 H          1 MOL1         0.0749
@<TRIPOS>BOND
    1     1     2    1
    2     1     3    2
    3     1     4    1
    4     4     5    1
    5     4     6    1
    6     4     7    1
    7     7     8    1
    8     7     9    2
    9     9    10    1
   10     9    11    1
   11    11    12    1
   12    11    13    1
   13    11    14    1
   14    14    15    1
   15    14    16    1
   16    14    17    1
@<TRIPOS>SUBSTRUCTURE
       1 MOL1            1 RESIDUE      1      MOL     
@<SCITEGIC>MOL_PROPERTY
VConf Rank
SciTegic.value.IntegerValue
91

@<SCITEGIC>MOL_PROPERTY
Conf_Id
SciTegic.value.IntegerValue
38

@<SCITEGIC>MOL_PROPERTY
Delta U+W
SciTegic.value.DoubleValue
0.000

@<SCITEGIC>MOL_PROPERTY
U+W
SciTegic.value.DoubleValue
-49.427

@<SCITEGIC>MOL_PROPERTY
Grad RMS
SciTegic.value.DoubleValue
0.000000

@<SCITEGIC>MOL_PROPERTY
U
SciTegic.value.DoubleValue
13.666

@<SCITEGIC>MOL_PROPERTY
W
SciTegic.value.DoubleValue
-63.093

@<SCITEGIC>MOL_PROPERTY
W(PB)
SciTegic.value.DoubleValue
-65.225

@<SCITEGIC>MOL_PROPERTY
W(SA)
SciTegic.value.DoubleValue
2.132

@<SCITEGIC>MOL_PROPERTY
Valence
SciTegic.value.DoubleValue
15.226

@<SCITEGIC>MOL_PROPERTY
Coulomb
SciTegic.value.DoubleValue
-1.822

@<SCITEGIC>MOL_PROPERTY
VdW
SciTegic.value.DoubleValue
0.261

@<SCITEGIC>MOL_PROPERTY
VdW6
SciTegic.value.DoubleValue
-4.165

@<SCITEGIC>MOL_PROPERTY
VdW12
SciTegic.value.DoubleValue
4.426

@<SCITEGIC>MOL_PROPERTY
Bond
SciTegic.value.DoubleValue
0.044

@<SCITEGIC>MOL_PROPERTY
Angle
SciTegic.value.DoubleValue
2.229

@<SCITEGIC>MOL_PROPERTY
Pdih
SciTegic.value.DoubleValue
12.953

@<SCITEGIC>MOL_PROPERTY
Idih
SciTegic.value.DoubleValue
0.000

@<SCITEGIC>MOL_PROPERTY
Tether
SciTegic.value.DoubleValue
0.000

@<TRIPOS>MOLECULE
guest-s20_confgen4.mol2 : confsearch ligand conformer 92
          17          16           1
SMALL
USER_CHARGES
 
@<TRIPOS>ATOM
       1    C1      16.961141   18.768032   22.153718 C.2        1 MOL1         0.6132
       2    O1      16.741411   17.670248   22.626377 O.co2      1 MOL1        -0.6749
       3    O2      16.320769   19.245816   21.237963 O.co2      1 MOL1        -0.6749
       4    C2      18.096916   19.593969   22.743167 C.3        1 MOL1        -0.1955
       5    H1      18.275878   19.248758   23.768565 H          1 MOL1         0.0733
       6    H2      17.755551   20.633457   22.809823 H          1 MOL1         0.0733
       7    C3      19.364330   19.514209   21.913682 C.2        1 MOL1        -0.1395
       8    H3      19.308964   19.986357   20.933268 H          1 MOL1         0.0816
       9    C4      20.489171   18.915293   22.316497 C.2        1 MOL1        -0.1394
      10    H4      20.542825   18.440598   23.295704 H          1 MOL1         0.0816
      11    C5      21.750750   18.833294   21.486426 C.3        1 MOL1        -0.1826
      12    H5      22.125262   17.800697   21.482244 H          1 MOL1         0.0736
      13    H6      21.540598   19.096693   20.440636 H          1 MOL1         0.0736
      14    C6      22.839963   19.772585   22.039966 C.3        1 MOL1        -0.2882
      15    H7      23.097690   19.507230   23.073693 H          1 MOL1         0.0749
      16    H8      23.753095   19.708202   21.434052 H          1 MOL1         0.0749
      17    H9      22.497209   20.815666   22.029876 H          1 MOL1         0.0749
@<TRIPOS>BOND
    1     1     2    1
    2     1     3    2
    3     1     4    1
    4     4     5    1
    5     4     6    1
    6     4     7    1
    7     7     8    1
    8     7     9    2
    9     9    10    1
   10     9    11    1
   11    11    12    1
   12    11    13    1
   13    11    14    1
   14    14    15    1
   15    14    16    1
   16    14    17    1
@<TRIPOS>SUBSTRUCTURE
       1 MOL1            1 RESIDUE      1      MOL     
@<SCITEGIC>MOL_PROPERTY
VConf Rank
SciTegic.value.IntegerValue
92

@<SCITEGIC>MOL_PROPERTY
Conf_Id
SciTegic.value.IntegerValue
35

@<SCITEGIC>MOL_PROPERTY
Delta U+W
SciTegic.value.DoubleValue
-0.102

@<SCITEGIC>MOL_PROPERTY
U+W
SciTegic.value.DoubleValue
-49.529

@<SCITEGIC>MOL_PROPERTY
Grad RMS
SciTegic.value.DoubleValue
0.000000

@<SCITEGIC>MOL_PROPERTY
U
SciTegic.value.DoubleValue
13.666

@<SCITEGIC>MOL_PROPERTY
W
SciTegic.value.DoubleValue
-63.195

@<SCITEGIC>MOL_PROPERTY
W(PB)
SciTegic.value.DoubleValue
-65.299

@<SCITEGIC>MOL_PROPERTY
W(SA)
SciTegic.value.DoubleValue
2.103

@<SCITEGIC>MOL_PROPERTY
Valence
SciTegic.value.DoubleValue
15.226

@<SCITEGIC>MOL_PROPERTY
Coulomb
SciTegic.value.DoubleValue
-1.822

@<SCITEGIC>MOL_PROPERTY
VdW
SciTegic.value.DoubleValue
0.261

@<SCITEGIC>MOL_PROPERTY
VdW6
SciTegic.value.DoubleValue
-4.165

@<SCITEGIC>MOL_PROPERTY
VdW12
SciTegic.value.DoubleValue
4.426

@<SCITEGIC>MOL_PROPERTY
Bond
SciTegic.value.DoubleValue
0.044

@<SCITEGIC>MOL_PROPERTY
Angle
SciTegic.value.DoubleValue
2.229

@<SCITEGIC>MOL_PROPERTY
Pdih
SciTegic.value.DoubleValue
12.953

@<SCITEGIC>MOL_PROPERTY
Idih
SciTegic.value.DoubleValue
0.000

@<SCITEGIC>MOL_PROPERTY
Tether
SciTegic.value.DoubleValue
0.000

@<TRIPOS>MOLECULE
guest-s20_confgen4.mol2 : confsearch ligand conformer 93
          17          16           1
SMALL
USER_CHARGES
 
@<TRIPOS>ATOM
       1    C1      23.106143   19.668346   22.464162 C.2        1 MOL1         0.6132
       2    O1      23.736152   18.629370   22.439919 O.co2      1 MOL1        -0.6749
       3    O2      23.420828   20.659854   21.835884 O.co2      1 MOL1        -0.6749
       4    C2      21.859986   19.732145   23.337499 C.3        1 MOL1        -0.1955
       5    H1      21.671720   20.782526   23.590167 H          1 MOL1         0.0733
       6    H2      22.082145   19.211685   24.276263 H          1 MOL1         0.0733
       7    C3      20.650185   19.106651   22.669259 C.2        1 MOL1        -0.1395
       8    H3      20.712361   18.028149   22.534884 H          1 MOL1         0.0816
       9    C4      19.579968   19.800271   22.261536 C.2        1 MOL1        -0.1394
      10    H4      19.555428   20.879499   22.409017 H          1 MOL1         0.0816
      11    C5      18.340012   19.241026   21.584526 C.3        1 MOL1        -0.1826
      12    H5      17.457115   19.506575   22.181587 H          1 MOL1         0.0736
      13    H6      18.204463   19.744115   20.617546 H          1 MOL1         0.0736
      14    C6      18.353500   17.713027   21.358551 C.3        1 MOL1        -0.2882
      15    H7      18.433416   17.174415   22.311919 H          1 MOL1         0.0749
      16    H8      17.427671   17.388649   20.865957 H          1 MOL1         0.0749
      17    H9      19.195770   17.416819   20.719542 H          1 MOL1         0.0749
@<TRIPOS>BOND
    1     1     2    1
    2     1     3    2
    3     1     4    1
    4     4     5    1
    5     4     6    1
    6     4     7    1
    7     7     8    1
    8     7     9    2
    9     9    10    1
   10     9    11    1
   11    11    12    1
   12    11    13    1
   13    11    14    1
   14    14    15    1
   15    14    16    1
   16    14    17    1
@<TRIPOS>SUBSTRUCTURE
       1 MOL1            1 RESIDUE      1      MOL     
@<SCITEGIC>MOL_PROPERTY
VConf Rank
SciTegic.value.IntegerValue
93

@<SCITEGIC>MOL_PROPERTY
Conf_Id
SciTegic.value.IntegerValue
19

@<SCITEGIC>MOL_PROPERTY
Delta U+W
SciTegic.value.DoubleValue
-0.496

@<SCITEGIC>MOL_PROPERTY
U+W
SciTegic.value.DoubleValue
-49.923

@<SCITEGIC>MOL_PROPERTY
Grad RMS
SciTegic.value.DoubleValue
0.000000

@<SCITEGIC>MOL_PROPERTY
U
SciTegic.value.DoubleValue
13.863

@<SCITEGIC>MOL_PROPERTY
W
SciTegic.value.DoubleValue
-63.786

@<SCITEGIC>MOL_PROPERTY
W(PB)
SciTegic.value.DoubleValue
-65.856

@<SCITEGIC>MOL_PROPERTY
W(SA)
SciTegic.value.DoubleValue
2.070

@<SCITEGIC>MOL_PROPERTY
Valence
SciTegic.value.DoubleValue
14.117

@<SCITEGIC>MOL_PROPERTY
Coulomb
SciTegic.value.DoubleValue
-1.228

@<SCITEGIC>MOL_PROPERTY
VdW
SciTegic.value.DoubleValue
0.974

@<SCITEGIC>MOL_PROPERTY
VdW6
SciTegic.value.DoubleValue
-4.885

@<SCITEGIC>MOL_PROPERTY
VdW12
SciTegic.value.DoubleValue
5.859

@<SCITEGIC>MOL_PROPERTY
Bond
SciTegic.value.DoubleValue
0.094

@<SCITEGIC>MOL_PROPERTY
Angle
SciTegic.value.DoubleValue
2.818

@<SCITEGIC>MOL_PROPERTY
Pdih
SciTegic.value.DoubleValue
11.205

@<SCITEGIC>MOL_PROPERTY
Idih
SciTegic.value.DoubleValue
0.000

@<SCITEGIC>MOL_PROPERTY
Tether
SciTegic.value.DoubleValue
0.000

@<TRIPOS>MOLECULE
guest-s20_confgen4.mol2 : confsearch ligand conformer 94
          17          16           1
SMALL
USER_CHARGES
 
@<TRIPOS>ATOM
       1    C1      20.094162   19.301990   25.137434 C.2        1 MOL1         0.6132
       2    O1      20.360859   18.171323   25.494194 O.co2      1 MOL1        -0.6749
       3    O2      20.609264   20.295373   25.611630 O.co2      1 MOL1        -0.6749
       4    C2      19.050006   19.487183   24.044149 C.3        1 MOL1        -0.1955
       5    H1      18.412386   20.331694   24.330027 H          1 MOL1         0.0733
       6    H2      18.411893   18.595512   24.024429 H          1 MOL1         0.0733
       7    C3      19.671800   19.740930   22.684095 C.2        1 MOL1        -0.1395
       8    H3      20.195003   20.691216   22.581968 H          1 MOL1         0.0816
       9    C4      19.613090   18.884562   21.659691 C.2        1 MOL1        -0.1394
      10    H4      19.094198   17.932233   21.763995 H          1 MOL1         0.0816
      11    C5      20.236312   19.138259   20.305229 C.3        1 MOL1        -0.1826
      12    H5      19.506294   18.919707   19.514135 H          1 MOL1         0.0736
      13    H6      20.508296   20.197537   20.199568 H          1 MOL1         0.0736
      14    C6      21.491093   18.267036   20.101547 C.3        1 MOL1        -0.2882
      15    H7      21.241133   17.199745   20.163479 H          1 MOL1         0.0749
      16    H8      21.939524   18.455427   19.117430 H          1 MOL1         0.0749
      17    H9      22.246264   18.486284   20.867921 H          1 MOL1         0.0749
@<TRIPOS>BOND
    1     1     2    1
    2     1     3    2
    3     1     4    1
    4     4     5    1
    5     4     6    1
    6     4     7    1
    7     7     8    1
    8     7     9    2
    9     9    10    1
   10     9    11    1
   11    11    12    1
   12    11    13    1
   13    11    14    1
   14    14    15    1
   15    14    16    1
   16    14    17    1
@<TRIPOS>SUBSTRUCTURE
       1 MOL1            1 RESIDUE      1      MOL     
@<SCITEGIC>MOL_PROPERTY
VConf Rank
SciTegic.value.IntegerValue
94

@<SCITEGIC>MOL_PROPERTY
Conf_Id
SciTegic.value.IntegerValue
7

@<SCITEGIC>MOL_PROPERTY
Delta U+W
SciTegic.value.DoubleValue
-0.041

@<SCITEGIC>MOL_PROPERTY
U+W
SciTegic.value.DoubleValue
-49.468

@<SCITEGIC>MOL_PROPERTY
Grad RMS
SciTegic.value.DoubleValue
0.000000

@<SCITEGIC>MOL_PROPERTY
U
SciTegic.value.DoubleValue
14.121

@<SCITEGIC>MOL_PROPERTY
W
SciTegic.value.DoubleValue
-63.589

@<SCITEGIC>MOL_PROPERTY
W(PB)
SciTegic.value.DoubleValue
-65.660

@<SCITEGIC>MOL_PROPERTY
W(SA)
SciTegic.value.DoubleValue
2.071

@<SCITEGIC>MOL_PROPERTY
Valence
SciTegic.value.DoubleValue
15.230

@<SCITEGIC>MOL_PROPERTY
Coulomb
SciTegic.value.DoubleValue
-1.333

@<SCITEGIC>MOL_PROPERTY
VdW
SciTegic.value.DoubleValue
0.224

@<SCITEGIC>MOL_PROPERTY
VdW6
SciTegic.value.DoubleValue
-4.212

@<SCITEGIC>MOL_PROPERTY
VdW12
SciTegic.value.DoubleValue
4.436

@<SCITEGIC>MOL_PROPERTY
Bond
SciTegic.value.DoubleValue
0.044

@<SCITEGIC>MOL_PROPERTY
Angle
SciTegic.value.DoubleValue
2.230

@<SCITEGIC>MOL_PROPERTY
Pdih
SciTegic.value.DoubleValue
12.956

@<SCITEGIC>MOL_PROPERTY
Idih
SciTegic.value.DoubleValue
0.000

@<SCITEGIC>MOL_PROPERTY
Tether
SciTegic.value.DoubleValue
0.000

@<TRIPOS>MOLECULE
guest-s20_confgen4.mol2 : confsearch ligand conformer 95
          17          16           1
SMALL
USER_CHARGES
 
@<TRIPOS>ATOM
       1    C1      20.415161   16.527255   22.179227 C.2        1 MOL1         0.6132
       2    O1      19.544029   16.230176   21.385586 O.co2      1 MOL1        -0.6749
       3    O2      20.506573   16.040421   23.289055 O.co2      1 MOL1        -0.6749
       4    C2      21.466804   17.545430   21.749178 C.3        1 MOL1        -0.1955
       5    H1      21.617787   17.437084   20.668792 H          1 MOL1         0.0733
       6    H2      22.417695   17.263536   22.216149 H          1 MOL1         0.0733
       7    C3      21.148181   18.997376   22.076606 C.2        1 MOL1        -0.1395
       8    H3      21.911815   19.707243   21.761176 H          1 MOL1         0.0816
       9    C4      20.046692   19.441201   22.693645 C.2        1 MOL1        -0.1394
      10    H4      19.267449   18.752706   23.018435 H          1 MOL1         0.0816
      11    C5      19.778380   20.898480   22.997432 C.3        1 MOL1        -0.1826
      12    H5      19.459411   21.006287   24.042973 H          1 MOL1         0.0736
      13    H6      20.697010   21.490740   22.885625 H          1 MOL1         0.0736
      14    C6      18.689092   21.466500   22.066926 C.3        1 MOL1        -0.2882
      15    H7      18.497529   22.523569   22.292687 H          1 MOL1         0.0749
      16    H8      18.997301   21.392813   21.015655 H          1 MOL1         0.0749
      17    H9      17.746497   20.916255   22.186109 H          1 MOL1         0.0749
@<TRIPOS>BOND
    1     1     2    1
    2     1     3    2
    3     1     4    1
    4     4     5    1
    5     4     6    1
    6     4     7    1
    7     7     8    1
    8     7     9    2
    9     9    10    1
   10     9    11    1
   11    11    12    1
   12    11    13    1
   13    11    14    1
   14    14    15    1
   15    14    16    1
   16    14    17    1
@<TRIPOS>SUBSTRUCTURE
       1 MOL1            1 RESIDUE      1      MOL     
@<SCITEGIC>MOL_PROPERTY
VConf Rank
SciTegic.value.IntegerValue
95

@<SCITEGIC>MOL_PROPERTY
Conf_Id
SciTegic.value.IntegerValue
39

@<SCITEGIC>MOL_PROPERTY
Delta U+W
SciTegic.value.DoubleValue
-0.422

@<SCITEGIC>MOL_PROPERTY
U+W
SciTegic.value.DoubleValue
-49.849

@<SCITEGIC>MOL_PROPERTY
Grad RMS
SciTegic.value.DoubleValue
0.000000

@<SCITEGIC>MOL_PROPERTY
U
SciTegic.value.DoubleValue
14.465

@<SCITEGIC>MOL_PROPERTY
W
SciTegic.value.DoubleValue
-64.314

@<SCITEGIC>MOL_PROPERTY
W(PB)
SciTegic.value.DoubleValue
-66.406

@<SCITEGIC>MOL_PROPERTY
W(SA)
SciTegic.value.DoubleValue
2.093

@<SCITEGIC>MOL_PROPERTY
Valence
SciTegic.value.DoubleValue
14.072

@<SCITEGIC>MOL_PROPERTY
Coulomb
SciTegic.value.DoubleValue
-0.199

@<SCITEGIC>MOL_PROPERTY
VdW
SciTegic.value.DoubleValue
0.592

@<SCITEGIC>MOL_PROPERTY
VdW6
SciTegic.value.DoubleValue
-5.019

@<SCITEGIC>MOL_PROPERTY
VdW12
SciTegic.value.DoubleValue
5.611

@<SCITEGIC>MOL_PROPERTY
Bond
SciTegic.value.DoubleValue
0.085

@<SCITEGIC>MOL_PROPERTY
Angle
SciTegic.value.DoubleValue
2.748

@<SCITEGIC>MOL_PROPERTY
Pdih
SciTegic.value.DoubleValue
11.238

@<SCITEGIC>MOL_PROPERTY
Idih
SciTegic.value.DoubleValue
0.001

@<SCITEGIC>MOL_PROPERTY
Tether
SciTegic.value.DoubleValue
0.000

@<TRIPOS>MOLECULE
guest-s20_confgen4.mol2 : confsearch ligand conformer 96
          17          16           1
SMALL
USER_CHARGES
 
@<TRIPOS>ATOM
       1    C1      21.976748   16.734807   21.816715 C.2        1 MOL1         0.6132
       2    O1      21.420953   15.670693   21.627735 O.co2      1 MOL1        -0.6749
       3    O2      22.943969   16.868569   22.540186 O.co2      1 MOL1        -0.6749
       4    C2      21.433174   17.965425   21.102774 C.3        1 MOL1        -0.1955
       5    H1      21.168387   17.670164   20.080905 H          1 MOL1         0.0733
       6    H2      22.241969   18.701877   21.024474 H          1 MOL1         0.0733
       7    C3      20.225038   18.557165   21.803486 C.2        1 MOL1        -0.1395
       8    H3      19.325974   17.942097   21.779481 H          1 MOL1         0.0816
       9    C4      20.220569   19.742696   22.420514 C.2        1 MOL1        -0.1394
      10    H4      21.120774   20.355888   22.446702 H          1 MOL1         0.0816
      11    C5      19.015989   20.329457   23.121955 C.3        1 MOL1        -0.1826
      12    H5      18.247075   19.559540   23.274335 H          1 MOL1         0.0736
      13    H6      19.305640   20.687361   24.119222 H          1 MOL1         0.0736
      14    C6      18.416734   21.495408   22.311700 C.3        1 MOL1        -0.2882
      15    H7      18.095694   21.155358   21.318271 H          1 MOL1         0.0749
      16    H8      17.543504   21.917456   22.825927 H          1 MOL1         0.0749
      17    H9      19.153522   22.298147   22.176859 H          1 MOL1         0.0749
@<TRIPOS>BOND
    1     1     2    1
    2     1     3    2
    3     1     4    1
    4     4     5    1
    5     4     6    1
    6     4     7    1
    7     7     8    1
    8     7     9    2
    9     9    10    1
   10     9    11    1
   11    11    12    1
   12    11    13    1
   13    11    14    1
   14    14    15    1
   15    14    16    1
   16    14    17    1
@<TRIPOS>SUBSTRUCTURE
       1 MOL1            1 RESIDUE      1      MOL     
@<SCITEGIC>MOL_PROPERTY
VConf Rank
SciTegic.value.IntegerValue
96

@<SCITEGIC>MOL_PROPERTY
Conf_Id
SciTegic.value.IntegerValue
38

@<SCITEGIC>MOL_PROPERTY
Delta U+W
SciTegic.value.DoubleValue
0.000

@<SCITEGIC>MOL_PROPERTY
U+W
SciTegic.value.DoubleValue
-49.427

@<SCITEGIC>MOL_PROPERTY
Grad RMS
SciTegic.value.DoubleValue
0.000000

@<SCITEGIC>MOL_PROPERTY
U
SciTegic.value.DoubleValue
13.666

@<SCITEGIC>MOL_PROPERTY
W
SciTegic.value.DoubleValue
-63.093

@<SCITEGIC>MOL_PROPERTY
W(PB)
SciTegic.value.DoubleValue
-65.225

@<SCITEGIC>MOL_PROPERTY
W(SA)
SciTegic.value.DoubleValue
2.132

@<SCITEGIC>MOL_PROPERTY
Valence
SciTegic.value.DoubleValue
15.226

@<SCITEGIC>MOL_PROPERTY
Coulomb
SciTegic.value.DoubleValue
-1.822

@<SCITEGIC>MOL_PROPERTY
VdW
SciTegic.value.DoubleValue
0.261

@<SCITEGIC>MOL_PROPERTY
VdW6
SciTegic.value.DoubleValue
-4.165

@<SCITEGIC>MOL_PROPERTY
VdW12
SciTegic.value.DoubleValue
4.426

@<SCITEGIC>MOL_PROPERTY
Bond
SciTegic.value.DoubleValue
0.044

@<SCITEGIC>MOL_PROPERTY
Angle
SciTegic.value.DoubleValue
2.229

@<SCITEGIC>MOL_PROPERTY
Pdih
SciTegic.value.DoubleValue
12.953

@<SCITEGIC>MOL_PROPERTY
Idih
SciTegic.value.DoubleValue
0.000

@<SCITEGIC>MOL_PROPERTY
Tether
SciTegic.value.DoubleValue
0.000

@<TRIPOS>MOLECULE
guest-s20_confgen4.mol2 : confsearch ligand conformer 97
          17          16           1
SMALL
USER_CHARGES
 
@<TRIPOS>ATOM
       1    C1      22.185189   20.305293   19.975877 C.2        1 MOL1         0.6132
       2    O1      22.189999   19.551748   19.022480 O.co2      1 MOL1        -0.6749
       3    O2      23.184358   20.840037   20.414818 O.co2      1 MOL1        -0.6749
       4    C2      20.854878   20.601286   20.655777 C.3        1 MOL1        -0.1955
       5    H1      20.051448   20.417585   19.932317 H          1 MOL1         0.0733
       6    H2      20.831951   21.670594   20.895695 H          1 MOL1         0.0733
       7    C3      20.650779   19.780546   21.914933 C.2        1 MOL1        -0.1395
       8    H3      21.316473   20.024741   22.742230 H          1 MOL1         0.0816
       9    C4      19.734407   18.816072   22.042533 C.2        1 MOL1        -0.1394
      10    H4      19.071198   18.570247   21.213809 H          1 MOL1         0.0816
      11    C5      19.534972   17.996013   23.297542 C.3        1 MOL1        -0.1826
      12    H5      19.489135   16.929220   23.039890 H          1 MOL1         0.0736
      13    H6      20.389219   18.119747   23.977374 H          1 MOL1         0.0736
      14    C6      18.239920   18.404644   24.026186 C.3        1 MOL1        -0.2882
      15    H7      17.363828   18.254675   23.381671 H          1 MOL1         0.0749
      16    H8      18.100269   17.805757   24.935536 H          1 MOL1         0.0749
      17    H9      18.273502   19.462900   24.316990 H          1 MOL1         0.0749
@<TRIPOS>BOND
    1     1     2    1
    2     1     3    2
    3     1     4    1
    4     4     5    1
    5     4     6    1
    6     4     7    1
    7     7     8    1
    8     7     9    2
    9     9    10    1
   10     9    11    1
   11    11    12    1
   12    11    13    1
   13    11    14    1
   14    14    15    1
   15    14    16    1
   16    14    17    1
@<TRIPOS>SUBSTRUCTURE
       1 MOL1            1 RESIDUE      1      MOL     
@<SCITEGIC>MOL_PROPERTY
VConf Rank
SciTegic.value.IntegerValue
97

@<SCITEGIC>MOL_PROPERTY
Conf_Id
SciTegic.value.IntegerValue
35

@<SCITEGIC>MOL_PROPERTY
Delta U+W
SciTegic.value.DoubleValue
-0.102

@<SCITEGIC>MOL_PROPERTY
U+W
SciTegic.value.DoubleValue
-49.529

@<SCITEGIC>MOL_PROPERTY
Grad RMS
SciTegic.value.DoubleValue
0.000000

@<SCITEGIC>MOL_PROPERTY
U
SciTegic.value.DoubleValue
13.666

@<SCITEGIC>MOL_PROPERTY
W
SciTegic.value.DoubleValue
-63.195

@<SCITEGIC>MOL_PROPERTY
W(PB)
SciTegic.value.DoubleValue
-65.299

@<SCITEGIC>MOL_PROPERTY
W(SA)
SciTegic.value.DoubleValue
2.103

@<SCITEGIC>MOL_PROPERTY
Valence
SciTegic.value.DoubleValue
15.226

@<SCITEGIC>MOL_PROPERTY
Coulomb
SciTegic.value.DoubleValue
-1.822

@<SCITEGIC>MOL_PROPERTY
VdW
SciTegic.value.DoubleValue
0.261

@<SCITEGIC>MOL_PROPERTY
VdW6
SciTegic.value.DoubleValue
-4.165

@<SCITEGIC>MOL_PROPERTY
VdW12
SciTegic.value.DoubleValue
4.426

@<SCITEGIC>MOL_PROPERTY
Bond
SciTegic.value.DoubleValue
0.044

@<SCITEGIC>MOL_PROPERTY
Angle
SciTegic.value.DoubleValue
2.229

@<SCITEGIC>MOL_PROPERTY
Pdih
SciTegic.value.DoubleValue
12.953

@<SCITEGIC>MOL_PROPERTY
Idih
SciTegic.value.DoubleValue
0.000

@<SCITEGIC>MOL_PROPERTY
Tether
SciTegic.value.DoubleValue
0.000

@<TRIPOS>MOLECULE
guest-s20_confgen4.mol2 : confsearch ligand conformer 98
          17          16           1
SMALL
USER_CHARGES
 
@<TRIPOS>ATOM
       1    C1      21.101181   17.428888   19.935139 C.2        1 MOL1         0.6132
       2    O1      21.940783   18.021657   19.286553 O.co2      1 MOL1        -0.6749
       3    O2      21.201427   16.261315   20.256967 O.co2      1 MOL1        -0.6749
       4    C2      19.851715   18.189961   20.358575 C.3        1 MOL1        -0.1955
       5    H1      19.048790   17.462880   20.529604 H          1 MOL1         0.0733
       6    H2      19.540818   18.818248   19.515896 H          1 MOL1         0.0733
       7    C3      20.082947   19.046632   21.589042 C.2        1 MOL1        -0.1395
       8    H3      20.755313   19.889054   21.436271 H          1 MOL1         0.0816
       9    C4      19.523623   18.807397   22.781785 C.2        1 MOL1        -0.1394
      10    H4      18.859102   17.951801   22.897765 H          1 MOL1         0.0816
      11    C5      19.713485   19.618715   24.052338 C.3        1 MOL1        -0.1826
      12    H5      18.732381   19.965227   24.404290 H          1 MOL1         0.0736
      13    H6      20.094285   18.958372   24.843197 H          1 MOL1         0.0736
      14    C6      20.656755   20.834206   23.915033 C.3        1 MOL1        -0.2882
      15    H7      20.277633   21.544878   23.168967 H          1 MOL1         0.0749
      16    H8      20.742010   21.365228   24.871995 H          1 MOL1         0.0749
      17    H9      21.664615   20.518662   23.614803 H          1 MOL1         0.0749
@<TRIPOS>BOND
    1     1     2    1
    2     1     3    2
    3     1     4    1
    4     4     5    1
    5     4     6    1
    6     4     7    1
    7     7     8    1
    8     7     9    2
    9     9    10    1
   10     9    11    1
   11    11    12    1
   12    11    13    1
   13    11    14    1
   14    14    15    1
   15    14    16    1
   16    14    17    1
@<TRIPOS>SUBSTRUCTURE
       1 MOL1            1 RESIDUE      1      MOL     
@<SCITEGIC>MOL_PROPERTY
VConf Rank
SciTegic.value.IntegerValue
98

@<SCITEGIC>MOL_PROPERTY
Conf_Id
SciTegic.value.IntegerValue
19

@<SCITEGIC>MOL_PROPERTY
Delta U+W
SciTegic.value.DoubleValue
-0.496

@<SCITEGIC>MOL_PROPERTY
U+W
SciTegic.value.DoubleValue
-49.923

@<SCITEGIC>MOL_PROPERTY
Grad RMS
SciTegic.value.DoubleValue
0.000000

@<SCITEGIC>MOL_PROPERTY
U
SciTegic.value.DoubleValue
13.863

@<SCITEGIC>MOL_PROPERTY
W
SciTegic.value.DoubleValue
-63.786

@<SCITEGIC>MOL_PROPERTY
W(PB)
SciTegic.value.DoubleValue
-65.856

@<SCITEGIC>MOL_PROPERTY
W(SA)
SciTegic.value.DoubleValue
2.070

@<SCITEGIC>MOL_PROPERTY
Valence
SciTegic.value.DoubleValue
14.117

@<SCITEGIC>MOL_PROPERTY
Coulomb
SciTegic.value.DoubleValue
-1.228

@<SCITEGIC>MOL_PROPERTY
VdW
SciTegic.value.DoubleValue
0.974

@<SCITEGIC>MOL_PROPERTY
VdW6
SciTegic.value.DoubleValue
-4.885

@<SCITEGIC>MOL_PROPERTY
VdW12
SciTegic.value.DoubleValue
5.859

@<SCITEGIC>MOL_PROPERTY
Bond
SciTegic.value.DoubleValue
0.094

@<SCITEGIC>MOL_PROPERTY
Angle
SciTegic.value.DoubleValue
2.818

@<SCITEGIC>MOL_PROPERTY
Pdih
SciTegic.value.DoubleValue
11.205

@<SCITEGIC>MOL_PROPERTY
Idih
SciTegic.value.DoubleValue
0.000

@<SCITEGIC>MOL_PROPERTY
Tether
SciTegic.value.DoubleValue
0.000

@<TRIPOS>MOLECULE
guest-s20_confgen4.mol2 : confsearch ligand conformer 99
          17          16           1
SMALL
USER_CHARGES
 
@<TRIPOS>ATOM
       1    C1      20.896476   16.240058   22.522686 C.2        1 MOL1         0.6132
       2    O1      19.823802   15.679183   22.414972 O.co2      1 MOL1        -0.6749
       3    O2      21.904888   15.877578   21.949348 O.co2      1 MOL1        -0.6749
       4    C2      20.986932   17.457360   23.433631 C.3        1 MOL1        -0.1955
       5    H1      21.922643   17.382905   23.999659 H          1 MOL1         0.0733
       6    H2      20.167221   17.403976   24.160184 H          1 MOL1         0.0733
       7    C3      20.946550   18.763471   22.663432 C.2        1 MOL1        -0.1395
       8    H3      21.813464   18.958458   22.032833 H          1 MOL1         0.0816
       9    C4      19.936760   19.637246   22.718725 C.2        1 MOL1        -0.1394
      10    H4      19.067819   19.439319   23.345483 H          1 MOL1         0.0816
      11    C5      19.897154   20.937706   21.947640 C.3        1 MOL1        -0.1826
      12    H5      19.614402   21.759122   22.619837 H          1 MOL1         0.0736
      13    H6      20.893386   21.181382   21.553493 H          1 MOL1         0.0736
      14    C6      18.892785   20.859141   20.781423 C.3        1 MOL1        -0.2882
      15    H7      17.879204   20.654639   21.150555 H          1 MOL1         0.0749
      16    H8      18.868395   21.805158   20.225074 H          1 MOL1         0.0749
      17    H9      19.169694   20.059307   20.081946 H          1 MOL1         0.0749
@<TRIPOS>BOND
    1     1     2    1
    2     1     3    2
    3     1     4    1
    4     4     5    1
    5     4     6    1
    6     4     7    1
    7     7     8    1
    8     7     9    2
    9     9    10    1
   10     9    11    1
   11    11    12    1
   12    11    13    1
   13    11    14    1
   14    14    15    1
   15    14    16    1
   16    14    17    1
@<TRIPOS>SUBSTRUCTURE
       1 MOL1            1 RESIDUE      1      MOL     
@<SCITEGIC>MOL_PROPERTY
VConf Rank
SciTegic.value.IntegerValue
99

@<SCITEGIC>MOL_PROPERTY
Conf_Id
SciTegic.value.IntegerValue
7

@<SCITEGIC>MOL_PROPERTY
Delta U+W
SciTegic.value.DoubleValue
-0.041

@<SCITEGIC>MOL_PROPERTY
U+W
SciTegic.value.DoubleValue
-49.468

@<SCITEGIC>MOL_PROPERTY
Grad RMS
SciTegic.value.DoubleValue
0.000000

@<SCITEGIC>MOL_PROPERTY
U
SciTegic.value.DoubleValue
14.121

@<SCITEGIC>MOL_PROPERTY
W
SciTegic.value.DoubleValue
-63.589

@<SCITEGIC>MOL_PROPERTY
W(PB)
SciTegic.value.DoubleValue
-65.660

@<SCITEGIC>MOL_PROPERTY
W(SA)
SciTegic.value.DoubleValue
2.071

@<SCITEGIC>MOL_PROPERTY
Valence
SciTegic.value.DoubleValue
15.230

@<SCITEGIC>MOL_PROPERTY
Coulomb
SciTegic.value.DoubleValue
-1.333

@<SCITEGIC>MOL_PROPERTY
VdW
SciTegic.value.DoubleValue
0.224

@<SCITEGIC>MOL_PROPERTY
VdW6
SciTegic.value.DoubleValue
-4.212

@<SCITEGIC>MOL_PROPERTY
VdW12
SciTegic.value.DoubleValue
4.436

@<SCITEGIC>MOL_PROPERTY
Bond
SciTegic.value.DoubleValue
0.044

@<SCITEGIC>MOL_PROPERTY
Angle
SciTegic.value.DoubleValue
2.230

@<SCITEGIC>MOL_PROPERTY
Pdih
SciTegic.value.DoubleValue
12.956

@<SCITEGIC>MOL_PROPERTY
Idih
SciTegic.value.DoubleValue
0.000

@<SCITEGIC>MOL_PROPERTY
Tether
SciTegic.value.DoubleValue
0.000

@<TRIPOS>MOLECULE
guest-s20_confgen4.mol2 : confsearch ligand conformer 100
          17          16           1
SMALL
USER_CHARGES
 
@<TRIPOS>ATOM
       1    C1      21.080667   16.693320   22.003135 C.2        1 MOL1         0.6132
       2    O1      20.176592   16.177432   21.375839 O.co2      1 MOL1        -0.6749
       3    O2      21.506480   16.252386   23.052584 O.co2      1 MOL1        -0.6749
       4    C2      21.734962   17.946011   21.428470 C.3        1 MOL1        -0.1955
       5    H1      21.695716   17.874587   20.335251 H          1 MOL1         0.0733
       6    H2      22.798228   17.921376   21.694135 H          1 MOL1         0.0733
       7    C3      21.127854   19.268353   21.875358 C.2        1 MOL1        -0.1395
       8    H3      21.609831   20.149491   21.453648 H          1 MOL1         0.0816
       9    C4      20.091291   19.416302   22.708811 C.2        1 MOL1        -0.1394
      10    H4      19.590914   18.551837   23.143617 H          1 MOL1         0.0816
      11    C5      19.525907   20.756649   23.123242 C.3        1 MOL1        -0.1826
      12    H5      19.399354   20.784041   24.214001 H          1 MOL1         0.0736
      13    H6      20.224161   21.565210   22.866681 H          1 MOL1         0.0736
      14    C6      18.168808   21.019588   22.441934 C.3        1 MOL1        -0.2882
      15    H7      17.762646   21.992656   22.747271 H          1 MOL1         0.0749
      16    H8      18.275386   21.022355   21.349126 H          1 MOL1         0.0749
      17    H9      17.438607   20.245478   22.712153 H          1 MOL1         0.0749
@<TRIPOS>BOND
    1     1     2    1
    2     1     3    2
    3     1     4    1
    4     4     5    1
    5     4     6    1
    6     4     7    1
    7     7     8    1
    8     7     9    2
    9     9    10    1
   10     9    11    1
   11    11    12    1
   12    11    13    1
   13    11    14    1
   14    14    15    1
   15    14    16    1
   16    14    17    1
@<TRIPOS>SUBSTRUCTURE
       1 MOL1            1 RESIDUE      1      MOL     
@<SCITEGIC>MOL_PROPERTY
VConf Rank
SciTegic.value.IntegerValue
100

@<SCITEGIC>MOL_PROPERTY
Conf_Id
SciTegic.value.IntegerValue
39

@<SCITEGIC>MOL_PROPERTY
Delta U+W
SciTegic.value.DoubleValue
-0.422

@<SCITEGIC>MOL_PROPERTY
U+W
SciTegic.value.DoubleValue
-49.849

@<SCITEGIC>MOL_PROPERTY
Grad RMS
SciTegic.value.DoubleValue
0.000000

@<SCITEGIC>MOL_PROPERTY
U
SciTegic.value.DoubleValue
14.465

@<SCITEGIC>MOL_PROPERTY
W
SciTegic.value.DoubleValue
-64.314

@<SCITEGIC>MOL_PROPERTY
W(PB)
SciTegic.value.DoubleValue
-66.406

@<SCITEGIC>MOL_PROPERTY
W(SA)
SciTegic.value.DoubleValue
2.093

@<SCITEGIC>MOL_PROPERTY
Valence
SciTegic.value.DoubleValue
14.072

@<SCITEGIC>MOL_PROPERTY
Coulomb
SciTegic.value.DoubleValue
-0.199

@<SCITEGIC>MOL_PROPERTY
VdW
SciTegic.value.DoubleValue
0.592

@<SCITEGIC>MOL_PROPERTY
VdW6
SciTegic.value.DoubleValue
-5.019

@<SCITEGIC>MOL_PROPERTY
VdW12
SciTegic.value.DoubleValue
5.611

@<SCITEGIC>MOL_PROPERTY
Bond
SciTegic.value.DoubleValue
0.085

@<SCITEGIC>MOL_PROPERTY
Angle
SciTegic.value.DoubleValue
2.748

@<SCITEGIC>MOL_PROPERTY
Pdih
SciTegic.value.DoubleValue
11.238

@<SCITEGIC>MOL_PROPERTY
Idih
SciTegic.value.DoubleValue
0.001

@<SCITEGIC>MOL_PROPERTY
Tether
SciTegic.value.DoubleValue
0.000

@<TRIPOS>MOLECULE
guest-s20_confgen4.mol2 : confsearch ligand conformer 101
          17          16           1
SMALL
USER_CHARGES
 
@<TRIPOS>ATOM
       1    C1      21.886438   17.527507   24.057084 C.2        1 MOL1         0.6132
       2    O1      21.929108   16.334192   23.830943 O.co2      1 MOL1        -0.6749
       3    O2      21.827269   17.997666   25.176132 O.co2      1 MOL1        -0.6749
       4    C2      21.914191   18.484160   22.872328 C.3        1 MOL1        -0.1955
       5    H1      22.640956   18.099007   22.147773 H          1 MOL1         0.0733
       6    H2      22.292134   19.452433   23.221967 H          1 MOL1         0.0733
       7    C3      20.555029   18.635830   22.216264 C.2        1 MOL1        -0.1395
       8    H3      20.184672   17.748787   21.703243 H          1 MOL1         0.0816
       9    C4      19.828902   19.757540   22.243351 C.2        1 MOL1        -0.1394
      10    H4      20.198516   20.643252   22.759066 H          1 MOL1         0.0816
      11    C5      18.472126   19.905772   21.591809 C.3        1 MOL1        -0.1826
      12    H5      18.063781   18.921018   21.325848 H          1 MOL1         0.0736
      13    H6      17.767060   20.357882   22.302451 H          1 MOL1         0.0736
      14    C6      18.558118   20.780972   20.326229 C.3        1 MOL1        -0.2882
      15    H7      19.238915   20.334893   19.589255 H          1 MOL1         0.0749
      16    H8      17.570597   20.885416   19.858278 H          1 MOL1         0.0749
      17    H9      18.927901   21.785783   20.569219 H          1 MOL1         0.0749
@<TRIPOS>BOND
    1     1     2    1
    2     1     3    2
    3     1     4    1
    4     4     5    1
    5     4     6    1
    6     4     7    1
    7     7     8    1
    8     7     9    2
    9     9    10    1
   10     9    11    1
   11    11    12    1
   12    11    13    1
   13    11    14    1
   14    14    15    1
   15    14    16    1
   16    14    17    1
@<TRIPOS>SUBSTRUCTURE
       1 MOL1            1 RESIDUE      1      MOL     
@<SCITEGIC>MOL_PROPERTY
VConf Rank
SciTegic.value.IntegerValue
101

@<SCITEGIC>MOL_PROPERTY
Conf_Id
SciTegic.value.IntegerValue
38

@<SCITEGIC>MOL_PROPERTY
Delta U+W
SciTegic.value.DoubleValue
0.000

@<SCITEGIC>MOL_PROPERTY
U+W
SciTegic.value.DoubleValue
-49.427

@<SCITEGIC>MOL_PROPERTY
Grad RMS
SciTegic.value.DoubleValue
0.000000

@<SCITEGIC>MOL_PROPERTY
U
SciTegic.value.DoubleValue
13.666

@<SCITEGIC>MOL_PROPERTY
W
SciTegic.value.DoubleValue
-63.093

@<SCITEGIC>MOL_PROPERTY
W(PB)
SciTegic.value.DoubleValue
-65.225

@<SCITEGIC>MOL_PROPERTY
W(SA)
SciTegic.value.DoubleValue
2.132

@<SCITEGIC>MOL_PROPERTY
Valence
SciTegic.value.DoubleValue
15.226

@<SCITEGIC>MOL_PROPERTY
Coulomb
SciTegic.value.DoubleValue
-1.822

@<SCITEGIC>MOL_PROPERTY
VdW
SciTegic.value.DoubleValue
0.261

@<SCITEGIC>MOL_PROPERTY
VdW6
SciTegic.value.DoubleValue
-4.165

@<SCITEGIC>MOL_PROPERTY
VdW12
SciTegic.value.DoubleValue
4.426

@<SCITEGIC>MOL_PROPERTY
Bond
SciTegic.value.DoubleValue
0.044

@<SCITEGIC>MOL_PROPERTY
Angle
SciTegic.value.DoubleValue
2.229

@<SCITEGIC>MOL_PROPERTY
Pdih
SciTegic.value.DoubleValue
12.953

@<SCITEGIC>MOL_PROPERTY
Idih
SciTegic.value.DoubleValue
0.000

@<SCITEGIC>MOL_PROPERTY
Tether
SciTegic.value.DoubleValue
0.000

@<TRIPOS>MOLECULE
guest-s20_confgen4.mol2 : confsearch ligand conformer 102
          17          16           1
SMALL
USER_CHARGES
 
@<TRIPOS>ATOM
       1    C1      22.564817   19.399512   20.141732 C.2        1 MOL1         0.6132
       2    O1      23.310009   18.469428   20.379322 O.co2      1 MOL1        -0.6749
       3    O2      22.952354   20.508543   19.830562 O.co2      1 MOL1        -0.6749
       4    C2      21.063009   19.163199   20.233015 C.3        1 MOL1        -0.1955
       5    H1      20.875345   18.091489   20.095684 H          1 MOL1         0.0733
       6    H2      20.590525   19.681908   19.390871 H          1 MOL1         0.0733
       7    C3      20.476236   19.654433   21.542645 C.2        1 MOL1        -0.1395
       8    H3      20.481361   20.735563   21.678049 H          1 MOL1         0.0816
       9    C4      19.980481   18.853578   22.490847 C.2        1 MOL1        -0.1394
      10    H4      19.978574   17.772413   22.356162 H          1 MOL1         0.0816
      11    C5      19.399397   19.344969   23.797827 C.3        1 MOL1        -0.1826
      12    H5      19.826539   18.772125   24.632052 H          1 MOL1         0.0736
      13    H6      19.668727   20.396669   23.966969 H          1 MOL1         0.0736
      14    C6      17.864855   19.203201   23.809761 C.3        1 MOL1        -0.2882
      15    H7      17.567363   18.154255   23.680769 H          1 MOL1         0.0749
      16    H8      17.449063   19.560654   24.760776 H          1 MOL1         0.0749
      17    H9      17.412870   19.789167   22.998617 H          1 MOL1         0.0749
@<TRIPOS>BOND
    1     1     2    1
    2     1     3    2
    3     1     4    1
    4     4     5    1
    5     4     6    1
    6     4     7    1
    7     7     8    1
    8     7     9    2
    9     9    10    1
   10     9    11    1
   11    11    12    1
   12    11    13    1
   13    11    14    1
   14    14    15    1
   15    14    16    1
   16    14    17    1
@<TRIPOS>SUBSTRUCTURE
       1 MOL1            1 RESIDUE      1      MOL     
@<SCITEGIC>MOL_PROPERTY
VConf Rank
SciTegic.value.IntegerValue
102

@<SCITEGIC>MOL_PROPERTY
Conf_Id
SciTegic.value.IntegerValue
35

@<SCITEGIC>MOL_PROPERTY
Delta U+W
SciTegic.value.DoubleValue
-0.102

@<SCITEGIC>MOL_PROPERTY
U+W
SciTegic.value.DoubleValue
-49.529

@<SCITEGIC>MOL_PROPERTY
Grad RMS
SciTegic.value.DoubleValue
0.000000

@<SCITEGIC>MOL_PROPERTY
U
SciTegic.value.DoubleValue
13.666

@<SCITEGIC>MOL_PROPERTY
W
SciTegic.value.DoubleValue
-63.195

@<SCITEGIC>MOL_PROPERTY
W(PB)
SciTegic.value.DoubleValue
-65.299

@<SCITEGIC>MOL_PROPERTY
W(SA)
SciTegic.value.DoubleValue
2.103

@<SCITEGIC>MOL_PROPERTY
Valence
SciTegic.value.DoubleValue
15.226

@<SCITEGIC>MOL_PROPERTY
Coulomb
SciTegic.value.DoubleValue
-1.822

@<SCITEGIC>MOL_PROPERTY
VdW
SciTegic.value.DoubleValue
0.261

@<SCITEGIC>MOL_PROPERTY
VdW6
SciTegic.value.DoubleValue
-4.165

@<SCITEGIC>MOL_PROPERTY
VdW12
SciTegic.value.DoubleValue
4.426

@<SCITEGIC>MOL_PROPERTY
Bond
SciTegic.value.DoubleValue
0.044

@<SCITEGIC>MOL_PROPERTY
Angle
SciTegic.value.DoubleValue
2.229

@<SCITEGIC>MOL_PROPERTY
Pdih
SciTegic.value.DoubleValue
12.953

@<SCITEGIC>MOL_PROPERTY
Idih
SciTegic.value.DoubleValue
0.000

@<SCITEGIC>MOL_PROPERTY
Tether
SciTegic.value.DoubleValue
0.000

@<TRIPOS>MOLECULE
guest-s20_confgen4.mol2 : confsearch ligand conformer 103
          17          16           1
SMALL
USER_CHARGES
 
@<TRIPOS>ATOM
       1    C1      21.769478   17.756782   24.327603 C.2        1 MOL1         0.6132
       2    O1      21.304823   16.654720   24.543303 O.co2      1 MOL1        -0.6749
       3    O2      22.959789   17.973664   24.213710 O.co2      1 MOL1        -0.6749
       4    C2      20.806482   18.930156   24.202990 C.3        1 MOL1        -0.1955
       5    H1      21.353661   19.849797   24.442656 H          1 MOL1         0.0733
       6    H2      20.031364   18.809802   24.968638 H          1 MOL1         0.0733
       7    C3      20.171111   19.016155   22.828104 C.2        1 MOL1        -0.1395
       8    H3      19.485594   18.203872   22.592834 H          1 MOL1         0.0816
       9    C4      20.418518   19.996882   21.950792 C.2        1 MOL1        -0.1394
      10    H4      21.114237   20.790968   22.220025 H          1 MOL1         0.0816
      11    C5      19.822626   20.142773   20.560749 C.3        1 MOL1        -0.1826
      12    H5      19.311906   21.112764   20.491555 H          1 MOL1         0.0736
      13    H6      20.638152   20.185661   19.826175 H          1 MOL1         0.0736
      14    C6      18.837291   19.025209   20.153080 C.3        1 MOL1        -0.2882
      15    H7      17.978613   18.988467   20.836251 H          1 MOL1         0.0749
      16    H8      18.453279   19.201434   19.139913 H          1 MOL1         0.0749
      17    H9      19.329940   18.044015   20.159840 H          1 MOL1         0.0749
@<TRIPOS>BOND
    1     1     2    1
    2     1     3    2
    3     1     4    1
    4     4     5    1
    5     4     6    1
    6     4     7    1
    7     7     8    1
    8     7     9    2
    9     9    10    1
   10     9    11    1
   11    11    12    1
   12    11    13    1
   13    11    14    1
   14    14    15    1
   15    14    16    1
   16    14    17    1
@<TRIPOS>SUBSTRUCTURE
       1 MOL1            1 RESIDUE      1      MOL     
@<SCITEGIC>MOL_PROPERTY
VConf Rank
SciTegic.value.IntegerValue
103

@<SCITEGIC>MOL_PROPERTY
Conf_Id
SciTegic.value.IntegerValue
19

@<SCITEGIC>MOL_PROPERTY
Delta U+W
SciTegic.value.DoubleValue
-0.496

@<SCITEGIC>MOL_PROPERTY
U+W
SciTegic.value.DoubleValue
-49.923

@<SCITEGIC>MOL_PROPERTY
Grad RMS
SciTegic.value.DoubleValue
0.000000

@<SCITEGIC>MOL_PROPERTY
U
SciTegic.value.DoubleValue
13.863

@<SCITEGIC>MOL_PROPERTY
W
SciTegic.value.DoubleValue
-63.786

@<SCITEGIC>MOL_PROPERTY
W(PB)
SciTegic.value.DoubleValue
-65.856

@<SCITEGIC>MOL_PROPERTY
W(SA)
SciTegic.value.DoubleValue
2.070

@<SCITEGIC>MOL_PROPERTY
Valence
SciTegic.value.DoubleValue
14.117

@<SCITEGIC>MOL_PROPERTY
Coulomb
SciTegic.value.DoubleValue
-1.228

@<SCITEGIC>MOL_PROPERTY
VdW
SciTegic.value.DoubleValue
0.974

@<SCITEGIC>MOL_PROPERTY
VdW6
SciTegic.value.DoubleValue
-4.885

@<SCITEGIC>MOL_PROPERTY
VdW12
SciTegic.value.DoubleValue
5.859

@<SCITEGIC>MOL_PROPERTY
Bond
SciTegic.value.DoubleValue
0.094

@<SCITEGIC>MOL_PROPERTY
Angle
SciTegic.value.DoubleValue
2.818

@<SCITEGIC>MOL_PROPERTY
Pdih
SciTegic.value.DoubleValue
11.205

@<SCITEGIC>MOL_PROPERTY
Idih
SciTegic.value.DoubleValue
0.000

@<SCITEGIC>MOL_PROPERTY
Tether
SciTegic.value.DoubleValue
0.000

@<TRIPOS>MOLECULE
guest-s20_confgen4.mol2 : confsearch ligand conformer 104
          17          16           1
SMALL
USER_CHARGES
 
@<TRIPOS>ATOM
       1    C1      18.565483   19.030459   19.745396 C.2        1 MOL1         0.6132
       2    O1      17.429067   19.097521   20.170689 O.co2      1 MOL1        -0.6749
       3    O2      18.979206   19.706539   18.824118 O.co2      1 MOL1        -0.6749
       4    C2      19.522043   18.038182   20.393629 C.3        1 MOL1        -0.1955
       5    H1      20.094335   17.553892   19.593986 H          1 MOL1         0.0733
       6    H2      18.927185   17.256498   20.881245 H          1 MOL1         0.0733
       7    C3      20.464173   18.699969   21.381148 C.2        1 MOL1        -0.1395
       8    H3      21.195050   19.379024   20.943063 H          1 MOL1         0.0816
       9    C4      20.430007   18.499317   22.702052 C.2        1 MOL1        -0.1394
      10    H4      19.695611   17.824149   23.140080 H          1 MOL1         0.0816
      11    C5      21.368486   19.162480   23.685316 C.3        1 MOL1        -0.1826
      12    H5      21.782201   18.409071   24.369228 H          1 MOL1         0.0736
      13    H6      22.221306   19.612784   23.158882 H          1 MOL1         0.0736
      14    C6      20.639690   20.249826   24.498659 C.3        1 MOL1        -0.2882
      15    H7      19.804270   19.820023   25.066787 H          1 MOL1         0.0749
      16    H8      21.325339   20.728038   25.210183 H          1 MOL1         0.0749
      17    H9      20.238126   21.028235   23.836461 H          1 MOL1         0.0749
@<TRIPOS>BOND
    1     1     2    1
    2     1     3    2
    3     1     4    1
    4     4     5    1
    5     4     6    1
    6     4     7    1
    7     7     8    1
    8     7     9    2
    9     9    10    1
   10     9    11    1
   11    11    12    1
   12    11    13    1
   13    11    14    1
   14    14    15    1
   15    14    16    1
   16    14    17    1
@<TRIPOS>SUBSTRUCTURE
       1 MOL1            1 RESIDUE      1      MOL     
@<SCITEGIC>MOL_PROPERTY
VConf Rank
SciTegic.value.IntegerValue
104

@<SCITEGIC>MOL_PROPERTY
Conf_Id
SciTegic.value.IntegerValue
7

@<SCITEGIC>MOL_PROPERTY
Delta U+W
SciTegic.value.DoubleValue
-0.041

@<SCITEGIC>MOL_PROPERTY
U+W
SciTegic.value.DoubleValue
-49.468

@<SCITEGIC>MOL_PROPERTY
Grad RMS
SciTegic.value.DoubleValue
0.000000

@<SCITEGIC>MOL_PROPERTY
U
SciTegic.value.DoubleValue
14.121

@<SCITEGIC>MOL_PROPERTY
W
SciTegic.value.DoubleValue
-63.589

@<SCITEGIC>MOL_PROPERTY
W(PB)
SciTegic.value.DoubleValue
-65.660

@<SCITEGIC>MOL_PROPERTY
W(SA)
SciTegic.value.DoubleValue
2.071

@<SCITEGIC>MOL_PROPERTY
Valence
SciTegic.value.DoubleValue
15.230

@<SCITEGIC>MOL_PROPERTY
Coulomb
SciTegic.value.DoubleValue
-1.333

@<SCITEGIC>MOL_PROPERTY
VdW
SciTegic.value.DoubleValue
0.224

@<SCITEGIC>MOL_PROPERTY
VdW6
SciTegic.value.DoubleValue
-4.212

@<SCITEGIC>MOL_PROPERTY
VdW12
SciTegic.value.DoubleValue
4.436

@<SCITEGIC>MOL_PROPERTY
Bond
SciTegic.value.DoubleValue
0.044

@<SCITEGIC>MOL_PROPERTY
Angle
SciTegic.value.DoubleValue
2.230

@<SCITEGIC>MOL_PROPERTY
Pdih
SciTegic.value.DoubleValue
12.956

@<SCITEGIC>MOL_PROPERTY
Idih
SciTegic.value.DoubleValue
0.000

@<SCITEGIC>MOL_PROPERTY
Tether
SciTegic.value.DoubleValue
0.000

@<TRIPOS>MOLECULE
guest-s20_confgen4.mol2 : confsearch ligand conformer 105
          17          16           1
SMALL
USER_CHARGES
 
@<TRIPOS>ATOM
       1    C1      19.986008   18.104630   24.764506 C.2        1 MOL1         0.6132
       2    O1      18.794431   18.186844   24.988957 O.co2      1 MOL1        -0.6749
       3    O2      20.841616   18.526203   25.517694 O.co2      1 MOL1        -0.6749
       4    C2      20.432691   17.410134   23.481647 C.3        1 MOL1        -0.1955
       5    H1      19.698729   16.629933   23.248507 H          1 MOL1         0.0733
       6    H2      21.372299   16.886522   23.693045 H          1 MOL1         0.0733
       7    C3      20.614669   18.316896   22.272704 C.2        1 MOL1        -0.1395
       8    H3      20.933818   17.801027   21.367956 H          1 MOL1         0.0816
       9    C4      20.417125   19.640228   22.245071 C.2        1 MOL1        -0.1394
      10    H4      20.097080   20.180188   23.135435 H          1 MOL1         0.0816
      11    C5      20.614013   20.497656   21.014627 C.3        1 MOL1        -0.1826
      12    H5      21.213392   21.381652   21.271171 H          1 MOL1         0.0736
      13    H6      21.176366   19.947459   20.247687 H          1 MOL1         0.0736
      14    C6      19.260463   20.946713   20.430430 C.3        1 MOL1        -0.2882
      15    H7      19.409355   21.569563   19.538831 H          1 MOL1         0.0749
      16    H8      18.653056   20.078587   20.142319 H          1 MOL1         0.0749
      17    H9      18.692296   21.532837   21.164667 H          1 MOL1         0.0749
@<TRIPOS>BOND
    1     1     2    1
    2     1     3    2
    3     1     4    1
    4     4     5    1
    5     4     6    1
    6     4     7    1
    7     7     8    1
    8     7     9    2
    9     9    10    1
   10     9    11    1
   11    11    12    1
   12    11    13    1
   13    11    14    1
   14    14    15    1
   15    14    16    1
   16    14    17    1
@<TRIPOS>SUBSTRUCTURE
       1 MOL1            1 RESIDUE      1      MOL     
@<SCITEGIC>MOL_PROPERTY
VConf Rank
SciTegic.value.IntegerValue
105

@<SCITEGIC>MOL_PROPERTY
Conf_Id
SciTegic.value.IntegerValue
39

@<SCITEGIC>MOL_PROPERTY
Delta U+W
SciTegic.value.DoubleValue
-0.422

@<SCITEGIC>MOL_PROPERTY
U+W
SciTegic.value.DoubleValue
-49.849

@<SCITEGIC>MOL_PROPERTY
Grad RMS
SciTegic.value.DoubleValue
0.000000

@<SCITEGIC>MOL_PROPERTY
U
SciTegic.value.DoubleValue
14.465

@<SCITEGIC>MOL_PROPERTY
W
SciTegic.value.DoubleValue
-64.314

@<SCITEGIC>MOL_PROPERTY
W(PB)
SciTegic.value.DoubleValue
-66.406

@<SCITEGIC>MOL_PROPERTY
W(SA)
SciTegic.value.DoubleValue
2.093

@<SCITEGIC>MOL_PROPERTY
Valence
SciTegic.value.DoubleValue
14.072

@<SCITEGIC>MOL_PROPERTY
Coulomb
SciTegic.value.DoubleValue
-0.199

@<SCITEGIC>MOL_PROPERTY
VdW
SciTegic.value.DoubleValue
0.592

@<SCITEGIC>MOL_PROPERTY
VdW6
SciTegic.value.DoubleValue
-5.019

@<SCITEGIC>MOL_PROPERTY
VdW12
SciTegic.value.DoubleValue
5.611

@<SCITEGIC>MOL_PROPERTY
Bond
SciTegic.value.DoubleValue
0.085

@<SCITEGIC>MOL_PROPERTY
Angle
SciTegic.value.DoubleValue
2.748

@<SCITEGIC>MOL_PROPERTY
Pdih
SciTegic.value.DoubleValue
11.238

@<SCITEGIC>MOL_PROPERTY
Idih
SciTegic.value.DoubleValue
0.001

@<SCITEGIC>MOL_PROPERTY
Tether
SciTegic.value.DoubleValue
0.000

@<TRIPOS>MOLECULE
guest-s20_confgen4.mol2 : confsearch ligand conformer 106
          17          16           1
SMALL
USER_CHARGES
 
@<TRIPOS>ATOM
       1    C1      22.582826   21.113668   21.389638 C.2        1 MOL1         0.6132
       2    O1      23.537120   21.056389   22.139973 O.co2      1 MOL1        -0.6749
       3    O2      22.179183   22.146992   20.893522 O.co2      1 MOL1        -0.6749
       4    C2      21.858111   19.817983   21.049648 C.3        1 MOL1        -0.1955
       5    H1      22.615568   19.040089   20.899152 H          1 MOL1         0.0733
       6    H2      21.343327   19.954177   20.090956 H          1 MOL1         0.0733
       7    C3      20.885317   19.394847   22.133794 C.2        1 MOL1        -0.1395
       8    H3      21.341916   19.086561   23.073836 H          1 MOL1         0.0816
       9    C4      19.556623   19.387947   21.989735 C.2        1 MOL1        -0.1394
      10    H4      19.100588   19.699178   21.050465 H          1 MOL1         0.0816
      11    C5      18.587999   18.969290   23.073162 C.3        1 MOL1        -0.1826
      12    H5      19.096369   18.922285   24.046081 H          1 MOL1         0.0736
      13    H6      17.792188   19.720272   23.169323 H          1 MOL1         0.0736
      14    C6      17.963312   17.596323   22.757266 C.3        1 MOL1        -0.2882
      15    H7      18.739184   16.823072   22.681727 H          1 MOL1         0.0749
      16    H8      17.260976   17.298207   23.546529 H          1 MOL1         0.0749
      17    H9      17.415105   17.624828   21.806432 H          1 MOL1         0.0749
@<TRIPOS>BOND
    1     1     2    1
    2     1     3    2
    3     1     4    1
    4     4     5    1
    5     4     6    1
    6     4     7    1
    7     7     8    1
    8     7     9    2
    9     9    10    1
   10     9    11    1
   11    11    12    1
   12    11    13    1
   13    11    14    1
   14    14    15    1
   15    14    16    1
   16    14    17    1
@<TRIPOS>SUBSTRUCTURE
       1 MOL1            1 RESIDUE      1      MOL     
@<SCITEGIC>MOL_PROPERTY
VConf Rank
SciTegic.value.IntegerValue
106

@<SCITEGIC>MOL_PROPERTY
Conf_Id
SciTegic.value.IntegerValue
38

@<SCITEGIC>MOL_PROPERTY
Delta U+W
SciTegic.value.DoubleValue
0.000

@<SCITEGIC>MOL_PROPERTY
U+W
SciTegic.value.DoubleValue
-49.427

@<SCITEGIC>MOL_PROPERTY
Grad RMS
SciTegic.value.DoubleValue
0.000000

@<SCITEGIC>MOL_PROPERTY
U
SciTegic.value.DoubleValue
13.666

@<SCITEGIC>MOL_PROPERTY
W
SciTegic.value.DoubleValue
-63.093

@<SCITEGIC>MOL_PROPERTY
W(PB)
SciTegic.value.DoubleValue
-65.225

@<SCITEGIC>MOL_PROPERTY
W(SA)
SciTegic.value.DoubleValue
2.132

@<SCITEGIC>MOL_PROPERTY
Valence
SciTegic.value.DoubleValue
15.226

@<SCITEGIC>MOL_PROPERTY
Coulomb
SciTegic.value.DoubleValue
-1.822

@<SCITEGIC>MOL_PROPERTY
VdW
SciTegic.value.DoubleValue
0.261

@<SCITEGIC>MOL_PROPERTY
VdW6
SciTegic.value.DoubleValue
-4.165

@<SCITEGIC>MOL_PROPERTY
VdW12
SciTegic.value.DoubleValue
4.426

@<SCITEGIC>MOL_PROPERTY
Bond
SciTegic.value.DoubleValue
0.044

@<SCITEGIC>MOL_PROPERTY
Angle
SciTegic.value.DoubleValue
2.229

@<SCITEGIC>MOL_PROPERTY
Pdih
SciTegic.value.DoubleValue
12.953

@<SCITEGIC>MOL_PROPERTY
Idih
SciTegic.value.DoubleValue
0.000

@<SCITEGIC>MOL_PROPERTY
Tether
SciTegic.value.DoubleValue
0.000

@<TRIPOS>MOLECULE
guest-s20_confgen4.mol2 : confsearch ligand conformer 107
          17          16           1
SMALL
USER_CHARGES
 
@<TRIPOS>ATOM
       1    C1      21.657562   20.100667   24.722844 C.2        1 MOL1         0.6132
       2    O1      22.471212   20.958534   24.442029 O.co2      1 MOL1        -0.6749
       3    O2      21.861987   19.221079   25.536168 O.co2      1 MOL1        -0.6749
       4    C2      20.305417   20.130817   24.022560 C.3        1 MOL1        -0.1955
       5    H1      20.119530   21.155671   23.679397 H          1 MOL1         0.0733
       6    H2      19.536656   19.898075   24.768445 H          1 MOL1         0.0733
       7    C3      20.226472   19.148627   22.869384 C.2        1 MOL1        -0.1395
       8    H3      20.241809   18.096617   23.152650 H          1 MOL1         0.0816
       9    C4      20.145659   19.504665   21.583719 C.2        1 MOL1        -0.1394
      10    H4      20.133577   20.556790   21.300970 H          1 MOL1         0.0816
      11    C5      20.071012   18.523863   20.434904 C.3        1 MOL1        -0.1826
      12    H5      20.796721   18.804973   19.659754 H          1 MOL1         0.0736
      13    H6      20.345212   17.514863   20.772472 H          1 MOL1         0.0736
      14    C6      18.655708   18.490882   19.825899 C.3        1 MOL1        -0.2882
      15    H7      18.370091   19.480142   19.444826 H          1 MOL1         0.0749
      16    H8      18.607923   17.778041   18.992436 H          1 MOL1         0.0749
      17    H9      17.914979   18.186798   20.577200 H          1 MOL1         0.0749
@<TRIPOS>BOND
    1     1     2    1
    2     1     3    2
    3     1     4    1
    4     4     5    1
    5     4     6    1
    6     4     7    1
    7     7     8    1
    8     7     9    2
    9     9    10    1
   10     9    11    1
   11    11    12    1
   12    11    13    1
   13    11    14    1
   14    14    15    1
   15    14    16    1
   16    14    17    1
@<TRIPOS>SUBSTRUCTURE
       1 MOL1            1 RESIDUE      1      MOL     
@<SCITEGIC>MOL_PROPERTY
VConf Rank
SciTegic.value.IntegerValue
107

@<SCITEGIC>MOL_PROPERTY
Conf_Id
SciTegic.value.IntegerValue
35

@<SCITEGIC>MOL_PROPERTY
Delta U+W
SciTegic.value.DoubleValue
-0.102

@<SCITEGIC>MOL_PROPERTY
U+W
SciTegic.value.DoubleValue
-49.529

@<SCITEGIC>MOL_PROPERTY
Grad RMS
SciTegic.value.DoubleValue
0.000000

@<SCITEGIC>MOL_PROPERTY
U
SciTegic.value.DoubleValue
13.666

@<SCITEGIC>MOL_PROPERTY
W
SciTegic.value.DoubleValue
-63.195

@<SCITEGIC>MOL_PROPERTY
W(PB)
SciTegic.value.DoubleValue
-65.299

@<SCITEGIC>MOL_PROPERTY
W(SA)
SciTegic.value.DoubleValue
2.103

@<SCITEGIC>MOL_PROPERTY
Valence
SciTegic.value.DoubleValue
15.226

@<SCITEGIC>MOL_PROPERTY
Coulomb
SciTegic.value.DoubleValue
-1.822

@<SCITEGIC>MOL_PROPERTY
VdW
SciTegic.value.DoubleValue
0.261

@<SCITEGIC>MOL_PROPERTY
VdW6
SciTegic.value.DoubleValue
-4.165

@<SCITEGIC>MOL_PROPERTY
VdW12
SciTegic.value.DoubleValue
4.426

@<SCITEGIC>MOL_PROPERTY
Bond
SciTegic.value.DoubleValue
0.044

@<SCITEGIC>MOL_PROPERTY
Angle
SciTegic.value.DoubleValue
2.229

@<SCITEGIC>MOL_PROPERTY
Pdih
SciTegic.value.DoubleValue
12.953

@<SCITEGIC>MOL_PROPERTY
Idih
SciTegic.value.DoubleValue
0.000

@<SCITEGIC>MOL_PROPERTY
Tether
SciTegic.value.DoubleValue
0.000

@<TRIPOS>MOLECULE
guest-s20_confgen4.mol2 : confsearch ligand conformer 108
          17          16           1
SMALL
USER_CHARGES
 
@<TRIPOS>ATOM
       1    C1      23.121837   18.727114   21.799604 C.2        1 MOL1         0.6132
       2    O1      23.377987   17.542367   21.711662 O.co2      1 MOL1        -0.6749
       3    O2      23.577096   19.570337   21.052234 O.co2      1 MOL1        -0.6749
       4    C2      22.186612   19.178704   22.913657 C.3        1 MOL1        -0.1955
       5    H1      22.393668   20.233947   23.128542 H          1 MOL1         0.0733
       6    H2      22.442766   18.611746   23.816128 H          1 MOL1         0.0733
       7    C3      20.725048   18.969709   22.565006 C.2        1 MOL1        -0.1395
       8    H3      20.419434   17.927261   22.494361 H          1 MOL1         0.0816
       9    C4      19.858215   19.967283   22.350161 C.2        1 MOL1        -0.1394
      10    H4      20.201785   20.998484   22.425446 H          1 MOL1         0.0816
      11    C5      18.387250   19.830700   21.994916 C.3        1 MOL1        -0.1826
      12    H5      17.787756   20.359771   22.748040 H          1 MOL1         0.0736
      13    H6      18.199420   20.353893   21.047547 H          1 MOL1         0.0736
      14    C6      17.877302   18.377469   21.876163 C.3        1 MOL1        -0.2882
      15    H7      17.999692   17.838197   22.824640 H          1 MOL1         0.0749
      16    H8      16.810651   18.363860   21.617127 H          1 MOL1         0.0749
      17    H9      18.420343   17.832281   21.092985 H          1 MOL1         0.0749
@<TRIPOS>BOND
    1     1     2    1
    2     1     3    2
    3     1     4    1
    4     4     5    1
    5     4     6    1
    6     4     7    1
    7     7     8    1
    8     7     9    2
    9     9    10    1
   10     9    11    1
   11    11    12    1
   12    11    13    1
   13    11    14    1
   14    14    15    1
   15    14    16    1
   16    14    17    1
@<TRIPOS>SUBSTRUCTURE
       1 MOL1            1 RESIDUE      1      MOL     
@<SCITEGIC>MOL_PROPERTY
VConf Rank
SciTegic.value.IntegerValue
108

@<SCITEGIC>MOL_PROPERTY
Conf_Id
SciTegic.value.IntegerValue
19

@<SCITEGIC>MOL_PROPERTY
Delta U+W
SciTegic.value.DoubleValue
-0.496

@<SCITEGIC>MOL_PROPERTY
U+W
SciTegic.value.DoubleValue
-49.923

@<SCITEGIC>MOL_PROPERTY
Grad RMS
SciTegic.value.DoubleValue
0.000000

@<SCITEGIC>MOL_PROPERTY
U
SciTegic.value.DoubleValue
13.863

@<SCITEGIC>MOL_PROPERTY
W
SciTegic.value.DoubleValue
-63.786

@<SCITEGIC>MOL_PROPERTY
W(PB)
SciTegic.value.DoubleValue
-65.856

@<SCITEGIC>MOL_PROPERTY
W(SA)
SciTegic.value.DoubleValue
2.070

@<SCITEGIC>MOL_PROPERTY
Valence
SciTegic.value.DoubleValue
14.117

@<SCITEGIC>MOL_PROPERTY
Coulomb
SciTegic.value.DoubleValue
-1.228

@<SCITEGIC>MOL_PROPERTY
VdW
SciTegic.value.DoubleValue
0.974

@<SCITEGIC>MOL_PROPERTY
VdW6
SciTegic.value.DoubleValue
-4.885

@<SCITEGIC>MOL_PROPERTY
VdW12
SciTegic.value.DoubleValue
5.859

@<SCITEGIC>MOL_PROPERTY
Bond
SciTegic.value.DoubleValue
0.094

@<SCITEGIC>MOL_PROPERTY
Angle
SciTegic.value.DoubleValue
2.818

@<SCITEGIC>MOL_PROPERTY
Pdih
SciTegic.value.DoubleValue
11.205

@<SCITEGIC>MOL_PROPERTY
Idih
SciTegic.value.DoubleValue
0.000

@<SCITEGIC>MOL_PROPERTY
Tether
SciTegic.value.DoubleValue
0.000

@<TRIPOS>MOLECULE
guest-s20_confgen4.mol2 : confsearch ligand conformer 109
          17          16           1
SMALL
USER_CHARGES
 
@<TRIPOS>ATOM
       1    C1      18.710414   19.181566   24.763528 C.2        1 MOL1         0.6132
       2    O1      19.410004   18.502175   25.488658 O.co2      1 MOL1        -0.6749
       3    O2      18.263826   20.265536   25.083794 O.co2      1 MOL1        -0.6749
       4    C2      18.364284   18.642493   23.381710 C.3        1 MOL1        -0.1955
       5    H1      17.306100   18.858022   23.193882 H          1 MOL1         0.0733
       6    H2      18.470775   17.551218   23.402479 H          1 MOL1         0.0733
       7    C3      19.221921   19.251733   22.288984 C.2        1 MOL1        -0.1395
       8    H3      19.055247   20.312512   22.104096 H          1 MOL1         0.0816
       9    C4      20.133891   18.574747   21.584557 C.2        1 MOL1        -0.1394
      10    H4      20.303763   17.515247   21.773399 H          1 MOL1         0.0816
      11    C5      20.990112   19.184849   20.497360 C.3        1 MOL1        -0.1826
      12    H5      20.966744   18.545827   19.604261 H          1 MOL1         0.0736
      13    H6      20.589800   20.162708   20.196111 H          1 MOL1         0.0736
      14    C6      22.447104   19.354198   20.970106 C.3        1 MOL1        -0.2882
      15    H7      22.885990   18.385073   21.241402 H          1 MOL1         0.0749
      16    H8      23.063821   19.797660   20.177598 H          1 MOL1         0.0749
      17    H9      22.497781   20.010444   21.848999 H          1 MOL1         0.0749
@<TRIPOS>BOND
    1     1     2    1
    2     1     3    2
    3     1     4    1
    4     4     5    1
    5     4     6    1
    6     4     7    1
    7     7     8    1
    8     7     9    2
    9     9    10    1
   10     9    11    1
   11    11    12    1
   12    11    13    1
   13    11    14    1
   14    14    15    1
   15    14    16    1
   16    14    17    1
@<TRIPOS>SUBSTRUCTURE
       1 MOL1            1 RESIDUE      1      MOL     
@<SCITEGIC>MOL_PROPERTY
VConf Rank
SciTegic.value.IntegerValue
109

@<SCITEGIC>MOL_PROPERTY
Conf_Id
SciTegic.value.IntegerValue
7

@<SCITEGIC>MOL_PROPERTY
Delta U+W
SciTegic.value.DoubleValue
-0.041

@<SCITEGIC>MOL_PROPERTY
U+W
SciTegic.value.DoubleValue
-49.468

@<SCITEGIC>MOL_PROPERTY
Grad RMS
SciTegic.value.DoubleValue
0.000000

@<SCITEGIC>MOL_PROPERTY
U
SciTegic.value.DoubleValue
14.121

@<SCITEGIC>MOL_PROPERTY
W
SciTegic.value.DoubleValue
-63.589

@<SCITEGIC>MOL_PROPERTY
W(PB)
SciTegic.value.DoubleValue
-65.660

@<SCITEGIC>MOL_PROPERTY
W(SA)
SciTegic.value.DoubleValue
2.071

@<SCITEGIC>MOL_PROPERTY
Valence
SciTegic.value.DoubleValue
15.230

@<SCITEGIC>MOL_PROPERTY
Coulomb
SciTegic.value.DoubleValue
-1.333

@<SCITEGIC>MOL_PROPERTY
VdW
SciTegic.value.DoubleValue
0.224

@<SCITEGIC>MOL_PROPERTY
VdW6
SciTegic.value.DoubleValue
-4.212

@<SCITEGIC>MOL_PROPERTY
VdW12
SciTegic.value.DoubleValue
4.436

@<SCITEGIC>MOL_PROPERTY
Bond
SciTegic.value.DoubleValue
0.044

@<SCITEGIC>MOL_PROPERTY
Angle
SciTegic.value.DoubleValue
2.230

@<SCITEGIC>MOL_PROPERTY
Pdih
SciTegic.value.DoubleValue
12.956

@<SCITEGIC>MOL_PROPERTY
Idih
SciTegic.value.DoubleValue
0.000

@<SCITEGIC>MOL_PROPERTY
Tether
SciTegic.value.DoubleValue
0.000

@<TRIPOS>MOLECULE
guest-s20_confgen4.mol2 : confsearch ligand conformer 110
          17          16           1
SMALL
USER_CHARGES
 
@<TRIPOS>ATOM
       1    C1      20.596010   16.761279   21.216465 C.2        1 MOL1         0.6132
       2    O1      21.345181   16.297253   22.053373 O.co2      1 MOL1        -0.6749
       3    O2      20.857145   16.801429   20.030177 O.co2      1 MOL1        -0.6749
       4    C2      19.243384   17.296843   21.675976 C.3        1 MOL1        -0.1955
       5    H1      18.922496   16.703183   22.539902 H          1 MOL1         0.0733
       6    H2      18.514612   17.093071   20.882825 H          1 MOL1         0.0733
       7    C3      19.209168   18.776210   22.032597 C.2        1 MOL1        -0.1395
       8    H3      18.234439   19.137687   22.357840 H          1 MOL1         0.0816
       9    C4      20.244492   19.622506   21.978891 C.2        1 MOL1        -0.1394
      10    H4      21.229881   19.286618   21.658078 H          1 MOL1         0.0816
      11    C5      20.156852   21.087828   22.343705 C.3        1 MOL1        -0.1826
      12    H5      20.629457   21.693859   21.558918 H          1 MOL1         0.0736
      13    H6      19.107537   21.408565   22.400444 H          1 MOL1         0.0736
      14    C6      20.848317   21.364740   23.692865 C.3        1 MOL1        -0.2882
      15    H7      20.782902   22.429495   23.951857 H          1 MOL1         0.0749
      16    H8      20.375404   20.788147   24.498773 H          1 MOL1         0.0749
      17    H9      21.910131   21.088360   23.652568 H          1 MOL1         0.0749
@<TRIPOS>BOND
    1     1     2    1
    2     1     3    2
    3     1     4    1
    4     4     5    1
    5     4     6    1
    6     4     7    1
    7     7     8    1
    8     7     9    2
    9     9    10    1
   10     9    11    1
   11    11    12    1
   12    11    13    1
   13    11    14    1
   14    14    15    1
   15    14    16    1
   16    14    17    1
@<TRIPOS>SUBSTRUCTURE
       1 MOL1            1 RESIDUE      1      MOL     
@<SCITEGIC>MOL_PROPERTY
VConf Rank
SciTegic.value.IntegerValue
110

@<SCITEGIC>MOL_PROPERTY
Conf_Id
SciTegic.value.IntegerValue
39

@<SCITEGIC>MOL_PROPERTY
Delta U+W
SciTegic.value.DoubleValue
-0.422

@<SCITEGIC>MOL_PROPERTY
U+W
SciTegic.value.DoubleValue
-49.849

@<SCITEGIC>MOL_PROPERTY
Grad RMS
SciTegic.value.DoubleValue
0.000000

@<SCITEGIC>MOL_PROPERTY
U
SciTegic.value.DoubleValue
14.465

@<SCITEGIC>MOL_PROPERTY
W
SciTegic.value.DoubleValue
-64.314

@<SCITEGIC>MOL_PROPERTY
W(PB)
SciTegic.value.DoubleValue
-66.406

@<SCITEGIC>MOL_PROPERTY
W(SA)
SciTegic.value.DoubleValue
2.093

@<SCITEGIC>MOL_PROPERTY
Valence
SciTegic.value.DoubleValue
14.072

@<SCITEGIC>MOL_PROPERTY
Coulomb
SciTegic.value.DoubleValue
-0.199

@<SCITEGIC>MOL_PROPERTY
VdW
SciTegic.value.DoubleValue
0.592

@<SCITEGIC>MOL_PROPERTY
VdW6
SciTegic.value.DoubleValue
-5.019

@<SCITEGIC>MOL_PROPERTY
VdW12
SciTegic.value.DoubleValue
5.611

@<SCITEGIC>MOL_PROPERTY
Bond
SciTegic.value.DoubleValue
0.085

@<SCITEGIC>MOL_PROPERTY
Angle
SciTegic.value.DoubleValue
2.748

@<SCITEGIC>MOL_PROPERTY
Pdih
SciTegic.value.DoubleValue
11.238

@<SCITEGIC>MOL_PROPERTY
Idih
SciTegic.value.DoubleValue
0.001

@<SCITEGIC>MOL_PROPERTY
Tether
SciTegic.value.DoubleValue
0.000

@<TRIPOS>MOLECULE
guest-s20_confgen4.mol2 : confsearch ligand conformer 111
          17          16           1
SMALL
USER_CHARGES
 
@<TRIPOS>ATOM
       1    C1      22.407829   17.317210   23.056888 C.2        1 MOL1         0.6132
       2    O1      23.548246   17.718348   22.932393 O.co2      1 MOL1        -0.6749
       3    O2      22.070861   16.170758   22.835713 O.co2      1 MOL1        -0.6749
       4    C2      21.345789   18.305446   23.520637 C.3        1 MOL1        -0.1955
       5    H1      21.787315   18.926329   24.308716 H          1 MOL1         0.0733
       6    H2      20.526892   17.738691   23.979807 H          1 MOL1         0.0733
       7    C3      20.835099   19.181245   22.392401 C.2        1 MOL1        -0.1395
       8    H3      21.557528   19.891646   21.991615 H          1 MOL1         0.0816
       9    C4      19.596792   19.117505   21.893644 C.2        1 MOL1        -0.1394
      10    H4      18.875817   18.404855   22.292875 H          1 MOL1         0.0816
      11    C5      19.090473   19.989012   20.766063 C.3        1 MOL1        -0.1826
      12    H5      19.928814   20.483355   20.256131 H          1 MOL1         0.0736
      13    H6      18.586901   19.366661   20.013979 H          1 MOL1         0.0736
      14    C6      18.110230   21.057110   21.288891 C.3        1 MOL1        -0.2882
      15    H7      18.599737   21.708712   22.024689 H          1 MOL1         0.0749
      16    H8      17.745791   21.685914   20.466167 H          1 MOL1         0.0749
      17    H9      17.241598   20.589313   21.770632 H          1 MOL1         0.0749
@<TRIPOS>BOND
    1     1     2    1
    2     1     3    2
    3     1     4    1
    4     4     5    1
    5     4     6    1
    6     4     7    1
    7     7     8    1
    8     7     9    2
    9     9    10    1
   10     9    11    1
   11    11    12    1
   12    11    13    1
   13    11    14    1
   14    14    15    1
   15    14    16    1
   16    14    17    1
@<TRIPOS>SUBSTRUCTURE
       1 MOL1            1 RESIDUE      1      MOL     
@<SCITEGIC>MOL_PROPERTY
VConf Rank
SciTegic.value.IntegerValue
111

@<SCITEGIC>MOL_PROPERTY
Conf_Id
SciTegic.value.IntegerValue
38

@<SCITEGIC>MOL_PROPERTY
Delta U+W
SciTegic.value.DoubleValue
0.000

@<SCITEGIC>MOL_PROPERTY
U+W
SciTegic.value.DoubleValue
-49.427

@<SCITEGIC>MOL_PROPERTY
Grad RMS
SciTegic.value.DoubleValue
0.000000

@<SCITEGIC>MOL_PROPERTY
U
SciTegic.value.DoubleValue
13.666

@<SCITEGIC>MOL_PROPERTY
W
SciTegic.value.DoubleValue
-63.093

@<SCITEGIC>MOL_PROPERTY
W(PB)
SciTegic.value.DoubleValue
-65.225

@<SCITEGIC>MOL_PROPERTY
W(SA)
SciTegic.value.DoubleValue
2.132

@<SCITEGIC>MOL_PROPERTY
Valence
SciTegic.value.DoubleValue
15.226

@<SCITEGIC>MOL_PROPERTY
Coulomb
SciTegic.value.DoubleValue
-1.822

@<SCITEGIC>MOL_PROPERTY
VdW
SciTegic.value.DoubleValue
0.261

@<SCITEGIC>MOL_PROPERTY
VdW6
SciTegic.value.DoubleValue
-4.165

@<SCITEGIC>MOL_PROPERTY
VdW12
SciTegic.value.DoubleValue
4.426

@<SCITEGIC>MOL_PROPERTY
Bond
SciTegic.value.DoubleValue
0.044

@<SCITEGIC>MOL_PROPERTY
Angle
SciTegic.value.DoubleValue
2.229

@<SCITEGIC>MOL_PROPERTY
Pdih
SciTegic.value.DoubleValue
12.953

@<SCITEGIC>MOL_PROPERTY
Idih
SciTegic.value.DoubleValue
0.000

@<SCITEGIC>MOL_PROPERTY
Tether
SciTegic.value.DoubleValue
0.000

@<TRIPOS>MOLECULE
guest-s20_confgen4.mol2 : confsearch ligand conformer 112
          17          16           1
SMALL
USER_CHARGES
 
@<TRIPOS>ATOM
       1    C1      21.425747   19.491900   24.963598 C.2        1 MOL1         0.6132
       2    O1      21.528850   20.665059   25.263408 O.co2      1 MOL1        -0.6749
       3    O2      22.259639   18.651996   25.239543 O.co2      1 MOL1        -0.6749
       4    C2      20.182037   19.046825   24.205509 C.3        1 MOL1        -0.1955
       5    H1      19.381132   19.768496   24.406459 H          1 MOL1         0.0733
       6    H2      19.860461   18.086187   24.624162 H          1 MOL1         0.0733
       7    C3      20.428412   18.909095   22.715182 C.2        1 MOL1        -0.1395
       8    H3      21.096021   18.097568   22.427221 H          1 MOL1         0.0816
       9    C4      19.888233   19.705611   21.787821 C.2        1 MOL1        -0.1394
      10    H4      19.223261   20.518889   22.076704 H          1 MOL1         0.0816
      11    C5      20.138176   19.569247   20.302475 C.3        1 MOL1        -0.1826
      12    H5      20.391856   20.549932   19.877696 H          1 MOL1         0.0736
      13    H6      20.999275   18.912703   20.116253 H          1 MOL1         0.0736
      14    C6      18.899340   19.002279   19.582134 C.3        1 MOL1        -0.2882
      15    H7      18.031022   19.659930   19.719782 H          1 MOL1         0.0749
      16    H8      19.086468   18.906279   18.504705 H          1 MOL1         0.0749
      17    H9      18.641596   18.009108   19.973005 H          1 MOL1         0.0749
@<TRIPOS>BOND
    1     1     2    1
    2     1     3    2
    3     1     4    1
    4     4     5    1
    5     4     6    1
    6     4     7    1
    7     7     8    1
    8     7     9    2
    9     9    10    1
   10     9    11    1
   11    11    12    1
   12    11    13    1
   13    11    14    1
   14    14    15    1
   15    14    16    1
   16    14    17    1
@<TRIPOS>SUBSTRUCTURE
       1 MOL1            1 RESIDUE      1      MOL     
@<SCITEGIC>MOL_PROPERTY
VConf Rank
SciTegic.value.IntegerValue
112

@<SCITEGIC>MOL_PROPERTY
Conf_Id
SciTegic.value.IntegerValue
35

@<SCITEGIC>MOL_PROPERTY
Delta U+W
SciTegic.value.DoubleValue
-0.102

@<SCITEGIC>MOL_PROPERTY
U+W
SciTegic.value.DoubleValue
-49.529

@<SCITEGIC>MOL_PROPERTY
Grad RMS
SciTegic.value.DoubleValue
0.000000

@<SCITEGIC>MOL_PROPERTY
U
SciTegic.value.DoubleValue
13.666

@<SCITEGIC>MOL_PROPERTY
W
SciTegic.value.DoubleValue
-63.195

@<SCITEGIC>MOL_PROPERTY
W(PB)
SciTegic.value.DoubleValue
-65.299

@<SCITEGIC>MOL_PROPERTY
W(SA)
SciTegic.value.DoubleValue
2.103

@<SCITEGIC>MOL_PROPERTY
Valence
SciTegic.value.DoubleValue
15.226

@<SCITEGIC>MOL_PROPERTY
Coulomb
SciTegic.value.DoubleValue
-1.822

@<SCITEGIC>MOL_PROPERTY
VdW
SciTegic.value.DoubleValue
0.261

@<SCITEGIC>MOL_PROPERTY
VdW6
SciTegic.value.DoubleValue
-4.165

@<SCITEGIC>MOL_PROPERTY
VdW12
SciTegic.value.DoubleValue
4.426

@<SCITEGIC>MOL_PROPERTY
Bond
SciTegic.value.DoubleValue
0.044

@<SCITEGIC>MOL_PROPERTY
Angle
SciTegic.value.DoubleValue
2.229

@<SCITEGIC>MOL_PROPERTY
Pdih
SciTegic.value.DoubleValue
12.953

@<SCITEGIC>MOL_PROPERTY
Idih
SciTegic.value.DoubleValue
0.000

@<SCITEGIC>MOL_PROPERTY
Tether
SciTegic.value.DoubleValue
0.000

@<TRIPOS>MOLECULE
guest-s20_confgen4.mol2 : confsearch ligand conformer 113
          17          16           1
SMALL
USER_CHARGES
 
@<TRIPOS>ATOM
       1    C1      19.033981   16.905265   23.778339 C.2        1 MOL1         0.6132
       2    O1      19.435588   16.954798   24.924301 O.co2      1 MOL1        -0.6749
       3    O2      17.869012   16.727297   23.481652 O.co2      1 MOL1        -0.6749
       4    C2      20.049052   17.065761   22.654255 C.3        1 MOL1        -0.1955
       5    H1      19.644540   16.584659   21.755647 H          1 MOL1         0.0733
       6    H2      20.951271   16.510768   22.936203 H          1 MOL1         0.0733
       7    C3      20.394010   18.518628   22.386694 C.2        1 MOL1        -0.1395
       8    H3      20.943604   19.010000   23.187687 H          1 MOL1         0.0816
       9    C4      20.058005   19.172390   21.267584 C.2        1 MOL1        -0.1394
      10    H4      19.503851   18.648612   20.489346 H          1 MOL1         0.0816
      11    C5      20.366563   20.622810   20.936429 C.3        1 MOL1        -0.1826
      12    H5      20.934430   20.661217   19.996984 H          1 MOL1         0.0736
      13    H6      19.424602   21.150141   20.733566 H          1 MOL1         0.0736
      14    C6      21.146611   21.389075   22.027480 C.3        1 MOL1        -0.2882
      15    H7      22.120634   20.919831   22.218506 H          1 MOL1         0.0749
      16    H8      21.328520   22.425394   21.714463 H          1 MOL1         0.0749
      17    H9      20.582588   21.416474   22.969083 H          1 MOL1         0.0749
@<TRIPOS>BOND
    1     1     2    1
    2     1     3    2
    3     1     4    1
    4     4     5    1
    5     4     6    1
    6     4     7    1
    7     7     8    1
    8     7     9    2
    9     9    10    1
   10     9    11    1
   11    11    12    1
   12    11    13    1
   13    11    14    1
   14    14    15    1
   15    14    16    1
   16    14    17    1
@<TRIPOS>SUBSTRUCTURE
       1 MOL1            1 RESIDUE      1      MOL     
@<SCITEGIC>MOL_PROPERTY
VConf Rank
SciTegic.value.IntegerValue
113

@<SCITEGIC>MOL_PROPERTY
Conf_Id
SciTegic.value.IntegerValue
19

@<SCITEGIC>MOL_PROPERTY
Delta U+W
SciTegic.value.DoubleValue
-0.496

@<SCITEGIC>MOL_PROPERTY
U+W
SciTegic.value.DoubleValue
-49.923

@<SCITEGIC>MOL_PROPERTY
Grad RMS
SciTegic.value.DoubleValue
0.000000

@<SCITEGIC>MOL_PROPERTY
U
SciTegic.value.DoubleValue
13.863

@<SCITEGIC>MOL_PROPERTY
W
SciTegic.value.DoubleValue
-63.786

@<SCITEGIC>MOL_PROPERTY
W(PB)
SciTegic.value.DoubleValue
-65.856

@<SCITEGIC>MOL_PROPERTY
W(SA)
SciTegic.value.DoubleValue
2.070

@<SCITEGIC>MOL_PROPERTY
Valence
SciTegic.value.DoubleValue
14.117

@<SCITEGIC>MOL_PROPERTY
Coulomb
SciTegic.value.DoubleValue
-1.228

@<SCITEGIC>MOL_PROPERTY
VdW
SciTegic.value.DoubleValue
0.974

@<SCITEGIC>MOL_PROPERTY
VdW6
SciTegic.value.DoubleValue
-4.885

@<SCITEGIC>MOL_PROPERTY
VdW12
SciTegic.value.DoubleValue
5.859

@<SCITEGIC>MOL_PROPERTY
Bond
SciTegic.value.DoubleValue
0.094

@<SCITEGIC>MOL_PROPERTY
Angle
SciTegic.value.DoubleValue
2.818

@<SCITEGIC>MOL_PROPERTY
Pdih
SciTegic.value.DoubleValue
11.205

@<SCITEGIC>MOL_PROPERTY
Idih
SciTegic.value.DoubleValue
0.000

@<SCITEGIC>MOL_PROPERTY
Tether
SciTegic.value.DoubleValue
0.000

@<TRIPOS>MOLECULE
guest-s20_confgen4.mol2 : confsearch ligand conformer 114
          17          16           1
SMALL
USER_CHARGES
 
@<TRIPOS>ATOM
       1    C1      19.119448   21.580378   23.312656 C.2        1 MOL1         0.6132
       2    O1      20.135354   22.222999   23.490944 O.co2      1 MOL1        -0.6749
       3    O2      18.122479   22.032201   22.784535 O.co2      1 MOL1        -0.6749
       4    C2      19.087873   20.132932   23.785658 C.3        1 MOL1        -0.1955
       5    H1      18.112024   19.954486   24.251877 H          1 MOL1         0.0733
       6    H2      19.845099   20.011449   24.569561 H          1 MOL1         0.0733
       7    C3      19.312989   19.147311   22.654889 C.2        1 MOL1        -0.1395
       8    H3      18.516387   19.100936   21.912939 H          1 MOL1         0.0816
       9    C4      20.398951   18.377667   22.534269 C.2        1 MOL1        -0.1394
      10    H4      21.197539   18.428193   23.273703 H          1 MOL1         0.0816
      11    C5      20.622793   17.397612   21.404347 C.3        1 MOL1        -0.1826
      12    H5      20.938658   16.427640   21.811661 H          1 MOL1         0.0736
      13    H6      19.686142   17.220377   20.858012 H          1 MOL1         0.0736
      14    C6      21.693537   17.917095   20.425248 C.3        1 MOL1        -0.2882
      15    H7      22.653090   18.066556   20.937444 H          1 MOL1         0.0749
      16    H8      21.851662   17.202374   19.607178 H          1 MOL1         0.0749
      17    H9      21.387550   18.875800   19.986002 H          1 MOL1         0.0749
@<TRIPOS>BOND
    1     1     2    1
    2     1     3    2
    3     1     4    1
    4     4     5    1
    5     4     6    1
    6     4     7    1
    7     7     8    1
    8     7     9    2
    9     9    10    1
   10     9    11    1
   11    11    12    1
   12    11    13    1
   13    11    14    1
   14    14    15    1
   15    14    16    1
   16    14    17    1
@<TRIPOS>SUBSTRUCTURE
       1 MOL1            1 RESIDUE      1      MOL     
@<SCITEGIC>MOL_PROPERTY
VConf Rank
SciTegic.value.IntegerValue
114

@<SCITEGIC>MOL_PROPERTY
Conf_Id
SciTegic.value.IntegerValue
7

@<SCITEGIC>MOL_PROPERTY
Delta U+W
SciTegic.value.DoubleValue
-0.041

@<SCITEGIC>MOL_PROPERTY
U+W
SciTegic.value.DoubleValue
-49.468

@<SCITEGIC>MOL_PROPERTY
Grad RMS
SciTegic.value.DoubleValue
0.000000

@<SCITEGIC>MOL_PROPERTY
U
SciTegic.value.DoubleValue
14.121

@<SCITEGIC>MOL_PROPERTY
W
SciTegic.value.DoubleValue
-63.589

@<SCITEGIC>MOL_PROPERTY
W(PB)
SciTegic.value.DoubleValue
-65.660

@<SCITEGIC>MOL_PROPERTY
W(SA)
SciTegic.value.DoubleValue
2.071

@<SCITEGIC>MOL_PROPERTY
Valence
SciTegic.value.DoubleValue
15.230

@<SCITEGIC>MOL_PROPERTY
Coulomb
SciTegic.value.DoubleValue
-1.333

@<SCITEGIC>MOL_PROPERTY
VdW
SciTegic.value.DoubleValue
0.224

@<SCITEGIC>MOL_PROPERTY
VdW6
SciTegic.value.DoubleValue
-4.212

@<SCITEGIC>MOL_PROPERTY
VdW12
SciTegic.value.DoubleValue
4.436

@<SCITEGIC>MOL_PROPERTY
Bond
SciTegic.value.DoubleValue
0.044

@<SCITEGIC>MOL_PROPERTY
Angle
SciTegic.value.DoubleValue
2.230

@<SCITEGIC>MOL_PROPERTY
Pdih
SciTegic.value.DoubleValue
12.956

@<SCITEGIC>MOL_PROPERTY
Idih
SciTegic.value.DoubleValue
0.000

@<SCITEGIC>MOL_PROPERTY
Tether
SciTegic.value.DoubleValue
0.000

@<TRIPOS>MOLECULE
guest-s20_confgen4.mol2 : confsearch ligand conformer 115
          17          16           1
SMALL
USER_CHARGES
 
@<TRIPOS>ATOM
       1    C1      19.097226   21.829943   22.412366 C.2        1 MOL1         0.6132
       2    O1      19.412768   22.141436   23.543913 O.co2      1 MOL1        -0.6749
       3    O2      17.958143   21.889098   21.992757 O.co2      1 MOL1        -0.6749
       4    C2      20.194170   21.366206   21.458826 C.3        1 MOL1        -0.1955
       5    H1      21.117283   21.893602   21.726194 H          1 MOL1         0.0733
       6    H2      19.931238   21.710464   20.451813 H          1 MOL1         0.0733
       7    C3      20.452481   19.866359   21.434118 C.2        1 MOL1        -0.1395
       8    H3      21.239002   19.557027   20.746917 H          1 MOL1         0.0816
       9    C4      19.812427   18.945739   22.164723 C.2        1 MOL1        -0.1394
      10    H4      19.022820   19.228356   22.859979 H          1 MOL1         0.0816
      11    C5      20.107124   17.463479   22.101477 C.3        1 MOL1        -0.1826
      12    H5      19.167771   16.902968   22.001660 H          1 MOL1         0.0736
      13    H6      20.710255   17.228191   21.213768 H          1 MOL1         0.0736
      14    C6      20.854140   16.993176   23.364734 C.3        1 MOL1        -0.2882
      15    H7      21.064099   15.916881   23.314075 H          1 MOL1         0.0749
      16    H8      21.810207   17.522380   23.471853 H          1 MOL1         0.0749
      17    H9      20.256255   17.181768   24.266080 H          1 MOL1         0.0749
@<TRIPOS>BOND
    1     1     2    1
    2     1     3    2
    3     1     4    1
    4     4     5    1
    5     4     6    1
    6     4     7    1
    7     7     8    1
    8     7     9    2
    9     9    10    1
   10     9    11    1
   11    11    12    1
   12    11    13    1
   13    11    14    1
   14    14    15    1
   15    14    16    1
   16    14    17    1
@<TRIPOS>SUBSTRUCTURE
       1 MOL1            1 RESIDUE      1      MOL     
@<SCITEGIC>MOL_PROPERTY
VConf Rank
SciTegic.value.IntegerValue
115

@<SCITEGIC>MOL_PROPERTY
Conf_Id
SciTegic.value.IntegerValue
39

@<SCITEGIC>MOL_PROPERTY
Delta U+W
SciTegic.value.DoubleValue
-0.422

@<SCITEGIC>MOL_PROPERTY
U+W
SciTegic.value.DoubleValue
-49.849

@<SCITEGIC>MOL_PROPERTY
Grad RMS
SciTegic.value.DoubleValue
0.000000

@<SCITEGIC>MOL_PROPERTY
U
SciTegic.value.DoubleValue
14.465

@<SCITEGIC>MOL_PROPERTY
W
SciTegic.value.DoubleValue
-64.314

@<SCITEGIC>MOL_PROPERTY
W(PB)
SciTegic.value.DoubleValue
-66.406

@<SCITEGIC>MOL_PROPERTY
W(SA)
SciTegic.value.DoubleValue
2.093

@<SCITEGIC>MOL_PROPERTY
Valence
SciTegic.value.DoubleValue
14.072

@<SCITEGIC>MOL_PROPERTY
Coulomb
SciTegic.value.DoubleValue
-0.199

@<SCITEGIC>MOL_PROPERTY
VdW
SciTegic.value.DoubleValue
0.592

@<SCITEGIC>MOL_PROPERTY
VdW6
SciTegic.value.DoubleValue
-5.019

@<SCITEGIC>MOL_PROPERTY
VdW12
SciTegic.value.DoubleValue
5.611

@<SCITEGIC>MOL_PROPERTY
Bond
SciTegic.value.DoubleValue
0.085

@<SCITEGIC>MOL_PROPERTY
Angle
SciTegic.value.DoubleValue
2.748

@<SCITEGIC>MOL_PROPERTY
Pdih
SciTegic.value.DoubleValue
11.238

@<SCITEGIC>MOL_PROPERTY
Idih
SciTegic.value.DoubleValue
0.001

@<SCITEGIC>MOL_PROPERTY
Tether
SciTegic.value.DoubleValue
0.000

@<TRIPOS>MOLECULE
guest-s20_confgen4.mol2 : confsearch ligand conformer 116
          17          16           1
SMALL
USER_CHARGES
 
@<TRIPOS>ATOM
       1    C1      23.019227   19.242235   23.349338 C.2        1 MOL1         0.6132
       2    O1      23.104977   18.935638   24.522201 O.co2      1 MOL1        -0.6749
       3    O2      23.681009   20.121987   22.834655 O.co2      1 MOL1        -0.6749
       4    C2      22.031910   18.477363   22.477686 C.3        1 MOL1        -0.1955
       5    H1      22.091149   17.418427   22.754552 H          1 MOL1         0.0733
       6    H2      22.362769   18.555290   21.435045 H          1 MOL1         0.0733
       7    C3      20.608817   18.978056   22.635350 C.2        1 MOL1        -0.1395
       8    H3      20.153543   18.787070   23.606664 H          1 MOL1         0.0816
       9    C4      19.926238   19.614635   21.678751 C.2        1 MOL1        -0.1394
      10    H4      20.383137   19.807919   20.708727 H          1 MOL1         0.0816
      11    C5      18.508587   20.116526   21.839043 C.3        1 MOL1        -0.1826
      12    H5      18.218687   20.117504   22.898844 H          1 MOL1         0.0736
      13    H6      18.442378   21.156980   21.493203 H          1 MOL1         0.0736
      14    C6      17.519139   19.245734   21.040434 C.3        1 MOL1        -0.2882
      15    H7      17.549052   18.204194   21.386701 H          1 MOL1         0.0749
      16    H8      16.492344   19.615136   21.160103 H          1 MOL1         0.0749
      17    H9      17.762752   19.257416   19.969946 H          1 MOL1         0.0749
@<TRIPOS>BOND
    1     1     2    1
    2     1     3    2
    3     1     4    1
    4     4     5    1
    5     4     6    1
    6     4     7    1
    7     7     8    1
    8     7     9    2
    9     9    10    1
   10     9    11    1
   11    11    12    1
   12    11    13    1
   13    11    14    1
   14    14    15    1
   15    14    16    1
   16    14    17    1
@<TRIPOS>SUBSTRUCTURE
       1 MOL1            1 RESIDUE      1      MOL     
@<SCITEGIC>MOL_PROPERTY
VConf Rank
SciTegic.value.IntegerValue
116

@<SCITEGIC>MOL_PROPERTY
Conf_Id
SciTegic.value.IntegerValue
38

@<SCITEGIC>MOL_PROPERTY
Delta U+W
SciTegic.value.DoubleValue
0.000

@<SCITEGIC>MOL_PROPERTY
U+W
SciTegic.value.DoubleValue
-49.427

@<SCITEGIC>MOL_PROPERTY
Grad RMS
SciTegic.value.DoubleValue
0.000000

@<SCITEGIC>MOL_PROPERTY
U
SciTegic.value.DoubleValue
13.666

@<SCITEGIC>MOL_PROPERTY
W
SciTegic.value.DoubleValue
-63.093

@<SCITEGIC>MOL_PROPERTY
W(PB)
SciTegic.value.DoubleValue
-65.225

@<SCITEGIC>MOL_PROPERTY
W(SA)
SciTegic.value.DoubleValue
2.132

@<SCITEGIC>MOL_PROPERTY
Valence
SciTegic.value.DoubleValue
15.226

@<SCITEGIC>MOL_PROPERTY
Coulomb
SciTegic.value.DoubleValue
-1.822

@<SCITEGIC>MOL_PROPERTY
VdW
SciTegic.value.DoubleValue
0.261

@<SCITEGIC>MOL_PROPERTY
VdW6
SciTegic.value.DoubleValue
-4.165

@<SCITEGIC>MOL_PROPERTY
VdW12
SciTegic.value.DoubleValue
4.426

@<SCITEGIC>MOL_PROPERTY
Bond
SciTegic.value.DoubleValue
0.044

@<SCITEGIC>MOL_PROPERTY
Angle
SciTegic.value.DoubleValue
2.229

@<SCITEGIC>MOL_PROPERTY
Pdih
SciTegic.value.DoubleValue
12.953

@<SCITEGIC>MOL_PROPERTY
Idih
SciTegic.value.DoubleValue
0.000

@<SCITEGIC>MOL_PROPERTY
Tether
SciTegic.value.DoubleValue
0.000

@<TRIPOS>MOLECULE
guest-s20_confgen4.mol2 : confsearch ligand conformer 117
          17          16           1
SMALL
USER_CHARGES
 
@<TRIPOS>ATOM
       1    C1      21.292495   22.115160   22.778062 C.2        1 MOL1         0.6132
       2    O1      22.017514   22.464989   21.867686 O.co2      1 MOL1        -0.6749
       3    O2      21.526379   22.342607   23.948757 O.co2      1 MOL1        -0.6749
       4    C2      20.018126   21.354926   22.435086 C.3        1 MOL1        -0.1955
       5    H1      19.740890   21.598213   21.402326 H          1 MOL1         0.0733
       6    H2      19.217465   21.735094   23.080005 H          1 MOL1         0.0733
       7    C3      20.168074   19.856808   22.619209 C.2        1 MOL1        -0.1395
       8    H3      20.285710   19.524427   23.650173 H          1 MOL1         0.0816
       9    C4      20.164551   18.972787   21.616850 C.2        1 MOL1        -0.1394
      10    H4      20.050068   19.306130   20.585910 H          1 MOL1         0.0816
      11    C5      20.318168   17.479656   21.802008 C.3        1 MOL1        -0.1826
      12    H5      21.073094   17.095162   21.102878 H          1 MOL1         0.0736
      13    H6      20.681242   17.253147   22.813982 H          1 MOL1         0.0736
      14    C6      18.980614   16.751691   21.565206 C.3        1 MOL1        -0.2882
      15    H7      18.612737   16.929825   20.546205 H          1 MOL1         0.0749
      16    H8      19.098514   15.668666   21.700271 H          1 MOL1         0.0749
      17    H9      18.215887   17.101817   22.271043 H          1 MOL1         0.0749
@<TRIPOS>BOND
    1     1     2    1
    2     1     3    2
    3     1     4    1
    4     4     5    1
    5     4     6    1
    6     4     7    1
    7     7     8    1
    8     7     9    2
    9     9    10    1
   10     9    11    1
   11    11    12    1
   12    11    13    1
   13    11    14    1
   14    14    15    1
   15    14    16    1
   16    14    17    1
@<TRIPOS>SUBSTRUCTURE
       1 MOL1            1 RESIDUE      1      MOL     
@<SCITEGIC>MOL_PROPERTY
VConf Rank
SciTegic.value.IntegerValue
117

@<SCITEGIC>MOL_PROPERTY
Conf_Id
SciTegic.value.IntegerValue
35

@<SCITEGIC>MOL_PROPERTY
Delta U+W
SciTegic.value.DoubleValue
-0.102

@<SCITEGIC>MOL_PROPERTY
U+W
SciTegic.value.DoubleValue
-49.529

@<SCITEGIC>MOL_PROPERTY
Grad RMS
SciTegic.value.DoubleValue
0.000000

@<SCITEGIC>MOL_PROPERTY
U
SciTegic.value.DoubleValue
13.666

@<SCITEGIC>MOL_PROPERTY
W
SciTegic.value.DoubleValue
-63.195

@<SCITEGIC>MOL_PROPERTY
W(PB)
SciTegic.value.DoubleValue
-65.299

@<SCITEGIC>MOL_PROPERTY
W(SA)
SciTegic.value.DoubleValue
2.103

@<SCITEGIC>MOL_PROPERTY
Valence
SciTegic.value.DoubleValue
15.226

@<SCITEGIC>MOL_PROPERTY
Coulomb
SciTegic.value.DoubleValue
-1.822

@<SCITEGIC>MOL_PROPERTY
VdW
SciTegic.value.DoubleValue
0.261

@<SCITEGIC>MOL_PROPERTY
VdW6
SciTegic.value.DoubleValue
-4.165

@<SCITEGIC>MOL_PROPERTY
VdW12
SciTegic.value.DoubleValue
4.426

@<SCITEGIC>MOL_PROPERTY
Bond
SciTegic.value.DoubleValue
0.044

@<SCITEGIC>MOL_PROPERTY
Angle
SciTegic.value.DoubleValue
2.229

@<SCITEGIC>MOL_PROPERTY
Pdih
SciTegic.value.DoubleValue
12.953

@<SCITEGIC>MOL_PROPERTY
Idih
SciTegic.value.DoubleValue
0.000

@<SCITEGIC>MOL_PROPERTY
Tether
SciTegic.value.DoubleValue
0.000

@<TRIPOS>MOLECULE
guest-s20_confgen4.mol2 : confsearch ligand conformer 118
          17          16           1
SMALL
USER_CHARGES
 
@<TRIPOS>ATOM
       1    C1      22.459871   20.124422   23.831273 C.2        1 MOL1         0.6132
       2    O1      23.334631   19.284171   23.907065 O.co2      1 MOL1        -0.6749
       3    O2      22.673847   21.298371   23.601259 O.co2      1 MOL1        -0.6749
       4    C2      21.018494   19.681649   24.045934 C.3        1 MOL1        -0.1955
       5    H1      20.436930   20.552756   24.370803 H          1 MOL1         0.0733
       6    H2      21.008786   18.963168   24.873702 H          1 MOL1         0.0733
       7    C3      20.413121   19.053833   22.804653 C.2        1 MOL1        -0.1395
       8    H3      20.847848   18.096800   22.521476 H          1 MOL1         0.0816
       9    C4      19.426764   19.610921   22.090886 C.2        1 MOL1        -0.1394
      10    H4      19.019542   20.572218   22.402595 H          1 MOL1         0.0816
      11    C5      18.778313   19.041689   20.840256 C.3        1 MOL1        -0.1826
      12    H5      17.698292   18.940451   21.012920 H          1 MOL1         0.0736
      13    H6      18.879623   19.769308   20.023660 H          1 MOL1         0.0736
      14    C6      19.342973   17.681500   20.374346 C.3        1 MOL1        -0.2882
      15    H7      19.209288   16.913663   21.147623 H          1 MOL1         0.0749
      16    H8      18.825415   17.339850   19.468566 H          1 MOL1         0.0749
      17    H9      20.413126   17.758350   20.141201 H          1 MOL1         0.0749
@<TRIPOS>BOND
    1     1     2    1
    2     1     3    2
    3     1     4    1
    4     4     5    1
    5     4     6    1
    6     4     7    1
    7     7     8    1
    8     7     9    2
    9     9    10    1
   10     9    11    1
   11    11    12    1
   12    11    13    1
   13    11    14    1
   14    14    15    1
   15    14    16    1
   16    14    17    1
@<TRIPOS>SUBSTRUCTURE
       1 MOL1            1 RESIDUE      1      MOL     
@<SCITEGIC>MOL_PROPERTY
VConf Rank
SciTegic.value.IntegerValue
118

@<SCITEGIC>MOL_PROPERTY
Conf_Id
SciTegic.value.IntegerValue
19

@<SCITEGIC>MOL_PROPERTY
Delta U+W
SciTegic.value.DoubleValue
-0.496

@<SCITEGIC>MOL_PROPERTY
U+W
SciTegic.value.DoubleValue
-49.923

@<SCITEGIC>MOL_PROPERTY
Grad RMS
SciTegic.value.DoubleValue
0.000000

@<SCITEGIC>MOL_PROPERTY
U
SciTegic.value.DoubleValue
13.863

@<SCITEGIC>MOL_PROPERTY
W
SciTegic.value.DoubleValue
-63.786

@<SCITEGIC>MOL_PROPERTY
W(PB)
SciTegic.value.DoubleValue
-65.856

@<SCITEGIC>MOL_PROPERTY
W(SA)
SciTegic.value.DoubleValue
2.070

@<SCITEGIC>MOL_PROPERTY
Valence
SciTegic.value.DoubleValue
14.117

@<SCITEGIC>MOL_PROPERTY
Coulomb
SciTegic.value.DoubleValue
-1.228

@<SCITEGIC>MOL_PROPERTY
VdW
SciTegic.value.DoubleValue
0.974

@<SCITEGIC>MOL_PROPERTY
VdW6
SciTegic.value.DoubleValue
-4.885

@<SCITEGIC>MOL_PROPERTY
VdW12
SciTegic.value.DoubleValue
5.859

@<SCITEGIC>MOL_PROPERTY
Bond
SciTegic.value.DoubleValue
0.094

@<SCITEGIC>MOL_PROPERTY
Angle
SciTegic.value.DoubleValue
2.818

@<SCITEGIC>MOL_PROPERTY
Pdih
SciTegic.value.DoubleValue
11.205

@<SCITEGIC>MOL_PROPERTY
Idih
SciTegic.value.DoubleValue
0.000

@<SCITEGIC>MOL_PROPERTY
Tether
SciTegic.value.DoubleValue
0.000

@<TRIPOS>MOLECULE
guest-s20_confgen4.mol2 : confsearch ligand conformer 119
          17          16           1
SMALL
USER_CHARGES
 
@<TRIPOS>ATOM
       1    C1      20.945457   18.230480   19.509294 C.2        1 MOL1         0.6132
       2    O1      22.110132   18.574169   19.462141 O.co2      1 MOL1        -0.6749
       3    O2      20.550812   17.141335   19.141844 O.co2      1 MOL1        -0.6749
       4    C2      19.921239   19.220821   20.047838 C.3        1 MOL1        -0.1955
       5    H1      19.033370   19.165421   19.407444 H          1 MOL1         0.0733
       6    H2      20.331979   20.231943   19.940232 H          1 MOL1         0.0733
       7    C3      19.542351   18.938471   21.489186 C.2        1 MOL1        -0.1395
       8    H3      18.987439   18.014971   21.651780 H          1 MOL1         0.0816
       9    C4      19.853417   19.733751   22.517283 C.2        1 MOL1        -0.1394
      10    H4      20.412785   20.654487   22.354765 H          1 MOL1         0.0816
      11    C5      19.477180   19.448881   23.954165 C.3        1 MOL1        -0.1826
      12    H5      19.033385   20.346155   24.406346 H          1 MOL1         0.0736
      13    H6      18.713323   18.660593   24.002467 H          1 MOL1         0.0736
      14    C6      20.708764   19.016142   24.773267 C.3        1 MOL1        -0.2882
      15    H7      21.474486   19.802967   24.774521 H          1 MOL1         0.0749
      16    H8      20.430027   18.810280   25.814898 H          1 MOL1         0.0749
      17    H9      21.155432   18.105141   24.353451 H          1 MOL1         0.0749
@<TRIPOS>BOND
    1     1     2    1
    2     1     3    2
    3     1     4    1
    4     4     5    1
    5     4     6    1
    6     4     7    1
    7     7     8    1
    8     7     9    2
    9     9    10    1
   10     9    11    1
   11    11    12    1
   12    11    13    1
   13    11    14    1
   14    14    15    1
   15    14    16    1
   16    14    17    1
@<TRIPOS>SUBSTRUCTURE
       1 MOL1            1 RESIDUE      1      MOL     
@<SCITEGIC>MOL_PROPERTY
VConf Rank
SciTegic.value.IntegerValue
119

@<SCITEGIC>MOL_PROPERTY
Conf_Id
SciTegic.value.IntegerValue
7

@<SCITEGIC>MOL_PROPERTY
Delta U+W
SciTegic.value.DoubleValue
-0.041

@<SCITEGIC>MOL_PROPERTY
U+W
SciTegic.value.DoubleValue
-49.468

@<SCITEGIC>MOL_PROPERTY
Grad RMS
SciTegic.value.DoubleValue
0.000000

@<SCITEGIC>MOL_PROPERTY
U
SciTegic.value.DoubleValue
14.121

@<SCITEGIC>MOL_PROPERTY
W
SciTegic.value.DoubleValue
-63.589

@<SCITEGIC>MOL_PROPERTY
W(PB)
SciTegic.value.DoubleValue
-65.660

@<SCITEGIC>MOL_PROPERTY
W(SA)
SciTegic.value.DoubleValue
2.071

@<SCITEGIC>MOL_PROPERTY
Valence
SciTegic.value.DoubleValue
15.230

@<SCITEGIC>MOL_PROPERTY
Coulomb
SciTegic.value.DoubleValue
-1.333

@<SCITEGIC>MOL_PROPERTY
VdW
SciTegic.value.DoubleValue
0.224

@<SCITEGIC>MOL_PROPERTY
VdW6
SciTegic.value.DoubleValue
-4.212

@<SCITEGIC>MOL_PROPERTY
VdW12
SciTegic.value.DoubleValue
4.436

@<SCITEGIC>MOL_PROPERTY
Bond
SciTegic.value.DoubleValue
0.044

@<SCITEGIC>MOL_PROPERTY
Angle
SciTegic.value.DoubleValue
2.230

@<SCITEGIC>MOL_PROPERTY
Pdih
SciTegic.value.DoubleValue
12.956

@<SCITEGIC>MOL_PROPERTY
Idih
SciTegic.value.DoubleValue
0.000

@<SCITEGIC>MOL_PROPERTY
Tether
SciTegic.value.DoubleValue
0.000

@<TRIPOS>MOLECULE
guest-s20_confgen4.mol2 : confsearch ligand conformer 120
          17          16           1
SMALL
USER_CHARGES
 
@<TRIPOS>ATOM
       1    C1      19.795855   18.567604   19.617040 C.2        1 MOL1         0.6132
       2    O1      19.486173   19.637645   19.131136 O.co2      1 MOL1        -0.6749
       3    O2      19.133200   17.556527   19.491763 O.co2      1 MOL1        -0.6749
       4    C2      21.100630   18.482290   20.403081 C.3        1 MOL1        -0.1955
       5    H1      21.807044   19.194235   19.960496 H          1 MOL1         0.0733
       6    H2      21.529681   17.487696   20.234505 H          1 MOL1         0.0733
       7    C3      20.984944   18.741329   21.898538 C.2        1 MOL1        -0.1395
       8    H3      21.927625   18.675368   22.440338 H          1 MOL1         0.0816
       9    C4      19.859638   19.032661   22.561718 C.2        1 MOL1        -0.1394
      10    H4      18.904012   19.105570   22.043840 H          1 MOL1         0.0816
      11    C5      19.798471   19.280503   24.052615 C.3        1 MOL1        -0.1826
      12    H5      18.978151   18.696807   24.491812 H          1 MOL1         0.0736
      13    H6      20.723118   18.939188   24.538090 H          1 MOL1         0.0736
      14    C6      19.584947   20.776119   24.356876 C.3        1 MOL1        -0.2882
      15    H7      19.539959   20.949907   25.439850 H          1 MOL1         0.0749
      16    H8      20.407535   21.378159   23.948841 H          1 MOL1         0.0749
      17    H9      18.646423   21.135463   23.914718 H          1 MOL1         0.0749
@<TRIPOS>BOND
    1     1     2    1
    2     1     3    2
    3     1     4    1
    4     4     5    1
    5     4     6    1
    6     4     7    1
    7     7     8    1
    8     7     9    2
    9     9    10    1
   10     9    11    1
   11    11    12    1
   12    11    13    1
   13    11    14    1
   14    14    15    1
   15    14    16    1
   16    14    17    1
@<TRIPOS>SUBSTRUCTURE
       1 MOL1            1 RESIDUE      1      MOL     
@<SCITEGIC>MOL_PROPERTY
VConf Rank
SciTegic.value.IntegerValue
120

@<SCITEGIC>MOL_PROPERTY
Conf_Id
SciTegic.value.IntegerValue
39

@<SCITEGIC>MOL_PROPERTY
Delta U+W
SciTegic.value.DoubleValue
-0.422

@<SCITEGIC>MOL_PROPERTY
U+W
SciTegic.value.DoubleValue
-49.849

@<SCITEGIC>MOL_PROPERTY
Grad RMS
SciTegic.value.DoubleValue
0.000000

@<SCITEGIC>MOL_PROPERTY
U
SciTegic.value.DoubleValue
14.465

@<SCITEGIC>MOL_PROPERTY
W
SciTegic.value.DoubleValue
-64.314

@<SCITEGIC>MOL_PROPERTY
W(PB)
SciTegic.value.DoubleValue
-66.406

@<SCITEGIC>MOL_PROPERTY
W(SA)
SciTegic.value.DoubleValue
2.093

@<SCITEGIC>MOL_PROPERTY
Valence
SciTegic.value.DoubleValue
14.072

@<SCITEGIC>MOL_PROPERTY
Coulomb
SciTegic.value.DoubleValue
-0.199

@<SCITEGIC>MOL_PROPERTY
VdW
SciTegic.value.DoubleValue
0.592

@<SCITEGIC>MOL_PROPERTY
VdW6
SciTegic.value.DoubleValue
-5.019

@<SCITEGIC>MOL_PROPERTY
VdW12
SciTegic.value.DoubleValue
5.611

@<SCITEGIC>MOL_PROPERTY
Bond
SciTegic.value.DoubleValue
0.085

@<SCITEGIC>MOL_PROPERTY
Angle
SciTegic.value.DoubleValue
2.748

@<SCITEGIC>MOL_PROPERTY
Pdih
SciTegic.value.DoubleValue
11.238

@<SCITEGIC>MOL_PROPERTY
Idih
SciTegic.value.DoubleValue
0.001

@<SCITEGIC>MOL_PROPERTY
Tether
SciTegic.value.DoubleValue
0.000

@<TRIPOS>MOLECULE
guest-s20_confgen4.mol2 : confsearch ligand conformer 121
          17          16           1
SMALL
USER_CHARGES
 
@<TRIPOS>ATOM
       1    C1      17.985146   21.129915   23.540569 C.2        1 MOL1         0.6132
       2    O1      18.275821   21.529733   24.650801 O.co2      1 MOL1        -0.6749
       3    O2      16.867284   20.770958   23.226956 O.co2      1 MOL1        -0.6749
       4    C2      19.081830   21.082043   22.484825 C.3        1 MOL1        -0.1955
       5    H1      19.686811   21.990161   22.588891 H          1 MOL1         0.0733
       6    H2      18.608596   21.123411   21.496402 H          1 MOL1         0.0733
       7    C3      19.960845   19.852839   22.615723 C.2        1 MOL1        -0.1395
       8    H3      20.587883   19.822197   23.506277 H          1 MOL1         0.0816
       9    C4      19.993212   18.854570   21.727670 C.2        1 MOL1        -0.1394
      10    H4      19.363749   18.884445   20.838882 H          1 MOL1         0.0816
      11    C5      20.867579   17.627857   21.861755 C.3        1 MOL1        -0.1826
      12    H5      21.265206   17.548992   22.882977 H          1 MOL1         0.0736
      13    H6      20.268061   16.724348   21.686299 H          1 MOL1         0.0736
      14    C6      22.038323   17.670050   20.860436 C.3        1 MOL1        -0.2882
      15    H7      22.667672   18.552996   21.033434 H          1 MOL1         0.0749
      16    H8      22.668792   16.777148   20.962025 H          1 MOL1         0.0749
      17    H9      21.668903   17.710445   19.827321 H          1 MOL1         0.0749
@<TRIPOS>BOND
    1     1     2    1
    2     1     3    2
    3     1     4    1
    4     4     5    1
    5     4     6    1
    6     4     7    1
    7     7     8    1
    8     7     9    2
    9     9    10    1
   10     9    11    1
   11    11    12    1
   12    11    13    1
   13    11    14    1
   14    14    15    1
   15    14    16    1
   16    14    17    1
@<TRIPOS>SUBSTRUCTURE
       1 MOL1            1 RESIDUE      1      MOL     
@<SCITEGIC>MOL_PROPERTY
VConf Rank
SciTegic.value.IntegerValue
121

@<SCITEGIC>MOL_PROPERTY
Conf_Id
SciTegic.value.IntegerValue
38

@<SCITEGIC>MOL_PROPERTY
Delta U+W
SciTegic.value.DoubleValue
0.000

@<SCITEGIC>MOL_PROPERTY
U+W
SciTegic.value.DoubleValue
-49.427

@<SCITEGIC>MOL_PROPERTY
Grad RMS
SciTegic.value.DoubleValue
0.000000

@<SCITEGIC>MOL_PROPERTY
U
SciTegic.value.DoubleValue
13.666

@<SCITEGIC>MOL_PROPERTY
W
SciTegic.value.DoubleValue
-63.093

@<SCITEGIC>MOL_PROPERTY
W(PB)
SciTegic.value.DoubleValue
-65.225

@<SCITEGIC>MOL_PROPERTY
W(SA)
SciTegic.value.DoubleValue
2.132

@<SCITEGIC>MOL_PROPERTY
Valence
SciTegic.value.DoubleValue
15.226

@<SCITEGIC>MOL_PROPERTY
Coulomb
SciTegic.value.DoubleValue
-1.822

@<SCITEGIC>MOL_PROPERTY
VdW
SciTegic.value.DoubleValue
0.261

@<SCITEGIC>MOL_PROPERTY
VdW6
SciTegic.value.DoubleValue
-4.165

@<SCITEGIC>MOL_PROPERTY
VdW12
SciTegic.value.DoubleValue
4.426

@<SCITEGIC>MOL_PROPERTY
Bond
SciTegic.value.DoubleValue
0.044

@<SCITEGIC>MOL_PROPERTY
Angle
SciTegic.value.DoubleValue
2.229

@<SCITEGIC>MOL_PROPERTY
Pdih
SciTegic.value.DoubleValue
12.953

@<SCITEGIC>MOL_PROPERTY
Idih
SciTegic.value.DoubleValue
0.000

@<SCITEGIC>MOL_PROPERTY
Tether
SciTegic.value.DoubleValue
0.000

@<TRIPOS>MOLECULE
guest-s20_confgen4.mol2 : confsearch ligand conformer 122
          17          16           1
SMALL
USER_CHARGES
 
@<TRIPOS>ATOM
       1    C1      18.429399   18.462883   19.531203 C.2        1 MOL1         0.6132
       2    O1      17.865722   17.405872   19.735690 O.co2      1 MOL1        -0.6749
       3    O2      18.909278   18.772001   18.458299 O.co2      1 MOL1        -0.6749
       4    C2      18.536632   19.458088   20.679101 C.3        1 MOL1        -0.1955
       5    H1      17.732683   19.245260   21.393951 H          1 MOL1         0.0733
       6    H2      18.348340   20.458842   20.273459 H          1 MOL1         0.0733
       7    C3      19.892468   19.417933   21.357954 C.2        1 MOL1        -0.1395
       8    H3      20.726084   19.773647   20.753179 H          1 MOL1         0.0816
       9    C4      20.095371   18.982707   22.605206 C.2        1 MOL1        -0.1394
      10    H4      19.261814   18.624172   23.208277 H          1 MOL1         0.0816
      11    C5      21.448641   18.939685   23.279099 C.3        1 MOL1        -0.1826
      12    H5      21.600456   17.955830   23.743334 H          1 MOL1         0.0736
      13    H6      22.250805   19.066248   22.539009 H          1 MOL1         0.0736
      14    C6      21.567672   20.038424   24.353186 C.3        1 MOL1        -0.2882
      15    H7      20.800059   19.913435   25.128154 H          1 MOL1         0.0749
      16    H8      22.551350   20.001757   24.839108 H          1 MOL1         0.0749
      17    H9      21.444753   21.034320   23.907449 H          1 MOL1         0.0749
@<TRIPOS>BOND
    1     1     2    1
    2     1     3    2
    3     1     4    1
    4     4     5    1
    5     4     6    1
    6     4     7    1
    7     7     8    1
    8     7     9    2
    9     9    10    1
   10     9    11    1
   11    11    12    1
   12    11    13    1
   13    11    14    1
   14    14    15    1
   15    14    16    1
   16    14    17    1
@<TRIPOS>SUBSTRUCTURE
       1 MOL1            1 RESIDUE      1      MOL     
@<SCITEGIC>MOL_PROPERTY
VConf Rank
SciTegic.value.IntegerValue
122

@<SCITEGIC>MOL_PROPERTY
Conf_Id
SciTegic.value.IntegerValue
35

@<SCITEGIC>MOL_PROPERTY
Delta U+W
SciTegic.value.DoubleValue
-0.102

@<SCITEGIC>MOL_PROPERTY
U+W
SciTegic.value.DoubleValue
-49.529

@<SCITEGIC>MOL_PROPERTY
Grad RMS
SciTegic.value.DoubleValue
0.000000

@<SCITEGIC>MOL_PROPERTY
U
SciTegic.value.DoubleValue
13.666

@<SCITEGIC>MOL_PROPERTY
W
SciTegic.value.DoubleValue
-63.195

@<SCITEGIC>MOL_PROPERTY
W(PB)
SciTegic.value.DoubleValue
-65.299

@<SCITEGIC>MOL_PROPERTY
W(SA)
SciTegic.value.DoubleValue
2.103

@<SCITEGIC>MOL_PROPERTY
Valence
SciTegic.value.DoubleValue
15.226

@<SCITEGIC>MOL_PROPERTY
Coulomb
SciTegic.value.DoubleValue
-1.822

@<SCITEGIC>MOL_PROPERTY
VdW
SciTegic.value.DoubleValue
0.261

@<SCITEGIC>MOL_PROPERTY
VdW6
SciTegic.value.DoubleValue
-4.165

@<SCITEGIC>MOL_PROPERTY
VdW12
SciTegic.value.DoubleValue
4.426

@<SCITEGIC>MOL_PROPERTY
Bond
SciTegic.value.DoubleValue
0.044

@<SCITEGIC>MOL_PROPERTY
Angle
SciTegic.value.DoubleValue
2.229

@<SCITEGIC>MOL_PROPERTY
Pdih
SciTegic.value.DoubleValue
12.953

@<SCITEGIC>MOL_PROPERTY
Idih
SciTegic.value.DoubleValue
0.000

@<SCITEGIC>MOL_PROPERTY
Tether
SciTegic.value.DoubleValue
0.000

@<TRIPOS>MOLECULE
guest-s20_confgen4.mol2 : confsearch ligand conformer 123
          17          16           1
SMALL
USER_CHARGES
 
@<TRIPOS>ATOM
       1    C1      19.745617   19.797107   19.376582 C.2        1 MOL1         0.6132
       2    O1      20.781043   20.173672   18.863687 O.co2      1 MOL1        -0.6749
       3    O2      18.980747   19.013549   18.849457 O.co2      1 MOL1        -0.6749
       4    C2      19.384137   20.345546   20.750715 C.3        1 MOL1        -0.1955
       5    H1      18.296813   20.273339   20.873586 H          1 MOL1         0.0733
       6    H2      19.637795   21.411858   20.762862 H          1 MOL1         0.0733
       7    C3      20.108745   19.625336   21.872163 C.2        1 MOL1        -0.1395
       8    H3      21.184509   19.790204   21.897490 H          1 MOL1         0.0816
       9    C4      19.501805   18.839013   22.769955 C.2        1 MOL1        -0.1394
      10    H4      18.423597   18.694144   22.710235 H          1 MOL1         0.0816
      11    C5      20.163706   18.087141   23.912393 C.3        1 MOL1        -0.1826
      12    H5      19.701895   18.398298   24.859187 H          1 MOL1         0.0736
      13    H6      19.938701   17.016700   23.812148 H          1 MOL1         0.0736
      14    C6      21.693923   18.271637   24.014502 C.3        1 MOL1        -0.2882
      15    H7      21.954053   19.326856   24.170215 H          1 MOL1         0.0749
      16    H8      22.095095   17.698335   24.860324 H          1 MOL1         0.0749
      17    H9      22.194683   17.920387   23.102717 H          1 MOL1         0.0749
@<TRIPOS>BOND
    1     1     2    1
    2     1     3    2
    3     1     4    1
    4     4     5    1
    5     4     6    1
    6     4     7    1
    7     7     8    1
    8     7     9    2
    9     9    10    1
   10     9    11    1
   11    11    12    1
   12    11    13    1
   13    11    14    1
   14    14    15    1
   15    14    16    1
   16    14    17    1
@<TRIPOS>SUBSTRUCTURE
       1 MOL1            1 RESIDUE      1      MOL     
@<SCITEGIC>MOL_PROPERTY
VConf Rank
SciTegic.value.IntegerValue
123

@<SCITEGIC>MOL_PROPERTY
Conf_Id
SciTegic.value.IntegerValue
19

@<SCITEGIC>MOL_PROPERTY
Delta U+W
SciTegic.value.DoubleValue
-0.496

@<SCITEGIC>MOL_PROPERTY
U+W
SciTegic.value.DoubleValue
-49.923

@<SCITEGIC>MOL_PROPERTY
Grad RMS
SciTegic.value.DoubleValue
0.000000

@<SCITEGIC>MOL_PROPERTY
U
SciTegic.value.DoubleValue
13.863

@<SCITEGIC>MOL_PROPERTY
W
SciTegic.value.DoubleValue
-63.786

@<SCITEGIC>MOL_PROPERTY
W(PB)
SciTegic.value.DoubleValue
-65.856

@<SCITEGIC>MOL_PROPERTY
W(SA)
SciTegic.value.DoubleValue
2.070

@<SCITEGIC>MOL_PROPERTY
Valence
SciTegic.value.DoubleValue
14.117

@<SCITEGIC>MOL_PROPERTY
Coulomb
SciTegic.value.DoubleValue
-1.228

@<SCITEGIC>MOL_PROPERTY
VdW
SciTegic.value.DoubleValue
0.974

@<SCITEGIC>MOL_PROPERTY
VdW6
SciTegic.value.DoubleValue
-4.885

@<SCITEGIC>MOL_PROPERTY
VdW12
SciTegic.value.DoubleValue
5.859

@<SCITEGIC>MOL_PROPERTY
Bond
SciTegic.value.DoubleValue
0.094

@<SCITEGIC>MOL_PROPERTY
Angle
SciTegic.value.DoubleValue
2.818

@<SCITEGIC>MOL_PROPERTY
Pdih
SciTegic.value.DoubleValue
11.205

@<SCITEGIC>MOL_PROPERTY
Idih
SciTegic.value.DoubleValue
0.000

@<SCITEGIC>MOL_PROPERTY
Tether
SciTegic.value.DoubleValue
0.000

@<TRIPOS>MOLECULE
guest-s20_confgen4.mol2 : confsearch ligand conformer 124
          17          16           1
SMALL
USER_CHARGES
 
@<TRIPOS>ATOM
       1    C1      18.523912   21.492765   21.980144 C.2        1 MOL1         0.6132
       2    O1      17.718503   21.181526   21.125006 O.co2      1 MOL1        -0.6749
       3    O2      18.220655   22.042972   23.020485 O.co2      1 MOL1        -0.6749
       4    C2      19.995314   21.187363   21.732088 C.3        1 MOL1        -0.1955
       5    H1      20.577655   22.054587   22.064182 H          1 MOL1         0.0733
       6    H2      20.148614   21.093029   20.650305 H          1 MOL1         0.0733
       7    C3      20.459829   19.939092   22.457905 C.2        1 MOL1        -0.1395
       8    H3      20.482893   20.014501   23.544642 H          1 MOL1         0.0816
       9    C4      20.816592   18.804534   21.848222 C.2        1 MOL1        -0.1394
      10    H4      20.788409   18.728017   20.761755 H          1 MOL1         0.0816
      11    C5      21.276696   17.559987   22.573992 C.3        1 MOL1        -0.1826
      12    H5      22.198536   17.180824   22.112508 H          1 MOL1         0.0736
      13    H6      21.520142   17.792754   23.619823 H          1 MOL1         0.0736
      14    C6      20.193831   16.464163   22.534429 C.3        1 MOL1        -0.2882
      15    H7      19.958152   16.183613   21.499454 H          1 MOL1         0.0749
      16    H8      20.532705   15.563601   23.062841 H          1 MOL1         0.0749
      17    H9      19.269140   16.812679   23.013141 H          1 MOL1         0.0749
@<TRIPOS>BOND
    1     1     2    1
    2     1     3    2
    3     1     4    1
    4     4     5    1
    5     4     6    1
    6     4     7    1
    7     7     8    1
    8     7     9    2
    9     9    10    1
   10     9    11    1
   11    11    12    1
   12    11    13    1
   13    11    14    1
   14    14    15    1
   15    14    16    1
   16    14    17    1
@<TRIPOS>SUBSTRUCTURE
       1 MOL1            1 RESIDUE      1      MOL     
@<SCITEGIC>MOL_PROPERTY
VConf Rank
SciTegic.value.IntegerValue
124

@<SCITEGIC>MOL_PROPERTY
Conf_Id
SciTegic.value.IntegerValue
7

@<SCITEGIC>MOL_PROPERTY
Delta U+W
SciTegic.value.DoubleValue
-0.041

@<SCITEGIC>MOL_PROPERTY
U+W
SciTegic.value.DoubleValue
-49.468

@<SCITEGIC>MOL_PROPERTY
Grad RMS
SciTegic.value.DoubleValue
0.000000

@<SCITEGIC>MOL_PROPERTY
U
SciTegic.value.DoubleValue
14.121

@<SCITEGIC>MOL_PROPERTY
W
SciTegic.value.DoubleValue
-63.589

@<SCITEGIC>MOL_PROPERTY
W(PB)
SciTegic.value.DoubleValue
-65.660

@<SCITEGIC>MOL_PROPERTY
W(SA)
SciTegic.value.DoubleValue
2.071

@<SCITEGIC>MOL_PROPERTY
Valence
SciTegic.value.DoubleValue
15.230

@<SCITEGIC>MOL_PROPERTY
Coulomb
SciTegic.value.DoubleValue
-1.333

@<SCITEGIC>MOL_PROPERTY
VdW
SciTegic.value.DoubleValue
0.224

@<SCITEGIC>MOL_PROPERTY
VdW6
SciTegic.value.DoubleValue
-4.212

@<SCITEGIC>MOL_PROPERTY
VdW12
SciTegic.value.DoubleValue
4.436

@<SCITEGIC>MOL_PROPERTY
Bond
SciTegic.value.DoubleValue
0.044

@<SCITEGIC>MOL_PROPERTY
Angle
SciTegic.value.DoubleValue
2.230

@<SCITEGIC>MOL_PROPERTY
Pdih
SciTegic.value.DoubleValue
12.956

@<SCITEGIC>MOL_PROPERTY
Idih
SciTegic.value.DoubleValue
0.000

@<SCITEGIC>MOL_PROPERTY
Tether
SciTegic.value.DoubleValue
0.000

@<TRIPOS>MOLECULE
guest-s20_confgen4.mol2 : confsearch ligand conformer 125
          17          16           1
SMALL
USER_CHARGES
 
@<TRIPOS>ATOM
       1    C1      21.091620   16.688493   22.418918 C.2        1 MOL1         0.6132
       2    O1      20.688320   16.230151   21.368078 O.co2      1 MOL1        -0.6749
       3    O2      20.871930   16.180731   23.501043 O.co2      1 MOL1        -0.6749
       4    C2      21.942849   17.953829   22.375178 C.3        1 MOL1        -0.1955
       5    H1      22.513796   17.942880   21.439407 H          1 MOL1         0.0733
       6    H2      22.683354   17.888281   23.180830 H          1 MOL1         0.0733
       7    C3      21.177866   19.264685   22.490646 C.2        1 MOL1        -0.1395
       8    H3      21.804405   20.155125   22.457305 H          1 MOL1         0.0816
       9    C4      19.852223   19.392970   22.621827 C.2        1 MOL1        -0.1394
      10    H4      19.202960   18.518922   22.656911 H          1 MOL1         0.0816
      11    C5      19.139778   20.722521   22.734337 C.3        1 MOL1        -0.1826
      12    H5      18.432307   20.693786   23.574086 H          1 MOL1         0.0736
      13    H6      19.856272   21.526148   22.953364 H          1 MOL1         0.0736
      14    C6      18.381288   21.055851   21.434867 C.3        1 MOL1        -0.2882
      15    H7      17.865185   22.020731   21.522634 H          1 MOL1         0.0749
      16    H8      19.072954   21.115300   20.584186 H          1 MOL1         0.0749
      17    H9      17.630299   20.286668   21.211637 H          1 MOL1         0.0749
@<TRIPOS>BOND
    1     1     2    1
    2     1     3    2
    3     1     4    1
    4     4     5    1
    5     4     6    1
    6     4     7    1
    7     7     8    1
    8     7     9    2
    9     9    10    1
   10     9    11    1
   11    11    12    1
   12    11    13    1
   13    11    14    1
   14    14    15    1
   15    14    16    1
   16    14    17    1
@<TRIPOS>SUBSTRUCTURE
       1 MOL1            1 RESIDUE      1      MOL     
@<SCITEGIC>MOL_PROPERTY
VConf Rank
SciTegic.value.IntegerValue
125

@<SCITEGIC>MOL_PROPERTY
Conf_Id
SciTegic.value.IntegerValue
39

@<SCITEGIC>MOL_PROPERTY
Delta U+W
SciTegic.value.DoubleValue
-0.422

@<SCITEGIC>MOL_PROPERTY
U+W
SciTegic.value.DoubleValue
-49.849

@<SCITEGIC>MOL_PROPERTY
Grad RMS
SciTegic.value.DoubleValue
0.000000

@<SCITEGIC>MOL_PROPERTY
U
SciTegic.value.DoubleValue
14.465

@<SCITEGIC>MOL_PROPERTY
W
SciTegic.value.DoubleValue
-64.314

@<SCITEGIC>MOL_PROPERTY
W(PB)
SciTegic.value.DoubleValue
-66.406

@<SCITEGIC>MOL_PROPERTY
W(SA)
SciTegic.value.DoubleValue
2.093

@<SCITEGIC>MOL_PROPERTY
Valence
SciTegic.value.DoubleValue
14.072

@<SCITEGIC>MOL_PROPERTY
Coulomb
SciTegic.value.DoubleValue
-0.199

@<SCITEGIC>MOL_PROPERTY
VdW
SciTegic.value.DoubleValue
0.592

@<SCITEGIC>MOL_PROPERTY
VdW6
SciTegic.value.DoubleValue
-5.019

@<SCITEGIC>MOL_PROPERTY
VdW12
SciTegic.value.DoubleValue
5.611

@<SCITEGIC>MOL_PROPERTY
Bond
SciTegic.value.DoubleValue
0.085

@<SCITEGIC>MOL_PROPERTY
Angle
SciTegic.value.DoubleValue
2.748

@<SCITEGIC>MOL_PROPERTY
Pdih
SciTegic.value.DoubleValue
11.238

@<SCITEGIC>MOL_PROPERTY
Idih
SciTegic.value.DoubleValue
0.001

@<SCITEGIC>MOL_PROPERTY
Tether
SciTegic.value.DoubleValue
0.000

@<TRIPOS>MOLECULE
guest-s20_confgen4.mol2 : confsearch ligand conformer 126
          17          16           1
SMALL
USER_CHARGES
 
@<TRIPOS>ATOM
       1    C1      23.021193   20.498243   22.298726 C.2        1 MOL1         0.6132
       2    O1      23.897626   19.912695   21.693780 O.co2      1 MOL1        -0.6749
       3    O2      23.175530   20.984296   23.401790 O.co2      1 MOL1        -0.6749
       4    C2      21.657551   20.633829   21.634119 C.3        1 MOL1        -0.1955
       5    H1      21.822468   20.858248   20.573955 H          1 MOL1         0.0733
       6    H2      21.148094   21.501547   22.070190 H          1 MOL1         0.0733
       7    C3      20.814949   19.380603   21.776217 C.2        1 MOL1        -0.1395
       8    H3      21.178926   18.511048   21.229777 H          1 MOL1         0.0816
       9    C4      19.700848   19.303837   22.510460 C.2        1 MOL1        -0.1394
      10    H4      19.339084   20.172907   23.059008 H          1 MOL1         0.0816
      11    C5      18.863994   18.052282   22.654011 C.3        1 MOL1        -0.1826
      12    H5      19.419748   17.175019   22.295166 H          1 MOL1         0.0736
      13    H6      18.643637   17.873393   23.715131 H          1 MOL1         0.0736
      14    C6      17.543654   18.175792   21.868831 C.3        1 MOL1        -0.2882
      15    H7      17.738982   18.329728   20.799367 H          1 MOL1         0.0749
      16    H8      16.940491   17.265015   21.977304 H          1 MOL1         0.0749
      17    H9      16.948937   19.023626   22.233409 H          1 MOL1         0.0749
@<TRIPOS>BOND
    1     1     2    1
    2     1     3    2
    3     1     4    1
    4     4     5    1
    5     4     6    1
    6     4     7    1
    7     7     8    1
    8     7     9    2
    9     9    10    1
   10     9    11    1
   11    11    12    1
   12    11    13    1
   13    11    14    1
   14    14    15    1
   15    14    16    1
   16    14    17    1
@<TRIPOS>SUBSTRUCTURE
       1 MOL1            1 RESIDUE      1      MOL     
@<SCITEGIC>MOL_PROPERTY
VConf Rank
SciTegic.value.IntegerValue
126

@<SCITEGIC>MOL_PROPERTY
Conf_Id
SciTegic.value.IntegerValue
38

@<SCITEGIC>MOL_PROPERTY
Delta U+W
SciTegic.value.DoubleValue
0.000

@<SCITEGIC>MOL_PROPERTY
U+W
SciTegic.value.DoubleValue
-49.427

@<SCITEGIC>MOL_PROPERTY
Grad RMS
SciTegic.value.DoubleValue
0.000000

@<SCITEGIC>MOL_PROPERTY
U
SciTegic.value.DoubleValue
13.666

@<SCITEGIC>MOL_PROPERTY
W
SciTegic.value.DoubleValue
-63.093

@<SCITEGIC>MOL_PROPERTY
W(PB)
SciTegic.value.DoubleValue
-65.225

@<SCITEGIC>MOL_PROPERTY
W(SA)
SciTegic.value.DoubleValue
2.132

@<SCITEGIC>MOL_PROPERTY
Valence
SciTegic.value.DoubleValue
15.226

@<SCITEGIC>MOL_PROPERTY
Coulomb
SciTegic.value.DoubleValue
-1.822

@<SCITEGIC>MOL_PROPERTY
VdW
SciTegic.value.DoubleValue
0.261

@<SCITEGIC>MOL_PROPERTY
VdW6
SciTegic.value.DoubleValue
-4.165

@<SCITEGIC>MOL_PROPERTY
VdW12
SciTegic.value.DoubleValue
4.426

@<SCITEGIC>MOL_PROPERTY
Bond
SciTegic.value.DoubleValue
0.044

@<SCITEGIC>MOL_PROPERTY
Angle
SciTegic.value.DoubleValue
2.229

@<SCITEGIC>MOL_PROPERTY
Pdih
SciTegic.value.DoubleValue
12.953

@<SCITEGIC>MOL_PROPERTY
Idih
SciTegic.value.DoubleValue
0.000

@<SCITEGIC>MOL_PROPERTY
Tether
SciTegic.value.DoubleValue
0.000

@<TRIPOS>MOLECULE
guest-s20_confgen4.mol2 : confsearch ligand conformer 127
          17          16           1
SMALL
USER_CHARGES
 
@<TRIPOS>ATOM
       1    C1      18.047810   21.688310   22.161761 C.2        1 MOL1         0.6132
       2    O1      18.166079   22.331669   21.137594 O.co2      1 MOL1        -0.6749
       3    O2      17.828674   22.187982   23.247702 O.co2      1 MOL1        -0.6749
       4    C2      18.175393   20.172767   22.081410 C.3        1 MOL1        -0.1955
       5    H1      17.944083   19.862903   21.055193 H          1 MOL1         0.0733
       6    H2      17.405825   19.737048   22.729038 H          1 MOL1         0.0733
       7    C3      19.548017   19.682330   22.501073 C.2        1 MOL1        -0.1395
       8    H3      19.785515   19.811863   23.556543 H          1 MOL1         0.0816
       9    C4      20.434426   19.127839   21.668577 C.2        1 MOL1        -0.1394
      10    H4      20.197512   19.001518   20.612653 H          1 MOL1         0.0816
      11    C5      21.804205   18.642994   22.088043 C.3        1 MOL1        -0.1826
      12    H5      22.562528   19.027408   21.392553 H          1 MOL1         0.0736
      13    H6      22.062024   19.032664   23.082480 H          1 MOL1         0.0736
      14    C6      21.863163   17.103195   22.112614 C.3        1 MOL1        -0.2882
      15    H7      21.646655   16.687012   21.119970 H          1 MOL1         0.0749
      16    H8      22.859587   16.757372   22.416972 H          1 MOL1         0.0749
      17    H9      21.130031   16.696230   22.821484 H          1 MOL1         0.0749
@<TRIPOS>BOND
    1     1     2    1
    2     1     3    2
    3     1     4    1
    4     4     5    1
    5     4     6    1
    6     4     7    1
    7     7     8    1
    8     7     9    2
    9     9    10    1
   10     9    11    1
   11    11    12    1
   12    11    13    1
   13    11    14    1
   14    14    15    1
   15    14    16    1
   16    14    17    1
@<TRIPOS>SUBSTRUCTURE
       1 MOL1            1 RESIDUE      1      MOL     
@<SCITEGIC>MOL_PROPERTY
VConf Rank
SciTegic.value.IntegerValue
127

@<SCITEGIC>MOL_PROPERTY
Conf_Id
SciTegic.value.IntegerValue
35

@<SCITEGIC>MOL_PROPERTY
Delta U+W
SciTegic.value.DoubleValue
-0.102

@<SCITEGIC>MOL_PROPERTY
U+W
SciTegic.value.DoubleValue
-49.529

@<SCITEGIC>MOL_PROPERTY
Grad RMS
SciTegic.value.DoubleValue
0.000000

@<SCITEGIC>MOL_PROPERTY
U
SciTegic.value.DoubleValue
13.666

@<SCITEGIC>MOL_PROPERTY
W
SciTegic.value.DoubleValue
-63.195

@<SCITEGIC>MOL_PROPERTY
W(PB)
SciTegic.value.DoubleValue
-65.299

@<SCITEGIC>MOL_PROPERTY
W(SA)
SciTegic.value.DoubleValue
2.103

@<SCITEGIC>MOL_PROPERTY
Valence
SciTegic.value.DoubleValue
15.226

@<SCITEGIC>MOL_PROPERTY
Coulomb
SciTegic.value.DoubleValue
-1.822

@<SCITEGIC>MOL_PROPERTY
VdW
SciTegic.value.DoubleValue
0.261

@<SCITEGIC>MOL_PROPERTY
VdW6
SciTegic.value.DoubleValue
-4.165

@<SCITEGIC>MOL_PROPERTY
VdW12
SciTegic.value.DoubleValue
4.426

@<SCITEGIC>MOL_PROPERTY
Bond
SciTegic.value.DoubleValue
0.044

@<SCITEGIC>MOL_PROPERTY
Angle
SciTegic.value.DoubleValue
2.229

@<SCITEGIC>MOL_PROPERTY
Pdih
SciTegic.value.DoubleValue
12.953

@<SCITEGIC>MOL_PROPERTY
Idih
SciTegic.value.DoubleValue
0.000

@<SCITEGIC>MOL_PROPERTY
Tether
SciTegic.value.DoubleValue
0.000

@<TRIPOS>MOLECULE
guest-s20_confgen4.mol2 : confsearch ligand conformer 128
          17          16           1
SMALL
USER_CHARGES
 
@<TRIPOS>ATOM
       1    C1      20.367566   17.626364   19.650701 C.2        1 MOL1         0.6132
       2    O1      19.392595   16.910808   19.530775 O.co2      1 MOL1        -0.6749
       3    O2      20.799812   18.328361   18.757833 O.co2      1 MOL1        -0.6749
       4    C2      21.091225   17.635150   20.990826 C.3        1 MOL1        -0.1955
       5    H1      22.126886   17.952240   20.819227 H          1 MOL1         0.0733
       6    H2      21.128837   16.602921   21.357701 H          1 MOL1         0.0733
       7    C3      20.410202   18.526167   22.012444 C.2        1 MOL1        -0.1395
       8    H3      19.435220   18.173698   22.344508 H          1 MOL1         0.0816
       9    C4      20.938452   19.663254   22.482226 C.2        1 MOL1        -0.1394
      10    H4      21.914986   19.986506   22.123095 H          1 MOL1         0.0816
      11    C5      20.312434   20.602531   23.499305 C.3        1 MOL1        -0.1826
      12    H5      20.995880   20.711504   24.352261 H          1 MOL1         0.0736
      13    H6      20.231269   21.604412   23.056395 H          1 MOL1         0.0736
      14    C6      18.924048   20.168943   24.019317 C.3        1 MOL1        -0.2882
      15    H7      18.977497   19.192386   24.518198 H          1 MOL1         0.0749
      16    H8      18.540694   20.896948   24.746006 H          1 MOL1         0.0749
      17    H9      18.199262   20.100929   23.197400 H          1 MOL1         0.0749
@<TRIPOS>BOND
    1     1     2    1
    2     1     3    2
    3     1     4    1
    4     4     5    1
    5     4     6    1
    6     4     7    1
    7     7     8    1
    8     7     9    2
    9     9    10    1
   10     9    11    1
   11    11    12    1
   12    11    13    1
   13    11    14    1
   14    14    15    1
   15    14    16    1
   16    14    17    1
@<TRIPOS>SUBSTRUCTURE
       1 MOL1            1 RESIDUE      1      MOL     
@<SCITEGIC>MOL_PROPERTY
VConf Rank
SciTegic.value.IntegerValue
128

@<SCITEGIC>MOL_PROPERTY
Conf_Id
SciTegic.value.IntegerValue
19

@<SCITEGIC>MOL_PROPERTY
Delta U+W
SciTegic.value.DoubleValue
-0.496

@<SCITEGIC>MOL_PROPERTY
U+W
SciTegic.value.DoubleValue
-49.923

@<SCITEGIC>MOL_PROPERTY
Grad RMS
SciTegic.value.DoubleValue
0.000000

@<SCITEGIC>MOL_PROPERTY
U
SciTegic.value.DoubleValue
13.863

@<SCITEGIC>MOL_PROPERTY
W
SciTegic.value.DoubleValue
-63.786

@<SCITEGIC>MOL_PROPERTY
W(PB)
SciTegic.value.DoubleValue
-65.856

@<SCITEGIC>MOL_PROPERTY
W(SA)
SciTegic.value.DoubleValue
2.070

@<SCITEGIC>MOL_PROPERTY
Valence
SciTegic.value.DoubleValue
14.117

@<SCITEGIC>MOL_PROPERTY
Coulomb
SciTegic.value.DoubleValue
-1.228

@<SCITEGIC>MOL_PROPERTY
VdW
SciTegic.value.DoubleValue
0.974

@<SCITEGIC>MOL_PROPERTY
VdW6
SciTegic.value.DoubleValue
-4.885

@<SCITEGIC>MOL_PROPERTY
VdW12
SciTegic.value.DoubleValue
5.859

@<SCITEGIC>MOL_PROPERTY
Bond
SciTegic.value.DoubleValue
0.094

@<SCITEGIC>MOL_PROPERTY
Angle
SciTegic.value.DoubleValue
2.818

@<SCITEGIC>MOL_PROPERTY
Pdih
SciTegic.value.DoubleValue
11.205

@<SCITEGIC>MOL_PROPERTY
Idih
SciTegic.value.DoubleValue
0.000

@<SCITEGIC>MOL_PROPERTY
Tether
SciTegic.value.DoubleValue
0.000

@<TRIPOS>MOLECULE
guest-s20_confgen4.mol2 : confsearch ligand conformer 129
          17          16           1
SMALL
USER_CHARGES
 
@<TRIPOS>ATOM
       1    C1      22.915551   20.009780   22.559024 C.2        1 MOL1         0.6132
       2    O1      22.882638   21.102692   22.028672 O.co2      1 MOL1        -0.6749
       3    O2      23.426578   19.803604   23.642234 O.co2      1 MOL1        -0.6749
       4    C2      22.292572   18.830677   21.823197 C.3        1 MOL1        -0.1955
       5    H1      22.963127   17.971456   21.939723 H          1 MOL1         0.0733
       6    H2      22.261823   19.071060   20.753653 H          1 MOL1         0.0733
       7    C3      20.909786   18.486561   22.343055 C.2        1 MOL1        -0.1395
       8    H3      20.879857   18.088947   23.357069 H          1 MOL1         0.0816
       9    C4      19.782272   18.650866   21.644535 C.2        1 MOL1        -0.1394
      10    H4      19.812323   19.053327   20.632517 H          1 MOL1         0.0816
      11    C5      18.404141   18.309829   22.165866 C.3        1 MOL1        -0.1826
      12    H5      17.859605   17.719517   21.416510 H          1 MOL1         0.0736
      13    H6      18.477675   17.685250   23.066811 H          1 MOL1         0.0736
      14    C6      17.605274   19.586145   22.494229 C.3        1 MOL1        -0.2882
      15    H7      17.482705   20.212228   21.600685 H          1 MOL1         0.0749
      16    H8      16.606347   19.332901   22.872489 H          1 MOL1         0.0749
      17    H9      18.119302   20.181168   23.260652 H          1 MOL1         0.0749
@<TRIPOS>BOND
    1     1     2    1
    2     1     3    2
    3     1     4    1
    4     4     5    1
    5     4     6    1
    6     4     7    1
    7     7     8    1
    8     7     9    2
    9     9    10    1
   10     9    11    1
   11    11    12    1
   12    11    13    1
   13    11    14    1
   14    14    15    1
   15    14    16    1
   16    14    17    1
@<TRIPOS>SUBSTRUCTURE
       1 MOL1            1 RESIDUE      1      MOL     
@<SCITEGIC>MOL_PROPERTY
VConf Rank
SciTegic.value.IntegerValue
129

@<SCITEGIC>MOL_PROPERTY
Conf_Id
SciTegic.value.IntegerValue
7

@<SCITEGIC>MOL_PROPERTY
Delta U+W
SciTegic.value.DoubleValue
-0.041

@<SCITEGIC>MOL_PROPERTY
U+W
SciTegic.value.DoubleValue
-49.468

@<SCITEGIC>MOL_PROPERTY
Grad RMS
SciTegic.value.DoubleValue
0.000000

@<SCITEGIC>MOL_PROPERTY
U
SciTegic.value.DoubleValue
14.121

@<SCITEGIC>MOL_PROPERTY
W
SciTegic.value.DoubleValue
-63.589

@<SCITEGIC>MOL_PROPERTY
W(PB)
SciTegic.value.DoubleValue
-65.660

@<SCITEGIC>MOL_PROPERTY
W(SA)
SciTegic.value.DoubleValue
2.071

@<SCITEGIC>MOL_PROPERTY
Valence
SciTegic.value.DoubleValue
15.230

@<SCITEGIC>MOL_PROPERTY
Coulomb
SciTegic.value.DoubleValue
-1.333

@<SCITEGIC>MOL_PROPERTY
VdW
SciTegic.value.DoubleValue
0.224

@<SCITEGIC>MOL_PROPERTY
VdW6
SciTegic.value.DoubleValue
-4.212

@<SCITEGIC>MOL_PROPERTY
VdW12
SciTegic.value.DoubleValue
4.436

@<SCITEGIC>MOL_PROPERTY
Bond
SciTegic.value.DoubleValue
0.044

@<SCITEGIC>MOL_PROPERTY
Angle
SciTegic.value.DoubleValue
2.230

@<SCITEGIC>MOL_PROPERTY
Pdih
SciTegic.value.DoubleValue
12.956

@<SCITEGIC>MOL_PROPERTY
Idih
SciTegic.value.DoubleValue
0.000

@<SCITEGIC>MOL_PROPERTY
Tether
SciTegic.value.DoubleValue
0.000

@<TRIPOS>MOLECULE
guest-s20_confgen4.mol2 : confsearch ligand conformer 130
          17          16           1
SMALL
USER_CHARGES
 
@<TRIPOS>ATOM
       1    C1      21.435023   21.702492   22.125559 C.2        1 MOL1         0.6132
       2    O1      21.873068   21.663415   20.992607 O.co2      1 MOL1        -0.6749
       3    O2      22.124118   21.910134   23.104903 O.co2      1 MOL1        -0.6749
       4    C2      19.935243   21.508148   22.326730 C.3        1 MOL1        -0.1955
       5    H1      19.422697   21.911295   21.445517 H          1 MOL1         0.0733
       6    H2      19.625333   22.136884   23.169563 H          1 MOL1         0.0733
       7    C3      19.484915   20.074179   22.567175 C.2        1 MOL1        -0.1395
       8    H3      18.411078   19.958014   22.708332 H          1 MOL1         0.0816
       9    C4      20.278535   18.997575   22.612834 C.2        1 MOL1        -0.1394
      10    H4      21.355403   19.085925   22.473967 H          1 MOL1         0.0816
      11    C5      19.779523   17.590703   22.857042 C.3        1 MOL1        -0.1826
      12    H5      20.395726   17.107587   23.627375 H          1 MOL1         0.0736
      13    H6      18.750586   17.608330   23.241923 H          1 MOL1         0.0736
      14    C6      19.825711   16.754558   21.563301 C.3        1 MOL1        -0.2882
      15    H7      19.463918   15.734483   21.746636 H          1 MOL1         0.0749
      16    H8      19.195429   17.205180   20.785304 H          1 MOL1         0.0749
      17    H9      20.851102   16.688169   21.176489 H          1 MOL1         0.0749
@<TRIPOS>BOND
    1     1     2    1
    2     1     3    2
    3     1     4    1
    4     4     5    1
    5     4     6    1
    6     4     7    1
    7     7     8    1
    8     7     9    2
    9     9    10    1
   10     9    11    1
   11    11    12    1
   12    11    13    1
   13    11    14    1
   14    14    15    1
   15    14    16    1
   16    14    17    1
@<TRIPOS>SUBSTRUCTURE
       1 MOL1            1 RESIDUE      1      MOL     
@<SCITEGIC>MOL_PROPERTY
VConf Rank
SciTegic.value.IntegerValue
130

@<SCITEGIC>MOL_PROPERTY
Conf_Id
SciTegic.value.IntegerValue
39

@<SCITEGIC>MOL_PROPERTY
Delta U+W
SciTegic.value.DoubleValue
-0.422

@<SCITEGIC>MOL_PROPERTY
U+W
SciTegic.value.DoubleValue
-49.849

@<SCITEGIC>MOL_PROPERTY
Grad RMS
SciTegic.value.DoubleValue
0.000000

@<SCITEGIC>MOL_PROPERTY
U
SciTegic.value.DoubleValue
14.465

@<SCITEGIC>MOL_PROPERTY
W
SciTegic.value.DoubleValue
-64.314

@<SCITEGIC>MOL_PROPERTY
W(PB)
SciTegic.value.DoubleValue
-66.406

@<SCITEGIC>MOL_PROPERTY
W(SA)
SciTegic.value.DoubleValue
2.093

@<SCITEGIC>MOL_PROPERTY
Valence
SciTegic.value.DoubleValue
14.072

@<SCITEGIC>MOL_PROPERTY
Coulomb
SciTegic.value.DoubleValue
-0.199

@<SCITEGIC>MOL_PROPERTY
VdW
SciTegic.value.DoubleValue
0.592

@<SCITEGIC>MOL_PROPERTY
VdW6
SciTegic.value.DoubleValue
-5.019

@<SCITEGIC>MOL_PROPERTY
VdW12
SciTegic.value.DoubleValue
5.611

@<SCITEGIC>MOL_PROPERTY
Bond
SciTegic.value.DoubleValue
0.085

@<SCITEGIC>MOL_PROPERTY
Angle
SciTegic.value.DoubleValue
2.748

@<SCITEGIC>MOL_PROPERTY
Pdih
SciTegic.value.DoubleValue
11.238

@<SCITEGIC>MOL_PROPERTY
Idih
SciTegic.value.DoubleValue
0.001

@<SCITEGIC>MOL_PROPERTY
Tether
SciTegic.value.DoubleValue
0.000

@<TRIPOS>MOLECULE
guest-s20_confgen4.mol2 : confsearch ligand conformer 131
          17          16           1
SMALL
USER_CHARGES
 
@<TRIPOS>ATOM
       1    C1      21.278840   18.028468   19.441102 C.2        1 MOL1         0.6132
       2    O1      21.669557   16.879447   19.504753 O.co2      1 MOL1        -0.6749
       3    O2      21.849262   18.898355   18.812825 O.co2      1 MOL1        -0.6749
       4    C2      20.001649   18.394734   20.185573 C.3        1 MOL1        -0.1955
       5    H1      19.287314   17.574660   20.048773 H          1 MOL1         0.0733
       6    H2      19.567870   19.281109   19.707226 H          1 MOL1         0.0733
       7    C3      20.240054   18.636565   21.663891 C.2        1 MOL1        -0.1395
       8    H3      20.519758   17.755145   22.240143 H          1 MOL1         0.0816
       9    C4      20.128676   19.828821   22.257480 C.2        1 MOL1        -0.1394
      10    H4      19.851854   20.710333   21.680100 H          1 MOL1         0.0816
      11    C5      20.370466   20.068767   23.731008 C.3        1 MOL1        -0.1826
      12    H5      20.885964   19.209088   24.180935 H          1 MOL1         0.0736
      13    H6      21.031359   20.936328   23.861752 H          1 MOL1         0.0736
      14    C6      19.044641   20.315904   24.476776 C.3        1 MOL1        -0.2882
      15    H7      18.376476   19.449824   24.381580 H          1 MOL1         0.0749
      16    H8      19.226534   20.489991   25.545277 H          1 MOL1         0.0749
      17    H9      18.525440   21.194570   24.072046 H          1 MOL1         0.0749
@<TRIPOS>BOND
    1     1     2    1
    2     1     3    2
    3     1     4    1
    4     4     5    1
    5     4     6    1
    6     4     7    1
    7     7     8    1
    8     7     9    2
    9     9    10    1
   10     9    11    1
   11    11    12    1
   12    11    13    1
   13    11    14    1
   14    14    15    1
   15    14    16    1
   16    14    17    1
@<TRIPOS>SUBSTRUCTURE
       1 MOL1            1 RESIDUE      1      MOL     
@<SCITEGIC>MOL_PROPERTY
VConf Rank
SciTegic.value.IntegerValue
131

@<SCITEGIC>MOL_PROPERTY
Conf_Id
SciTegic.value.IntegerValue
38

@<SCITEGIC>MOL_PROPERTY
Delta U+W
SciTegic.value.DoubleValue
0.000

@<SCITEGIC>MOL_PROPERTY
U+W
SciTegic.value.DoubleValue
-49.427

@<SCITEGIC>MOL_PROPERTY
Grad RMS
SciTegic.value.DoubleValue
0.000000

@<SCITEGIC>MOL_PROPERTY
U
SciTegic.value.DoubleValue
13.666

@<SCITEGIC>MOL_PROPERTY
W
SciTegic.value.DoubleValue
-63.093

@<SCITEGIC>MOL_PROPERTY
W(PB)
SciTegic.value.DoubleValue
-65.225

@<SCITEGIC>MOL_PROPERTY
W(SA)
SciTegic.value.DoubleValue
2.132

@<SCITEGIC>MOL_PROPERTY
Valence
SciTegic.value.DoubleValue
15.226

@<SCITEGIC>MOL_PROPERTY
Coulomb
SciTegic.value.DoubleValue
-1.822

@<SCITEGIC>MOL_PROPERTY
VdW
SciTegic.value.DoubleValue
0.261

@<SCITEGIC>MOL_PROPERTY
VdW6
SciTegic.value.DoubleValue
-4.165

@<SCITEGIC>MOL_PROPERTY
VdW12
SciTegic.value.DoubleValue
4.426

@<SCITEGIC>MOL_PROPERTY
Bond
SciTegic.value.DoubleValue
0.044

@<SCITEGIC>MOL_PROPERTY
Angle
SciTegic.value.DoubleValue
2.229

@<SCITEGIC>MOL_PROPERTY
Pdih
SciTegic.value.DoubleValue
12.953

@<SCITEGIC>MOL_PROPERTY
Idih
SciTegic.value.DoubleValue
0.000

@<SCITEGIC>MOL_PROPERTY
Tether
SciTegic.value.DoubleValue
0.000

@<TRIPOS>MOLECULE
guest-s20_confgen4.mol2 : confsearch ligand conformer 132
          17          16           1
SMALL
USER_CHARGES
 
@<TRIPOS>ATOM
       1    C1      18.766225   16.567227   23.096131 C.2        1 MOL1         0.6132
       2    O1      18.907693   15.717569   22.238875 O.co2      1 MOL1        -0.6749
       3    O2      17.768030   16.670544   23.781617 O.co2      1 MOL1        -0.6749
       4    C2      19.902692   17.553927   23.329517 C.3        1 MOL1        -0.1955
       5    H1      20.833946   17.094251   22.977233 H          1 MOL1         0.0733
       6    H2      20.005091   17.697083   24.411426 H          1 MOL1         0.0733
       7    C3      19.663069   18.887708   22.648082 C.2        1 MOL1        -0.1395
       8    H3      18.844812   19.479005   23.057989 H          1 MOL1         0.0816
       9    C4      20.378315   19.342418   21.614694 C.2        1 MOL1        -0.1394
      10    H4      21.194346   18.749222   21.203267 H          1 MOL1         0.0816
      11    C5      20.135392   20.670901   20.933926 C.3        1 MOL1        -0.1826
      12    H5      20.103704   20.529172   19.845146 H          1 MOL1         0.0736
      13    H6      19.158806   21.080194   21.227148 H          1 MOL1         0.0736
      14    C6      21.240531   21.684965   21.288045 C.3        1 MOL1        -0.2882
      15    H7      22.225392   21.317732   20.970841 H          1 MOL1         0.0749
      16    H8      21.059246   22.646644   20.790656 H          1 MOL1         0.0749
      17    H9      21.274237   21.862540   22.371065 H          1 MOL1         0.0749
@<TRIPOS>BOND
    1     1     2    1
    2     1     3    2
    3     1     4    1
    4     4     5    1
    5     4     6    1
    6     4     7    1
    7     7     8    1
    8     7     9    2
    9     9    10    1
   10     9    11    1
   11    11    12    1
   12    11    13    1
   13    11    14    1
   14    14    15    1
   15    14    16    1
   16    14    17    1
@<TRIPOS>SUBSTRUCTURE
       1 MOL1            1 RESIDUE      1      MOL     
@<SCITEGIC>MOL_PROPERTY
VConf Rank
SciTegic.value.IntegerValue
132

@<SCITEGIC>MOL_PROPERTY
Conf_Id
SciTegic.value.IntegerValue
35

@<SCITEGIC>MOL_PROPERTY
Delta U+W
SciTegic.value.DoubleValue
-0.102

@<SCITEGIC>MOL_PROPERTY
U+W
SciTegic.value.DoubleValue
-49.529

@<SCITEGIC>MOL_PROPERTY
Grad RMS
SciTegic.value.DoubleValue
0.000000

@<SCITEGIC>MOL_PROPERTY
U
SciTegic.value.DoubleValue
13.666

@<SCITEGIC>MOL_PROPERTY
W
SciTegic.value.DoubleValue
-63.195

@<SCITEGIC>MOL_PROPERTY
W(PB)
SciTegic.value.DoubleValue
-65.299

@<SCITEGIC>MOL_PROPERTY
W(SA)
SciTegic.value.DoubleValue
2.103

@<SCITEGIC>MOL_PROPERTY
Valence
SciTegic.value.DoubleValue
15.226

@<SCITEGIC>MOL_PROPERTY
Coulomb
SciTegic.value.DoubleValue
-1.822

@<SCITEGIC>MOL_PROPERTY
VdW
SciTegic.value.DoubleValue
0.261

@<SCITEGIC>MOL_PROPERTY
VdW6
SciTegic.value.DoubleValue
-4.165

@<SCITEGIC>MOL_PROPERTY
VdW12
SciTegic.value.DoubleValue
4.426

@<SCITEGIC>MOL_PROPERTY
Bond
SciTegic.value.DoubleValue
0.044

@<SCITEGIC>MOL_PROPERTY
Angle
SciTegic.value.DoubleValue
2.229

@<SCITEGIC>MOL_PROPERTY
Pdih
SciTegic.value.DoubleValue
12.953

@<SCITEGIC>MOL_PROPERTY
Idih
SciTegic.value.DoubleValue
0.000

@<SCITEGIC>MOL_PROPERTY
Tether
SciTegic.value.DoubleValue
0.000

@<TRIPOS>MOLECULE
guest-s20_confgen4.mol2 : confsearch ligand conformer 133
          17          16           1
SMALL
USER_CHARGES
 
@<TRIPOS>ATOM
       1    C1      21.088715   16.325909   22.719260 C.2        1 MOL1         0.6132
       2    O1      20.370441   15.550548   22.119369 O.co2      1 MOL1        -0.6749
       3    O2      22.300477   16.237272   22.744291 O.co2      1 MOL1        -0.6749
       4    C2      20.431875   17.464426   23.488697 C.3        1 MOL1        -0.1955
       5    H1      21.118331   17.782777   24.282432 H          1 MOL1         0.0733
       6    H2      19.537545   17.064152   23.980087 H          1 MOL1         0.0733
       7    C3      20.056104   18.629607   22.592842 C.2        1 MOL1        -0.1395
       8    H3      19.258635   18.417893   21.882694 H          1 MOL1         0.0816
       9    C4      20.643970   19.831469   22.644337 C.2        1 MOL1        -0.1394
      10    H4      21.441981   20.004901   23.365574 H          1 MOL1         0.0816
      11    C5      20.321490   21.037377   21.778090 C.3        1 MOL1        -0.1826
      12    H5      20.048158   21.880146   22.427347 H          1 MOL1         0.0736
      13    H6      21.233229   21.352998   21.253081 H          1 MOL1         0.0736
      14    C6      19.196980   20.814575   20.742780 C.3        1 MOL1        -0.2882
      15    H7      18.253124   20.549632   21.237091 H          1 MOL1         0.0749
      16    H8      19.025409   21.727857   20.158393 H          1 MOL1         0.0749
      17    H9      19.460400   20.011580   20.041854 H          1 MOL1         0.0749
@<TRIPOS>BOND
    1     1     2    1
    2     1     3    2
    3     1     4    1
    4     4     5    1
    5     4     6    1
    6     4     7    1
    7     7     8    1
    8     7     9    2
    9     9    10    1
   10     9    11    1
   11    11    12    1
   12    11    13    1
   13    11    14    1
   14    14    15    1
   15    14    16    1
   16    14    17    1
@<TRIPOS>SUBSTRUCTURE
       1 MOL1            1 RESIDUE      1      MOL     
@<SCITEGIC>MOL_PROPERTY
VConf Rank
SciTegic.value.IntegerValue
133

@<SCITEGIC>MOL_PROPERTY
Conf_Id
SciTegic.value.IntegerValue
19

@<SCITEGIC>MOL_PROPERTY
Delta U+W
SciTegic.value.DoubleValue
-0.496

@<SCITEGIC>MOL_PROPERTY
U+W
SciTegic.value.DoubleValue
-49.923

@<SCITEGIC>MOL_PROPERTY
Grad RMS
SciTegic.value.DoubleValue
0.000000

@<SCITEGIC>MOL_PROPERTY
U
SciTegic.value.DoubleValue
13.863

@<SCITEGIC>MOL_PROPERTY
W
SciTegic.value.DoubleValue
-63.786

@<SCITEGIC>MOL_PROPERTY
W(PB)
SciTegic.value.DoubleValue
-65.856

@<SCITEGIC>MOL_PROPERTY
W(SA)
SciTegic.value.DoubleValue
2.070

@<SCITEGIC>MOL_PROPERTY
Valence
SciTegic.value.DoubleValue
14.117

@<SCITEGIC>MOL_PROPERTY
Coulomb
SciTegic.value.DoubleValue
-1.228

@<SCITEGIC>MOL_PROPERTY
VdW
SciTegic.value.DoubleValue
0.974

@<SCITEGIC>MOL_PROPERTY
VdW6
SciTegic.value.DoubleValue
-4.885

@<SCITEGIC>MOL_PROPERTY
VdW12
SciTegic.value.DoubleValue
5.859

@<SCITEGIC>MOL_PROPERTY
Bond
SciTegic.value.DoubleValue
0.094

@<SCITEGIC>MOL_PROPERTY
Angle
SciTegic.value.DoubleValue
2.818

@<SCITEGIC>MOL_PROPERTY
Pdih
SciTegic.value.DoubleValue
11.205

@<SCITEGIC>MOL_PROPERTY
Idih
SciTegic.value.DoubleValue
0.000

@<SCITEGIC>MOL_PROPERTY
Tether
SciTegic.value.DoubleValue
0.000

@<TRIPOS>MOLECULE
guest-s20_confgen4.mol2 : confsearch ligand conformer 134
          17          16           1
SMALL
USER_CHARGES
 
@<TRIPOS>ATOM
       1    C1      22.055962   17.184865   23.429815 C.2        1 MOL1         0.6132
       2    O1      21.343740   16.238580   23.702021 O.co2      1 MOL1        -0.6749
       3    O2      23.137048   17.077481   22.885092 O.co2      1 MOL1        -0.6749
       4    C2      21.574439   18.581567   23.800202 C.3        1 MOL1        -0.1955
       5    H1      22.430424   19.134462   24.204035 H          1 MOL1         0.0733
       6    H2      20.841452   18.488222   24.610554 H          1 MOL1         0.0733
       7    C3      20.985043   19.325529   22.617030 C.2        1 MOL1        -0.1395
       8    H3      21.695217   19.592553   21.835003 H          1 MOL1         0.0816
       9    C4      19.692443   19.643681   22.497949 C.2        1 MOL1        -0.1394
      10    H4      18.981856   19.371880   23.277853 H          1 MOL1         0.0816
      11    C5      19.106259   20.382990   21.315940 C.3        1 MOL1        -0.1826
      12    H5      18.471206   21.205931   21.670902 H          1 MOL1         0.0736
      13    H6      19.904169   20.837826   20.712888 H          1 MOL1         0.0736
      14    C6      18.273456   19.436888   20.429191 C.3        1 MOL1        -0.2882
      15    H7      17.443444   18.996913   20.997458 H          1 MOL1         0.0749
      16    H8      17.850872   19.978355   19.572860 H          1 MOL1         0.0749
      17    H9      18.894546   18.618285   20.042129 H          1 MOL1         0.0749
@<TRIPOS>BOND
    1     1     2    1
    2     1     3    2
    3     1     4    1
    4     4     5    1
    5     4     6    1
    6     4     7    1
    7     7     8    1
    8     7     9    2
    9     9    10    1
   10     9    11    1
   11    11    12    1
   12    11    13    1
   13    11    14    1
   14    14    15    1
   15    14    16    1
   16    14    17    1
@<TRIPOS>SUBSTRUCTURE
       1 MOL1            1 RESIDUE      1      MOL     
@<SCITEGIC>MOL_PROPERTY
VConf Rank
SciTegic.value.IntegerValue
134

@<SCITEGIC>MOL_PROPERTY
Conf_Id
SciTegic.value.IntegerValue
7

@<SCITEGIC>MOL_PROPERTY
Delta U+W
SciTegic.value.DoubleValue
-0.041

@<SCITEGIC>MOL_PROPERTY
U+W
SciTegic.value.DoubleValue
-49.468

@<SCITEGIC>MOL_PROPERTY
Grad RMS
SciTegic.value.DoubleValue
0.000000

@<SCITEGIC>MOL_PROPERTY
U
SciTegic.value.DoubleValue
14.121

@<SCITEGIC>MOL_PROPERTY
W
SciTegic.value.DoubleValue
-63.589

@<SCITEGIC>MOL_PROPERTY
W(PB)
SciTegic.value.DoubleValue
-65.660

@<SCITEGIC>MOL_PROPERTY
W(SA)
SciTegic.value.DoubleValue
2.071

@<SCITEGIC>MOL_PROPERTY
Valence
SciTegic.value.DoubleValue
15.230

@<SCITEGIC>MOL_PROPERTY
Coulomb
SciTegic.value.DoubleValue
-1.333

@<SCITEGIC>MOL_PROPERTY
VdW
SciTegic.value.DoubleValue
0.224

@<SCITEGIC>MOL_PROPERTY
VdW6
SciTegic.value.DoubleValue
-4.212

@<SCITEGIC>MOL_PROPERTY
VdW12
SciTegic.value.DoubleValue
4.436

@<SCITEGIC>MOL_PROPERTY
Bond
SciTegic.value.DoubleValue
0.044

@<SCITEGIC>MOL_PROPERTY
Angle
SciTegic.value.DoubleValue
2.230

@<SCITEGIC>MOL_PROPERTY
Pdih
SciTegic.value.DoubleValue
12.956

@<SCITEGIC>MOL_PROPERTY
Idih
SciTegic.value.DoubleValue
0.000

@<SCITEGIC>MOL_PROPERTY
Tether
SciTegic.value.DoubleValue
0.000

@<TRIPOS>MOLECULE
guest-s20_confgen4.mol2 : confsearch ligand conformer 135
          17          16           1
SMALL
USER_CHARGES
 
@<TRIPOS>ATOM
       1    C1      19.271660   21.683994   23.303652 C.2        1 MOL1         0.6132
       2    O1      19.685816   21.604786   24.443474 O.co2      1 MOL1        -0.6749
       3    O2      18.111484   21.915832   23.025580 O.co2      1 MOL1        -0.6749
       4    C2      20.266841   21.510733   22.160335 C.3        1 MOL1        -0.1955
       5    H1      21.237728   21.890737   22.499073 H          1 MOL1         0.0733
       6    H2      19.954802   22.168838   21.341036 H          1 MOL1         0.0733
       7    C3      20.428749   20.089553   21.639846 C.2        1 MOL1        -0.1395
       8    H3      21.143499   19.988380   20.824099 H          1 MOL1         0.0816
       9    C4      19.786240   19.007258   22.094615 C.2        1 MOL1        -0.1394
      10    H4      19.067326   19.080675   22.909788 H          1 MOL1         0.0816
      11    C5      19.982722   17.613753   21.540107 C.3        1 MOL1        -0.1826
      12    H5      19.005540   17.149303   21.350577 H          1 MOL1         0.0736
      13    H6      20.505235   17.653582   20.574422 H          1 MOL1         0.0736
      14    C6      20.787070   16.736639   22.519254 C.3        1 MOL1        -0.2882
      15    H7      20.925394   15.726454   22.112496 H          1 MOL1         0.0749
      16    H8      21.779459   17.168507   22.704315 H          1 MOL1         0.0749
      17    H9      20.267840   16.648048   23.482587 H          1 MOL1         0.0749
@<TRIPOS>BOND
    1     1     2    1
    2     1     3    2
    3     1     4    1
    4     4     5    1
    5     4     6    1
    6     4     7    1
    7     7     8    1
    8     7     9    2
    9     9    10    1
   10     9    11    1
   11    11    12    1
   12    11    13    1
   13    11    14    1
   14    14    15    1
   15    14    16    1
   16    14    17    1
@<TRIPOS>SUBSTRUCTURE
       1 MOL1            1 RESIDUE      1      MOL     
@<SCITEGIC>MOL_PROPERTY
VConf Rank
SciTegic.value.IntegerValue
135

@<SCITEGIC>MOL_PROPERTY
Conf_Id
SciTegic.value.IntegerValue
39

@<SCITEGIC>MOL_PROPERTY
Delta U+W
SciTegic.value.DoubleValue
-0.422

@<SCITEGIC>MOL_PROPERTY
U+W
SciTegic.value.DoubleValue
-49.849

@<SCITEGIC>MOL_PROPERTY
Grad RMS
SciTegic.value.DoubleValue
0.000000

@<SCITEGIC>MOL_PROPERTY
U
SciTegic.value.DoubleValue
14.465

@<SCITEGIC>MOL_PROPERTY
W
SciTegic.value.DoubleValue
-64.314

@<SCITEGIC>MOL_PROPERTY
W(PB)
SciTegic.value.DoubleValue
-66.406

@<SCITEGIC>MOL_PROPERTY
W(SA)
SciTegic.value.DoubleValue
2.093

@<SCITEGIC>MOL_PROPERTY
Valence
SciTegic.value.DoubleValue
14.072

@<SCITEGIC>MOL_PROPERTY
Coulomb
SciTegic.value.DoubleValue
-0.199

@<SCITEGIC>MOL_PROPERTY
VdW
SciTegic.value.DoubleValue
0.592

@<SCITEGIC>MOL_PROPERTY
VdW6
SciTegic.value.DoubleValue
-5.019

@<SCITEGIC>MOL_PROPERTY
VdW12
SciTegic.value.DoubleValue
5.611

@<SCITEGIC>MOL_PROPERTY
Bond
SciTegic.value.DoubleValue
0.085

@<SCITEGIC>MOL_PROPERTY
Angle
SciTegic.value.DoubleValue
2.748

@<SCITEGIC>MOL_PROPERTY
Pdih
SciTegic.value.DoubleValue
11.238

@<SCITEGIC>MOL_PROPERTY
Idih
SciTegic.value.DoubleValue
0.001

@<SCITEGIC>MOL_PROPERTY
Tether
SciTegic.value.DoubleValue
0.000

@<TRIPOS>MOLECULE
guest-s20_confgen4.mol2 : confsearch ligand conformer 136
          17          16           1
SMALL
USER_CHARGES
 
@<TRIPOS>ATOM
       1    C1      17.236781   18.125681   21.435629 C.2        1 MOL1         0.6132
       2    O1      16.842457   18.280202   20.296509 O.co2      1 MOL1        -0.6749
       3    O2      16.525271   18.239254   22.414236 O.co2      1 MOL1        -0.6749
       4    C2      18.701461   17.764797   21.645580 C.3        1 MOL1        -0.1955
       5    H1      18.980634   17.036324   20.875581 H          1 MOL1         0.0733
       6    H2      18.794822   17.259292   22.614285 H          1 MOL1         0.0733
       7    C3      19.613832   18.974388   21.573383 C.2        1 MOL1        -0.1395
       8    H3      19.697132   19.436040   20.589950 H          1 MOL1         0.0816
       9    C4      20.284106   19.472958   22.616642 C.2        1 MOL1        -0.1394
      10    H4      20.198024   19.012630   23.600384 H          1 MOL1         0.0816
      11    C5      21.190474   20.681461   22.543581 C.3        1 MOL1        -0.1826
      12    H5      21.024282   21.230497   21.606479 H          1 MOL1         0.0736
      13    H6      20.951057   21.374370   23.361561 H          1 MOL1         0.0736
      14    C6      22.672383   20.268808   22.636990 C.3        1 MOL1        -0.2882
      15    H7      22.942127   19.594980   21.813100 H          1 MOL1         0.0749
      16    H8      23.325079   21.149872   22.584070 H          1 MOL1         0.0749
      17    H9      22.875792   19.750553   23.583280 H          1 MOL1         0.0749
@<TRIPOS>BOND
    1     1     2    1
    2     1     3    2
    3     1     4    1
    4     4     5    1
    5     4     6    1
    6     4     7    1
    7     7     8    1
    8     7     9    2
    9     9    10    1
   10     9    11    1
   11    11    12    1
   12    11    13    1
   13    11    14    1
   14    14    15    1
   15    14    16    1
   16    14    17    1
@<TRIPOS>SUBSTRUCTURE
       1 MOL1            1 RESIDUE      1      MOL     
@<SCITEGIC>MOL_PROPERTY
VConf Rank
SciTegic.value.IntegerValue
136

@<SCITEGIC>MOL_PROPERTY
Conf_Id
SciTegic.value.IntegerValue
38

@<SCITEGIC>MOL_PROPERTY
Delta U+W
SciTegic.value.DoubleValue
0.000

@<SCITEGIC>MOL_PROPERTY
U+W
SciTegic.value.DoubleValue
-49.427

@<SCITEGIC>MOL_PROPERTY
Grad RMS
SciTegic.value.DoubleValue
0.000000

@<SCITEGIC>MOL_PROPERTY
U
SciTegic.value.DoubleValue
13.666

@<SCITEGIC>MOL_PROPERTY
W
SciTegic.value.DoubleValue
-63.093

@<SCITEGIC>MOL_PROPERTY
W(PB)
SciTegic.value.DoubleValue
-65.225

@<SCITEGIC>MOL_PROPERTY
W(SA)
SciTegic.value.DoubleValue
2.132

@<SCITEGIC>MOL_PROPERTY
Valence
SciTegic.value.DoubleValue
15.226

@<SCITEGIC>MOL_PROPERTY
Coulomb
SciTegic.value.DoubleValue
-1.822

@<SCITEGIC>MOL_PROPERTY
VdW
SciTegic.value.DoubleValue
0.261

@<SCITEGIC>MOL_PROPERTY
VdW6
SciTegic.value.DoubleValue
-4.165

@<SCITEGIC>MOL_PROPERTY
VdW12
SciTegic.value.DoubleValue
4.426

@<SCITEGIC>MOL_PROPERTY
Bond
SciTegic.value.DoubleValue
0.044

@<SCITEGIC>MOL_PROPERTY
Angle
SciTegic.value.DoubleValue
2.229

@<SCITEGIC>MOL_PROPERTY
Pdih
SciTegic.value.DoubleValue
12.953

@<SCITEGIC>MOL_PROPERTY
Idih
SciTegic.value.DoubleValue
0.000

@<SCITEGIC>MOL_PROPERTY
Tether
SciTegic.value.DoubleValue
0.000

@<TRIPOS>MOLECULE
guest-s20_confgen4.mol2 : confsearch ligand conformer 137
          17          16           1
SMALL
USER_CHARGES
 
@<TRIPOS>ATOM
       1    C1      23.002058   20.275593   22.810188 C.2        1 MOL1         0.6132
       2    O1      23.405255   20.986557   21.910866 O.co2      1 MOL1        -0.6749
       3    O2      23.710168   19.501735   23.423935 O.co2      1 MOL1        -0.6749
       4    C2      21.530762   20.361383   23.194287 C.3        1 MOL1        -0.1955
       5    H1      21.151531   21.342176   22.883049 H          1 MOL1         0.0733
       6    H2      21.467477   20.325515   24.288003 H          1 MOL1         0.0733
       7    C3      20.705907   19.242153   22.587919 C.2        1 MOL1        -0.1395
       8    H3      20.919033   18.245738   22.973841 H          1 MOL1         0.0816
       9    C4      19.776451   19.420493   21.644237 C.2        1 MOL1        -0.1394
      10    H4      19.566077   20.416721   21.256508 H          1 MOL1         0.0816
      11    C5      18.957695   18.302750   21.037929 C.3        1 MOL1        -0.1826
      12    H5      18.968944   18.386988   19.942798 H          1 MOL1         0.0736
      13    H6      19.398257   17.326652   21.283605 H          1 MOL1         0.0736
      14    C6      17.501867   18.346538   21.541623 C.3        1 MOL1        -0.2882
      15    H7      17.023769   19.298404   21.275537 H          1 MOL1         0.0749
      16    H8      16.912583   17.533639   21.097748 H          1 MOL1         0.0749
      17    H9      17.463693   18.238068   22.633583 H          1 MOL1         0.0749
@<TRIPOS>BOND
    1     1     2    1
    2     1     3    2
    3     1     4    1
    4     4     5    1
    5     4     6    1
    6     4     7    1
    7     7     8    1
    8     7     9    2
    9     9    10    1
   10     9    11    1
   11    11    12    1
   12    11    13    1
   13    11    14    1
   14    14    15    1
   15    14    16    1
   16    14    17    1
@<TRIPOS>SUBSTRUCTURE
       1 MOL1            1 RESIDUE      1      MOL     
@<SCITEGIC>MOL_PROPERTY
VConf Rank
SciTegic.value.IntegerValue
137

@<SCITEGIC>MOL_PROPERTY
Conf_Id
SciTegic.value.IntegerValue
35

@<SCITEGIC>MOL_PROPERTY
Delta U+W
SciTegic.value.DoubleValue
-0.102

@<SCITEGIC>MOL_PROPERTY
U+W
SciTegic.value.DoubleValue
-49.529

@<SCITEGIC>MOL_PROPERTY
Grad RMS
SciTegic.value.DoubleValue
0.000000

@<SCITEGIC>MOL_PROPERTY
U
SciTegic.value.DoubleValue
13.666

@<SCITEGIC>MOL_PROPERTY
W
SciTegic.value.DoubleValue
-63.195

@<SCITEGIC>MOL_PROPERTY
W(PB)
SciTegic.value.DoubleValue
-65.299

@<SCITEGIC>MOL_PROPERTY
W(SA)
SciTegic.value.DoubleValue
2.103

@<SCITEGIC>MOL_PROPERTY
Valence
SciTegic.value.DoubleValue
15.226

@<SCITEGIC>MOL_PROPERTY
Coulomb
SciTegic.value.DoubleValue
-1.822

@<SCITEGIC>MOL_PROPERTY
VdW
SciTegic.value.DoubleValue
0.261

@<SCITEGIC>MOL_PROPERTY
VdW6
SciTegic.value.DoubleValue
-4.165

@<SCITEGIC>MOL_PROPERTY
VdW12
SciTegic.value.DoubleValue
4.426

@<SCITEGIC>MOL_PROPERTY
Bond
SciTegic.value.DoubleValue
0.044

@<SCITEGIC>MOL_PROPERTY
Angle
SciTegic.value.DoubleValue
2.229

@<SCITEGIC>MOL_PROPERTY
Pdih
SciTegic.value.DoubleValue
12.953

@<SCITEGIC>MOL_PROPERTY
Idih
SciTegic.value.DoubleValue
0.000

@<SCITEGIC>MOL_PROPERTY
Tether
SciTegic.value.DoubleValue
0.000

@<TRIPOS>MOLECULE
guest-s20_confgen4.mol2 : confsearch ligand conformer 138
          17          16           1
SMALL
USER_CHARGES
 
@<TRIPOS>ATOM
       1    C1      20.728420   21.871792   21.330491 C.2        1 MOL1         0.6132
       2    O1      21.925227   22.070412   21.258551 O.co2      1 MOL1        -0.6749
       3    O2      19.937090   22.218825   20.475965 O.co2      1 MOL1        -0.6749
       4    C2      20.192078   21.157297   22.563993 C.3        1 MOL1        -0.1955
       5    H1      19.137818   21.432365   22.688335 H          1 MOL1         0.0733
       6    H2      20.729708   21.546337   23.436410 H          1 MOL1         0.0733
       7    C3      20.356618   19.651545   22.480081 C.2        1 MOL1        -0.1395
       8    H3      21.387941   19.304668   22.513852 H          1 MOL1         0.0816
       9    C4      19.334973   18.793512   22.367247 C.2        1 MOL1        -0.1394
      10    H4      18.316213   19.178192   22.332130 H          1 MOL1         0.0816
      11    C5      19.427131   17.279720   22.274887 C.3        1 MOL1        -0.1826
      12    H5      18.842476   16.836201   23.092184 H          1 MOL1         0.0736
      13    H6      18.937873   16.948805   21.348797 H          1 MOL1         0.0736
      14    C6      20.862331   16.710059   22.316308 C.3        1 MOL1        -0.2882
      15    H7      21.364949   16.976212   23.255424 H          1 MOL1         0.0749
      16    H8      20.843936   15.614877   22.243723 H          1 MOL1         0.0749
      17    H9      21.462082   17.092302   21.479841 H          1 MOL1         0.0749
@<TRIPOS>BOND
    1     1     2    1
    2     1     3    2
    3     1     4    1
    4     4     5    1
    5     4     6    1
    6     4     7    1
    7     7     8    1
    8     7     9    2
    9     9    10    1
   10     9    11    1
   11    11    12    1
   12    11    13    1
   13    11    14    1
   14    14    15    1
   15    14    16    1
   16    14    17    1
@<TRIPOS>SUBSTRUCTURE
       1 MOL1            1 RESIDUE      1      MOL     
@<SCITEGIC>MOL_PROPERTY
VConf Rank
SciTegic.value.IntegerValue
138

@<SCITEGIC>MOL_PROPERTY
Conf_Id
SciTegic.value.IntegerValue
19

@<SCITEGIC>MOL_PROPERTY
Delta U+W
SciTegic.value.DoubleValue
-0.496

@<SCITEGIC>MOL_PROPERTY
U+W
SciTegic.value.DoubleValue
-49.923

@<SCITEGIC>MOL_PROPERTY
Grad RMS
SciTegic.value.DoubleValue
0.000000

@<SCITEGIC>MOL_PROPERTY
U
SciTegic.value.DoubleValue
13.863

@<SCITEGIC>MOL_PROPERTY
W
SciTegic.value.DoubleValue
-63.786

@<SCITEGIC>MOL_PROPERTY
W(PB)
SciTegic.value.DoubleValue
-65.856

@<SCITEGIC>MOL_PROPERTY
W(SA)
SciTegic.value.DoubleValue
2.070

@<SCITEGIC>MOL_PROPERTY
Valence
SciTegic.value.DoubleValue
14.117

@<SCITEGIC>MOL_PROPERTY
Coulomb
SciTegic.value.DoubleValue
-1.228

@<SCITEGIC>MOL_PROPERTY
VdW
SciTegic.value.DoubleValue
0.974

@<SCITEGIC>MOL_PROPERTY
VdW6
SciTegic.value.DoubleValue
-4.885

@<SCITEGIC>MOL_PROPERTY
VdW12
SciTegic.value.DoubleValue
5.859

@<SCITEGIC>MOL_PROPERTY
Bond
SciTegic.value.DoubleValue
0.094

@<SCITEGIC>MOL_PROPERTY
Angle
SciTegic.value.DoubleValue
2.818

@<SCITEGIC>MOL_PROPERTY
Pdih
SciTegic.value.DoubleValue
11.205

@<SCITEGIC>MOL_PROPERTY
Idih
SciTegic.value.DoubleValue
0.000

@<SCITEGIC>MOL_PROPERTY
Tether
SciTegic.value.DoubleValue
0.000

@<TRIPOS>MOLECULE
guest-s20_confgen4.mol2 : confsearch ligand conformer 139
          17          16           1
SMALL
USER_CHARGES
 
@<TRIPOS>ATOM
       1    C1      22.282280   17.754728   20.665667 C.2        1 MOL1         0.6132
       2    O1      22.397453   16.688307   21.236889 O.co2      1 MOL1        -0.6749
       3    O2      22.220222   17.866427   19.457084 O.co2      1 MOL1        -0.6749
       4    C2      22.223067   19.022559   21.507645 C.3        1 MOL1        -0.1955
       5    H1      22.837880   19.782556   21.011768 H          1 MOL1         0.0733
       6    H2      22.691517   18.813083   22.476834 H          1 MOL1         0.0733
       7    C3      20.806678   19.534583   21.687746 C.2        1 MOL1        -0.1395
       8    H3      20.329041   19.909175   20.782893 H          1 MOL1         0.0816
       9    C4      20.151221   19.537099   22.852472 C.2        1 MOL1        -0.1394
      10    H4      20.627486   19.157642   23.755933 H          1 MOL1         0.0816
      11    C5      18.737831   20.045421   23.029315 C.3        1 MOL1        -0.1826
      12    H5      18.691692   20.719729   23.895168 H          1 MOL1         0.0736
      13    H6      18.428669   20.633835   22.154445 H          1 MOL1         0.0736
      14    C6      17.751707   18.878836   23.233350 C.3        1 MOL1        -0.2882
      15    H7      18.014576   18.295251   24.125400 H          1 MOL1         0.0749
      16    H8      16.727671   19.253272   23.360693 H          1 MOL1         0.0749
      17    H9      17.762587   18.203504   22.367619 H          1 MOL1         0.0749
@<TRIPOS>BOND
    1     1     2    1
    2     1     3    2
    3     1     4    1
    4     4     5    1
    5     4     6    1
    6     4     7    1
    7     7     8    1
    8     7     9    2
    9     9    10    1
   10     9    11    1
   11    11    12    1
   12    11    13    1
   13    11    14    1
   14    14    15    1
   15    14    16    1
   16    14    17    1
@<TRIPOS>SUBSTRUCTURE
       1 MOL1            1 RESIDUE      1      MOL     
@<SCITEGIC>MOL_PROPERTY
VConf Rank
SciTegic.value.IntegerValue
139

@<SCITEGIC>MOL_PROPERTY
Conf_Id
SciTegic.value.IntegerValue
7

@<SCITEGIC>MOL_PROPERTY
Delta U+W
SciTegic.value.DoubleValue
-0.041

@<SCITEGIC>MOL_PROPERTY
U+W
SciTegic.value.DoubleValue
-49.468

@<SCITEGIC>MOL_PROPERTY
Grad RMS
SciTegic.value.DoubleValue
0.000000

@<SCITEGIC>MOL_PROPERTY
U
SciTegic.value.DoubleValue
14.121

@<SCITEGIC>MOL_PROPERTY
W
SciTegic.value.DoubleValue
-63.589

@<SCITEGIC>MOL_PROPERTY
W(PB)
SciTegic.value.DoubleValue
-65.660

@<SCITEGIC>MOL_PROPERTY
W(SA)
SciTegic.value.DoubleValue
2.071

@<SCITEGIC>MOL_PROPERTY
Valence
SciTegic.value.DoubleValue
15.230

@<SCITEGIC>MOL_PROPERTY
Coulomb
SciTegic.value.DoubleValue
-1.333

@<SCITEGIC>MOL_PROPERTY
VdW
SciTegic.value.DoubleValue
0.224

@<SCITEGIC>MOL_PROPERTY
VdW6
SciTegic.value.DoubleValue
-4.212

@<SCITEGIC>MOL_PROPERTY
VdW12
SciTegic.value.DoubleValue
4.436

@<SCITEGIC>MOL_PROPERTY
Bond
SciTegic.value.DoubleValue
0.044

@<SCITEGIC>MOL_PROPERTY
Angle
SciTegic.value.DoubleValue
2.230

@<SCITEGIC>MOL_PROPERTY
Pdih
SciTegic.value.DoubleValue
12.956

@<SCITEGIC>MOL_PROPERTY
Idih
SciTegic.value.DoubleValue
0.000

@<SCITEGIC>MOL_PROPERTY
Tether
SciTegic.value.DoubleValue
0.000

@<TRIPOS>MOLECULE
guest-s20_confgen4.mol2 : confsearch ligand conformer 140
          17          16           1
SMALL
USER_CHARGES
 
@<TRIPOS>ATOM
       1    C1      20.149527   16.743630   21.157190 C.2        1 MOL1         0.6132
       2    O1      21.311807   16.428983   21.321798 O.co2      1 MOL1        -0.6749
       3    O2      19.591927   16.711974   20.077763 O.co2      1 MOL1        -0.6749
       4    C2      19.338926   17.174929   22.375584 C.3        1 MOL1        -0.1955
       5    H1      19.719297   16.625132   23.244383 H          1 MOL1         0.0733
       6    H2      18.307443   16.833230   22.230650 H          1 MOL1         0.0733
       7    C3      19.344854   18.667522   22.673927 C.2        1 MOL1        -0.1395
       8    H3      18.760193   18.953588   23.547359 H          1 MOL1         0.0816
       9    C4      19.989441   19.607412   21.972422 C.2        1 MOL1        -0.1394
      10    H4      20.581683   19.348165   21.095624 H          1 MOL1         0.0816
      11    C5      19.961659   21.081323   22.311177 C.3        1 MOL1        -0.1826
      12    H5      19.745496   21.665359   21.406359 H          1 MOL1         0.0736
      13    H6      19.155371   21.297225   23.025627 H          1 MOL1         0.0736
      14    C6      21.307321   21.537680   22.907809 C.3        1 MOL1        -0.2882
      15    H7      21.281951   22.607996   23.150379 H          1 MOL1         0.0749
      16    H8      21.532769   20.984542   23.829115 H          1 MOL1         0.0749
      17    H9      22.127742   21.368382   22.198087 H          1 MOL1         0.0749
@<TRIPOS>BOND
    1     1     2    1
    2     1     3    2
    3     1     4    1
    4     4     5    1
    5     4     6    1
    6     4     7    1
    7     7     8    1
    8     7     9    2
    9     9    10    1
   10     9    11    1
   11    11    12    1
   12    11    13    1
   13    11    14    1
   14    14    15    1
   15    14    16    1
   16    14    17    1
@<TRIPOS>SUBSTRUCTURE
       1 MOL1            1 RESIDUE      1      MOL     
@<SCITEGIC>MOL_PROPERTY
VConf Rank
SciTegic.value.IntegerValue
140

@<SCITEGIC>MOL_PROPERTY
Conf_Id
SciTegic.value.IntegerValue
39

@<SCITEGIC>MOL_PROPERTY
Delta U+W
SciTegic.value.DoubleValue
-0.422

@<SCITEGIC>MOL_PROPERTY
U+W
SciTegic.value.DoubleValue
-49.849

@<SCITEGIC>MOL_PROPERTY
Grad RMS
SciTegic.value.DoubleValue
0.000000

@<SCITEGIC>MOL_PROPERTY
U
SciTegic.value.DoubleValue
14.465

@<SCITEGIC>MOL_PROPERTY
W
SciTegic.value.DoubleValue
-64.314

@<SCITEGIC>MOL_PROPERTY
W(PB)
SciTegic.value.DoubleValue
-66.406

@<SCITEGIC>MOL_PROPERTY
W(SA)
SciTegic.value.DoubleValue
2.093

@<SCITEGIC>MOL_PROPERTY
Valence
SciTegic.value.DoubleValue
14.072

@<SCITEGIC>MOL_PROPERTY
Coulomb
SciTegic.value.DoubleValue
-0.199

@<SCITEGIC>MOL_PROPERTY
VdW
SciTegic.value.DoubleValue
0.592

@<SCITEGIC>MOL_PROPERTY
VdW6
SciTegic.value.DoubleValue
-5.019

@<SCITEGIC>MOL_PROPERTY
VdW12
SciTegic.value.DoubleValue
5.611

@<SCITEGIC>MOL_PROPERTY
Bond
SciTegic.value.DoubleValue
0.085

@<SCITEGIC>MOL_PROPERTY
Angle
SciTegic.value.DoubleValue
2.748

@<SCITEGIC>MOL_PROPERTY
Pdih
SciTegic.value.DoubleValue
11.238

@<SCITEGIC>MOL_PROPERTY
Idih
SciTegic.value.DoubleValue
0.001

@<SCITEGIC>MOL_PROPERTY
Tether
SciTegic.value.DoubleValue
0.000

@<TRIPOS>MOLECULE
guest-s20_confgen4.mol2 : confsearch ligand conformer 141
          17          16           1
SMALL
USER_CHARGES
 
@<TRIPOS>ATOM
       1    C1      21.953036   19.313701   19.533313 C.2        1 MOL1         0.6132
       2    O1      22.642352   20.301978   19.374847 O.co2      1 MOL1        -0.6749
       3    O2      21.382870   18.739669   18.626551 O.co2      1 MOL1        -0.6749
       4    C2      21.801225   18.763148   20.945209 C.3        1 MOL1        -0.1955
       5    H1      22.780511   18.820759   21.434279 H          1 MOL1         0.0733
       6    H2      21.540845   17.700317   20.872881 H          1 MOL1         0.0733
       7    C3      20.768435   19.521918   21.756603 C.2        1 MOL1        -0.1395
       8    H3      21.036316   20.547800   22.007614 H          1 MOL1         0.0816
       9    C4      19.600172   19.008483   22.153810 C.2        1 MOL1        -0.1394
      10    H4      19.331652   17.983545   21.899921 H          1 MOL1         0.0816
      11    C5      18.569918   19.767808   22.959616 C.3        1 MOL1        -0.1826
      12    H5      18.791959   20.843840   22.950987 H          1 MOL1         0.0736
      13    H6      17.578701   19.646839   22.502025 H          1 MOL1         0.0736
      14    C6      18.527678   19.267427   24.416632 C.3        1 MOL1        -0.2882
      15    H7      19.502533   19.402207   24.903555 H          1 MOL1         0.0749
      16    H8      17.777930   19.821621   24.996144 H          1 MOL1         0.0749
      17    H9      18.269578   18.201049   24.457255 H          1 MOL1         0.0749
@<TRIPOS>BOND
    1     1     2    1
    2     1     3    2
    3     1     4    1
    4     4     5    1
    5     4     6    1
    6     4     7    1
    7     7     8    1
    8     7     9    2
    9     9    10    1
   10     9    11    1
   11    11    12    1
   12    11    13    1
   13    11    14    1
   14    14    15    1
   15    14    16    1
   16    14    17    1
@<TRIPOS>SUBSTRUCTURE
       1 MOL1            1 RESIDUE      1      MOL     
@<SCITEGIC>MOL_PROPERTY
VConf Rank
SciTegic.value.IntegerValue
141

@<SCITEGIC>MOL_PROPERTY
Conf_Id
SciTegic.value.IntegerValue
38

@<SCITEGIC>MOL_PROPERTY
Delta U+W
SciTegic.value.DoubleValue
0.000

@<SCITEGIC>MOL_PROPERTY
U+W
SciTegic.value.DoubleValue
-49.427

@<SCITEGIC>MOL_PROPERTY
Grad RMS
SciTegic.value.DoubleValue
0.000000

@<SCITEGIC>MOL_PROPERTY
U
SciTegic.value.DoubleValue
13.666

@<SCITEGIC>MOL_PROPERTY
W
SciTegic.value.DoubleValue
-63.093

@<SCITEGIC>MOL_PROPERTY
W(PB)
SciTegic.value.DoubleValue
-65.225

@<SCITEGIC>MOL_PROPERTY
W(SA)
SciTegic.value.DoubleValue
2.132

@<SCITEGIC>MOL_PROPERTY
Valence
SciTegic.value.DoubleValue
15.226

@<SCITEGIC>MOL_PROPERTY
Coulomb
SciTegic.value.DoubleValue
-1.822

@<SCITEGIC>MOL_PROPERTY
VdW
SciTegic.value.DoubleValue
0.261

@<SCITEGIC>MOL_PROPERTY
VdW6
SciTegic.value.DoubleValue
-4.165

@<SCITEGIC>MOL_PROPERTY
VdW12
SciTegic.value.DoubleValue
4.426

@<SCITEGIC>MOL_PROPERTY
Bond
SciTegic.value.DoubleValue
0.044

@<SCITEGIC>MOL_PROPERTY
Angle
SciTegic.value.DoubleValue
2.229

@<SCITEGIC>MOL_PROPERTY
Pdih
SciTegic.value.DoubleValue
12.953

@<SCITEGIC>MOL_PROPERTY
Idih
SciTegic.value.DoubleValue
0.000

@<SCITEGIC>MOL_PROPERTY
Tether
SciTegic.value.DoubleValue
0.000

@<TRIPOS>MOLECULE
guest-s20_confgen4.mol2 : confsearch ligand conformer 142
          17          16           1
SMALL
USER_CHARGES
 
@<TRIPOS>ATOM
       1    C1      17.058092   19.525107   22.989519 C.2        1 MOL1         0.6132
       2    O1      16.521893   20.389679   22.324821 O.co2      1 MOL1        -0.6749
       3    O2      16.818366   19.336291   24.165887 O.co2      1 MOL1        -0.6749
       4    C2      18.082611   18.624535   22.312072 C.3        1 MOL1        -0.1955
       5    H1      17.878963   18.623205   21.234497 H          1 MOL1         0.0733
       6    H2      17.918577   17.601768   22.670609 H          1 MOL1         0.0733
       7    C3      19.509874   19.052982   22.595087 C.2        1 MOL1        -0.1395
       8    H3      19.837138   18.927714   23.626788 H          1 MOL1         0.0816
       9    C4      20.339565   19.555498   21.675675 C.2        1 MOL1        -0.1394
      10    H4      20.010633   19.683455   20.644902 H          1 MOL1         0.0816
      11    C5      21.761159   19.985879   21.960569 C.3        1 MOL1        -0.1826
      12    H5      21.938364   20.983663   21.536826 H          1 MOL1         0.0736
      13    H6      21.927932   20.069030   23.043386 H          1 MOL1         0.0736
      14    C6      22.772214   18.987412   21.364003 C.3        1 MOL1        -0.2882
      15    H7      22.653373   18.913083   20.275068 H          1 MOL1         0.0749
      16    H8      23.801870   19.305346   21.573317 H          1 MOL1         0.0749
      17    H9      22.630901   17.986458   21.792631 H          1 MOL1         0.0749
@<TRIPOS>BOND
    1     1     2    1
    2     1     3    2
    3     1     4    1
    4     4     5    1
    5     4     6    1
    6     4     7    1
    7     7     8    1
    8     7     9    2
    9     9    10    1
   10     9    11    1
   11    11    12    1
   12    11    13    1
   13    11    14    1
   14    14    15    1
   15    14    16    1
   16    14    17    1
@<TRIPOS>SUBSTRUCTURE
       1 MOL1            1 RESIDUE      1      MOL     
@<SCITEGIC>MOL_PROPERTY
VConf Rank
SciTegic.value.IntegerValue
142

@<SCITEGIC>MOL_PROPERTY
Conf_Id
SciTegic.value.IntegerValue
35

@<SCITEGIC>MOL_PROPERTY
Delta U+W
SciTegic.value.DoubleValue
-0.102

@<SCITEGIC>MOL_PROPERTY
U+W
SciTegic.value.DoubleValue
-49.529

@<SCITEGIC>MOL_PROPERTY
Grad RMS
SciTegic.value.DoubleValue
0.000000

@<SCITEGIC>MOL_PROPERTY
U
SciTegic.value.DoubleValue
13.666

@<SCITEGIC>MOL_PROPERTY
W
SciTegic.value.DoubleValue
-63.195

@<SCITEGIC>MOL_PROPERTY
W(PB)
SciTegic.value.DoubleValue
-65.299

@<SCITEGIC>MOL_PROPERTY
W(SA)
SciTegic.value.DoubleValue
2.103

@<SCITEGIC>MOL_PROPERTY
Valence
SciTegic.value.DoubleValue
15.226

@<SCITEGIC>MOL_PROPERTY
Coulomb
SciTegic.value.DoubleValue
-1.822

@<SCITEGIC>MOL_PROPERTY
VdW
SciTegic.value.DoubleValue
0.261

@<SCITEGIC>MOL_PROPERTY
VdW6
SciTegic.value.DoubleValue
-4.165

@<SCITEGIC>MOL_PROPERTY
VdW12
SciTegic.value.DoubleValue
4.426

@<SCITEGIC>MOL_PROPERTY
Bond
SciTegic.value.DoubleValue
0.044

@<SCITEGIC>MOL_PROPERTY
Angle
SciTegic.value.DoubleValue
2.229

@<SCITEGIC>MOL_PROPERTY
Pdih
SciTegic.value.DoubleValue
12.953

@<SCITEGIC>MOL_PROPERTY
Idih
SciTegic.value.DoubleValue
0.000

@<SCITEGIC>MOL_PROPERTY
Tether
SciTegic.value.DoubleValue
0.000

@<TRIPOS>MOLECULE
guest-s20_confgen4.mol2 : confsearch ligand conformer 143
          17          16           1
SMALL
USER_CHARGES
 
@<TRIPOS>ATOM
       1    C1      23.094024   19.568068   21.711642 C.2        1 MOL1         0.6132
       2    O1      23.557267   18.650613   21.063064 O.co2      1 MOL1        -0.6749
       3    O2      23.317722   20.738788   21.474525 O.co2      1 MOL1        -0.6749
       4    C2      22.191866   19.229742   22.891193 C.3        1 MOL1        -0.1955
       5    H1      22.217098   20.070757   23.594500 H          1 MOL1         0.0733
       6    H2      22.626595   18.366539   23.408302 H          1 MOL1         0.0733
       7    C3      20.769894   18.918587   22.463895 C.2        1 MOL1        -0.1395
       8    H3      20.658396   17.999368   21.891450 H          1 MOL1         0.0816
       9    C4      19.717377   19.695848   22.748124 C.2        1 MOL1        -0.1394
      10    H4      19.868519   20.611015   23.319710 H          1 MOL1         0.0816
      11    C5      18.272171   19.447770   22.350097 C.3        1 MOL1        -0.1826
      12    H5      17.652737   19.416905   23.256660 H          1 MOL1         0.0736
      13    H6      17.908532   20.309046   21.773476 H          1 MOL1         0.0736
      14    C6      18.032852   18.158836   21.533150 C.3        1 MOL1        -0.2882
      15    H7      18.335529   17.269896   22.101987 H          1 MOL1         0.0749
      16    H8      16.968874   18.052602   21.284765 H          1 MOL1         0.0749
      17    H9      18.597410   18.178740   20.591679 H          1 MOL1         0.0749
@<TRIPOS>BOND
    1     1     2    1
    2     1     3    2
    3     1     4    1
    4     4     5    1
    5     4     6    1
    6     4     7    1
    7     7     8    1
    8     7     9    2
    9     9    10    1
   10     9    11    1
   11    11    12    1
   12    11    13    1
   13    11    14    1
   14    14    15    1
   15    14    16    1
   16    14    17    1
@<TRIPOS>SUBSTRUCTURE
       1 MOL1            1 RESIDUE      1      MOL     
@<SCITEGIC>MOL_PROPERTY
VConf Rank
SciTegic.value.IntegerValue
143

@<SCITEGIC>MOL_PROPERTY
Conf_Id
SciTegic.value.IntegerValue
19

@<SCITEGIC>MOL_PROPERTY
Delta U+W
SciTegic.value.DoubleValue
-0.496

@<SCITEGIC>MOL_PROPERTY
U+W
SciTegic.value.DoubleValue
-49.923

@<SCITEGIC>MOL_PROPERTY
Grad RMS
SciTegic.value.DoubleValue
0.000000

@<SCITEGIC>MOL_PROPERTY
U
SciTegic.value.DoubleValue
13.863

@<SCITEGIC>MOL_PROPERTY
W
SciTegic.value.DoubleValue
-63.786

@<SCITEGIC>MOL_PROPERTY
W(PB)
SciTegic.value.DoubleValue
-65.856

@<SCITEGIC>MOL_PROPERTY
W(SA)
SciTegic.value.DoubleValue
2.070

@<SCITEGIC>MOL_PROPERTY
Valence
SciTegic.value.DoubleValue
14.117

@<SCITEGIC>MOL_PROPERTY
Coulomb
SciTegic.value.DoubleValue
-1.228

@<SCITEGIC>MOL_PROPERTY
VdW
SciTegic.value.DoubleValue
0.974

@<SCITEGIC>MOL_PROPERTY
VdW6
SciTegic.value.DoubleValue
-4.885

@<SCITEGIC>MOL_PROPERTY
VdW12
SciTegic.value.DoubleValue
5.859

@<SCITEGIC>MOL_PROPERTY
Bond
SciTegic.value.DoubleValue
0.094

@<SCITEGIC>MOL_PROPERTY
Angle
SciTegic.value.DoubleValue
2.818

@<SCITEGIC>MOL_PROPERTY
Pdih
SciTegic.value.DoubleValue
11.205

@<SCITEGIC>MOL_PROPERTY
Idih
SciTegic.value.DoubleValue
0.000

@<SCITEGIC>MOL_PROPERTY
Tether
SciTegic.value.DoubleValue
0.000

@<TRIPOS>MOLECULE
guest-s20_confgen4.mol2 : confsearch ligand conformer 144
          17          16           1
SMALL
USER_CHARGES
 
@<TRIPOS>ATOM
       1    C1      20.799537   21.840497   22.919957 C.2        1 MOL1         0.6132
       2    O1      20.306865   21.945423   24.025886 O.co2      1 MOL1        -0.6749
       3    O2      21.918769   22.225169   22.643644 O.co2      1 MOL1        -0.6749
       4    C2      19.966932   21.202214   21.815787 C.3        1 MOL1        -0.1955
       5    H1      20.116979   21.788756   20.902037 H          1 MOL1         0.0733
       6    H2      18.908369   21.295365   22.086750 H          1 MOL1         0.0733
       7    C3      20.340007   19.752451   21.571319 C.2        1 MOL1        -0.1395
       8    H3      21.332053   19.592230   21.150142 H          1 MOL1         0.0816
       9    C4      19.543118   18.715178   21.845635 C.2        1 MOL1        -0.1394
      10    H4      18.553238   18.875704   22.271578 H          1 MOL1         0.0816
      11    C5      19.918210   17.270129   21.603817 C.3        1 MOL1        -0.1826
      12    H5      19.100152   16.757110   21.080257 H          1 MOL1         0.0736
      13    H6      20.799750   17.205860   20.951157 H          1 MOL1         0.0736
      14    C6      20.213019   16.545351   22.931513 C.3        1 MOL1        -0.2882
      15    H7      19.334209   16.560365   23.589459 H          1 MOL1         0.0749
      16    H8      20.485066   15.497409   22.750198 H          1 MOL1         0.0749
      17    H9      21.045304   17.026800   23.461786 H          1 MOL1         0.0749
@<TRIPOS>BOND
    1     1     2    1
    2     1     3    2
    3     1     4    1
    4     4     5    1
    5     4     6    1
    6     4     7    1
    7     7     8    1
    8     7     9    2
    9     9    10    1
   10     9    11    1
   11    11    12    1
   12    11    13    1
   13    11    14    1
   14    14    15    1
   15    14    16    1
   16    14    17    1
@<TRIPOS>SUBSTRUCTURE
       1 MOL1            1 RESIDUE      1      MOL     
@<SCITEGIC>MOL_PROPERTY
VConf Rank
SciTegic.value.IntegerValue
144

@<SCITEGIC>MOL_PROPERTY
Conf_Id
SciTegic.value.IntegerValue
7

@<SCITEGIC>MOL_PROPERTY
Delta U+W
SciTegic.value.DoubleValue
-0.041

@<SCITEGIC>MOL_PROPERTY
U+W
SciTegic.value.DoubleValue
-49.468

@<SCITEGIC>MOL_PROPERTY
Grad RMS
SciTegic.value.DoubleValue
0.000000

@<SCITEGIC>MOL_PROPERTY
U
SciTegic.value.DoubleValue
14.121

@<SCITEGIC>MOL_PROPERTY
W
SciTegic.value.DoubleValue
-63.589

@<SCITEGIC>MOL_PROPERTY
W(PB)
SciTegic.value.DoubleValue
-65.660

@<SCITEGIC>MOL_PROPERTY
W(SA)
SciTegic.value.DoubleValue
2.071

@<SCITEGIC>MOL_PROPERTY
Valence
SciTegic.value.DoubleValue
15.230

@<SCITEGIC>MOL_PROPERTY
Coulomb
SciTegic.value.DoubleValue
-1.333

@<SCITEGIC>MOL_PROPERTY
VdW
SciTegic.value.DoubleValue
0.224

@<SCITEGIC>MOL_PROPERTY
VdW6
SciTegic.value.DoubleValue
-4.212

@<SCITEGIC>MOL_PROPERTY
VdW12
SciTegic.value.DoubleValue
4.436

@<SCITEGIC>MOL_PROPERTY
Bond
SciTegic.value.DoubleValue
0.044

@<SCITEGIC>MOL_PROPERTY
Angle
SciTegic.value.DoubleValue
2.230

@<SCITEGIC>MOL_PROPERTY
Pdih
SciTegic.value.DoubleValue
12.956

@<SCITEGIC>MOL_PROPERTY
Idih
SciTegic.value.DoubleValue
0.000

@<SCITEGIC>MOL_PROPERTY
Tether
SciTegic.value.DoubleValue
0.000

@<TRIPOS>MOLECULE
guest-s20_confgen4.mol2 : confsearch ligand conformer 145
          17          16           1
SMALL
USER_CHARGES
 
@<TRIPOS>ATOM
       1    C1      20.471634   16.567682   21.827443 C.2        1 MOL1         0.6132
       2    O1      19.322578   16.217165   21.643597 O.co2      1 MOL1        -0.6749
       3    O2      21.204995   16.058520   22.652075 O.co2      1 MOL1        -0.6749
       4    C2      21.032498   17.688326   20.957291 C.3        1 MOL1        -0.1955
       5    H1      20.548889   17.625846   19.975463 H          1 MOL1         0.0733
       6    H2      22.094556   17.479239   20.783984 H          1 MOL1         0.0733
       7    C3      20.873920   19.095551   21.515367 C.2        1 MOL1        -0.1395
       8    H3      21.281073   19.880050   20.878708 H          1 MOL1         0.0816
       9    C4      20.294782   19.420392   22.677293 C.2        1 MOL1        -0.1394
      10    H4      19.878909   18.655495   23.332057 H          1 MOL1         0.0816
      11    C5      20.163772   20.838136   23.187958 C.3        1 MOL1        -0.1826
      12    H5      20.489704   20.886036   24.235810 H          1 MOL1         0.0736
      13    H6      20.820573   21.513458   22.622531 H          1 MOL1         0.0736
      14    C6      18.708407   21.333315   23.079578 C.3        1 MOL1        -0.2882
      15    H7      18.618960   22.361822   23.452715 H          1 MOL1         0.0749
      16    H8      18.368436   21.318586   22.035644 H          1 MOL1         0.0749
      17    H9      18.033719   20.697454   23.667741 H          1 MOL1         0.0749
@<TRIPOS>BOND
    1     1     2    1
    2     1     3    2
    3     1     4    1
    4     4     5    1
    5     4     6    1
    6     4     7    1
    7     7     8    1
    8     7     9    2
    9     9    10    1
   10     9    11    1
   11    11    12    1
   12    11    13    1
   13    11    14    1
   14    14    15    1
   15    14    16    1
   16    14    17    1
@<TRIPOS>SUBSTRUCTURE
       1 MOL1            1 RESIDUE      1      MOL     
@<SCITEGIC>MOL_PROPERTY
VConf Rank
SciTegic.value.IntegerValue
145

@<SCITEGIC>MOL_PROPERTY
Conf_Id
SciTegic.value.IntegerValue
39

@<SCITEGIC>MOL_PROPERTY
Delta U+W
SciTegic.value.DoubleValue
-0.422

@<SCITEGIC>MOL_PROPERTY
U+W
SciTegic.value.DoubleValue
-49.849

@<SCITEGIC>MOL_PROPERTY
Grad RMS
SciTegic.value.DoubleValue
0.000000

@<SCITEGIC>MOL_PROPERTY
U
SciTegic.value.DoubleValue
14.465

@<SCITEGIC>MOL_PROPERTY
W
SciTegic.value.DoubleValue
-64.314

@<SCITEGIC>MOL_PROPERTY
W(PB)
SciTegic.value.DoubleValue
-66.406

@<SCITEGIC>MOL_PROPERTY
W(SA)
SciTegic.value.DoubleValue
2.093

@<SCITEGIC>MOL_PROPERTY
Valence
SciTegic.value.DoubleValue
14.072

@<SCITEGIC>MOL_PROPERTY
Coulomb
SciTegic.value.DoubleValue
-0.199

@<SCITEGIC>MOL_PROPERTY
VdW
SciTegic.value.DoubleValue
0.592

@<SCITEGIC>MOL_PROPERTY
VdW6
SciTegic.value.DoubleValue
-5.019

@<SCITEGIC>MOL_PROPERTY
VdW12
SciTegic.value.DoubleValue
5.611

@<SCITEGIC>MOL_PROPERTY
Bond
SciTegic.value.DoubleValue
0.085

@<SCITEGIC>MOL_PROPERTY
Angle
SciTegic.value.DoubleValue
2.748

@<SCITEGIC>MOL_PROPERTY
Pdih
SciTegic.value.DoubleValue
11.238

@<SCITEGIC>MOL_PROPERTY
Idih
SciTegic.value.DoubleValue
0.001

@<SCITEGIC>MOL_PROPERTY
Tether
SciTegic.value.DoubleValue
0.000

@<TRIPOS>MOLECULE
guest-s20_confgen4.mol2 : confsearch ligand conformer 146
          17          16           1
SMALL
USER_CHARGES
 
@<TRIPOS>ATOM
       1    C1      20.448234   16.293369   23.115259 C.2        1 MOL1         0.6132
       2    O1      21.445017   15.704834   22.745111 O.co2      1 MOL1        -0.6749
       3    O2      19.352510   15.774116   23.196402 O.co2      1 MOL1        -0.6749
       4    C2      20.582939   17.759979   23.503220 C.3        1 MOL1        -0.1955
       5    H1      21.515756   17.872813   24.067692 H          1 MOL1         0.0733
       6    H2      19.762414   18.010992   24.186133 H          1 MOL1         0.0733
       7    C3      20.588625   18.681377   22.298338 C.2        1 MOL1        -0.1395
       8    H3      21.464083   18.600016   21.654789 H          1 MOL1         0.0816
       9    C4      19.610083   19.544132   22.007930 C.2        1 MOL1        -0.1394
      10    H4      18.733564   19.622855   22.650253 H          1 MOL1         0.0816
      11    C5      19.615710   20.459439   20.803978 C.3        1 MOL1        -0.1826
      12    H5      20.384106   20.143883   20.084803 H          1 MOL1         0.0736
      13    H6      18.650696   20.393250   20.283496 H          1 MOL1         0.0736
      14    C6      19.875846   21.920339   21.220105 C.3        1 MOL1        -0.2882
      15    H7      20.848470   22.015867   21.720584 H          1 MOL1         0.0749
      16    H8      19.878134   22.579751   20.342462 H          1 MOL1         0.0749
      17    H9      19.099526   22.275096   21.910687 H          1 MOL1         0.0749
@<TRIPOS>BOND
    1     1     2    1
    2     1     3    2
    3     1     4    1
    4     4     5    1
    5     4     6    1
    6     4     7    1
    7     7     8    1
    8     7     9    2
    9     9    10    1
   10     9    11    1
   11    11    12    1
   12    11    13    1
   13    11    14    1
   14    14    15    1
   15    14    16    1
   16    14    17    1
@<TRIPOS>SUBSTRUCTURE
       1 MOL1            1 RESIDUE      1      MOL     
@<SCITEGIC>MOL_PROPERTY
VConf Rank
SciTegic.value.IntegerValue
146

@<SCITEGIC>MOL_PROPERTY
Conf_Id
SciTegic.value.IntegerValue
38

@<SCITEGIC>MOL_PROPERTY
Delta U+W
SciTegic.value.DoubleValue
0.000

@<SCITEGIC>MOL_PROPERTY
U+W
SciTegic.value.DoubleValue
-49.427

@<SCITEGIC>MOL_PROPERTY
Grad RMS
SciTegic.value.DoubleValue
0.000000

@<SCITEGIC>MOL_PROPERTY
U
SciTegic.value.DoubleValue
13.666

@<SCITEGIC>MOL_PROPERTY
W
SciTegic.value.DoubleValue
-63.093

@<SCITEGIC>MOL_PROPERTY
W(PB)
SciTegic.value.DoubleValue
-65.225

@<SCITEGIC>MOL_PROPERTY
W(SA)
SciTegic.value.DoubleValue
2.132

@<SCITEGIC>MOL_PROPERTY
Valence
SciTegic.value.DoubleValue
15.226

@<SCITEGIC>MOL_PROPERTY
Coulomb
SciTegic.value.DoubleValue
-1.822

@<SCITEGIC>MOL_PROPERTY
VdW
SciTegic.value.DoubleValue
0.261

@<SCITEGIC>MOL_PROPERTY
VdW6
SciTegic.value.DoubleValue
-4.165

@<SCITEGIC>MOL_PROPERTY
VdW12
SciTegic.value.DoubleValue
4.426

@<SCITEGIC>MOL_PROPERTY
Bond
SciTegic.value.DoubleValue
0.044

@<SCITEGIC>MOL_PROPERTY
Angle
SciTegic.value.DoubleValue
2.229

@<SCITEGIC>MOL_PROPERTY
Pdih
SciTegic.value.DoubleValue
12.953

@<SCITEGIC>MOL_PROPERTY
Idih
SciTegic.value.DoubleValue
0.000

@<SCITEGIC>MOL_PROPERTY
Tether
SciTegic.value.DoubleValue
0.000

@<TRIPOS>MOLECULE
guest-s20_confgen4.mol2 : confsearch ligand conformer 147
          17          16           1
SMALL
USER_CHARGES
 
@<TRIPOS>ATOM
       1    C1      17.913258   17.529819   23.613567 C.2        1 MOL1         0.6132
       2    O1      16.929128   18.213050   23.817287 O.co2      1 MOL1        -0.6749
       3    O2      18.330488   16.701409   24.398816 O.co2      1 MOL1        -0.6749
       4    C2      18.662913   17.716425   22.301012 C.3        1 MOL1        -0.1955
       5    H1      17.968171   18.141213   21.566486 H          1 MOL1         0.0733
       6    H2      18.949245   16.723758   21.934769 H          1 MOL1         0.0733
       7    C3      19.893449   18.589992   22.454002 C.2        1 MOL1        -0.1395
       8    H3      20.700467   18.157287   23.044501 H          1 MOL1         0.0816
       9    C4      20.019632   19.809572   21.922091 C.2        1 MOL1        -0.1394
      10    H4      19.211011   20.242940   21.334397 H          1 MOL1         0.0816
      11    C5      21.245854   20.680823   22.079010 C.3        1 MOL1        -0.1826
      12    H5      20.944945   21.693812   22.378741 H          1 MOL1         0.0736
      13    H6      21.892249   20.294256   22.878984 H          1 MOL1         0.0736
      14    C6      22.047445   20.750784   20.764621 C.3        1 MOL1        -0.2882
      15    H7      21.436133   21.170304   19.954850 H          1 MOL1         0.0749
      16    H8      22.935522   21.384854   20.884457 H          1 MOL1         0.0749
      17    H9      22.381615   19.750807   20.458067 H          1 MOL1         0.0749
@<TRIPOS>BOND
    1     1     2    1
    2     1     3    2
    3     1     4    1
    4     4     5    1
    5     4     6    1
    6     4     7    1
    7     7     8    1
    8     7     9    2
    9     9    10    1
   10     9    11    1
   11    11    12    1
   12    11    13    1
   13    11    14    1
   14    14    15    1
   15    14    16    1
   16    14    17    1
@<TRIPOS>SUBSTRUCTURE
       1 MOL1            1 RESIDUE      1      MOL     
@<SCITEGIC>MOL_PROPERTY
VConf Rank
SciTegic.value.IntegerValue
147

@<SCITEGIC>MOL_PROPERTY
Conf_Id
SciTegic.value.IntegerValue
35

@<SCITEGIC>MOL_PROPERTY
Delta U+W
SciTegic.value.DoubleValue
-0.102

@<SCITEGIC>MOL_PROPERTY
U+W
SciTegic.value.DoubleValue
-49.529

@<SCITEGIC>MOL_PROPERTY
Grad RMS
SciTegic.value.DoubleValue
0.000000

@<SCITEGIC>MOL_PROPERTY
U
SciTegic.value.DoubleValue
13.666

@<SCITEGIC>MOL_PROPERTY
W
SciTegic.value.DoubleValue
-63.195

@<SCITEGIC>MOL_PROPERTY
W(PB)
SciTegic.value.DoubleValue
-65.299

@<SCITEGIC>MOL_PROPERTY
W(SA)
SciTegic.value.DoubleValue
2.103

@<SCITEGIC>MOL_PROPERTY
Valence
SciTegic.value.DoubleValue
15.226

@<SCITEGIC>MOL_PROPERTY
Coulomb
SciTegic.value.DoubleValue
-1.822

@<SCITEGIC>MOL_PROPERTY
VdW
SciTegic.value.DoubleValue
0.261

@<SCITEGIC>MOL_PROPERTY
VdW6
SciTegic.value.DoubleValue
-4.165

@<SCITEGIC>MOL_PROPERTY
VdW12
SciTegic.value.DoubleValue
4.426

@<SCITEGIC>MOL_PROPERTY
Bond
SciTegic.value.DoubleValue
0.044

@<SCITEGIC>MOL_PROPERTY
Angle
SciTegic.value.DoubleValue
2.229

@<SCITEGIC>MOL_PROPERTY
Pdih
SciTegic.value.DoubleValue
12.953

@<SCITEGIC>MOL_PROPERTY
Idih
SciTegic.value.DoubleValue
0.000

@<SCITEGIC>MOL_PROPERTY
Tether
SciTegic.value.DoubleValue
0.000

@<TRIPOS>MOLECULE
guest-s20_confgen4.mol2 : confsearch ligand conformer 148
          17          16           1
SMALL
USER_CHARGES
 
@<TRIPOS>ATOM
       1    C1      20.844347   17.438273   19.845114 C.2        1 MOL1         0.6132
       2    O1      20.794397   18.116258   18.837735 O.co2      1 MOL1        -0.6749
       3    O2      21.738923   16.650314   20.081131 O.co2      1 MOL1        -0.6749
       4    C2      19.718625   17.578384   20.861387 C.3        1 MOL1        -0.1955
       5    H1      19.669546   16.653443   21.448466 H          1 MOL1         0.0733
       6    H2      18.775793   17.656883   20.307837 H          1 MOL1         0.0733
       7    C3      19.896043   18.786756   21.761256 C.2        1 MOL1        -0.1395
       8    H3      19.795296   19.746735   21.257887 H          1 MOL1         0.0816
       9    C4      20.161510   18.710070   23.071355 C.2        1 MOL1        -0.1394
      10    H4      20.259739   17.731247   23.539691 H          1 MOL1         0.0816
      11    C5      20.354376   19.874665   24.027970 C.3        1 MOL1        -0.1826
      12    H5      19.626843   19.788342   24.846352 H          1 MOL1         0.0736
      13    H6      21.341998   19.787604   24.500775 H          1 MOL1         0.0736
      14    C6      20.225996   21.273838   23.386206 C.3        1 MOL1        -0.2882
      15    H7      19.228918   21.417035   22.949478 H          1 MOL1         0.0749
      16    H8      20.378866   22.058029   24.139004 H          1 MOL1         0.0749
      17    H9      20.975648   21.415244   22.596576 H          1 MOL1         0.0749
@<TRIPOS>BOND
    1     1     2    1
    2     1     3    2
    3     1     4    1
    4     4     5    1
    5     4     6    1
    6     4     7    1
    7     7     8    1
    8     7     9    2
    9     9    10    1
   10     9    11    1
   11    11    12    1
   12    11    13    1
   13    11    14    1
   14    14    15    1
   15    14    16    1
   16    14    17    1
@<TRIPOS>SUBSTRUCTURE
       1 MOL1            1 RESIDUE      1      MOL     
@<SCITEGIC>MOL_PROPERTY
VConf Rank
SciTegic.value.IntegerValue
148

@<SCITEGIC>MOL_PROPERTY
Conf_Id
SciTegic.value.IntegerValue
19

@<SCITEGIC>MOL_PROPERTY
Delta U+W
SciTegic.value.DoubleValue
-0.496

@<SCITEGIC>MOL_PROPERTY
U+W
SciTegic.value.DoubleValue
-49.923

@<SCITEGIC>MOL_PROPERTY
Grad RMS
SciTegic.value.DoubleValue
0.000000

@<SCITEGIC>MOL_PROPERTY
U
SciTegic.value.DoubleValue
13.863

@<SCITEGIC>MOL_PROPERTY
W
SciTegic.value.DoubleValue
-63.786

@<SCITEGIC>MOL_PROPERTY
W(PB)
SciTegic.value.DoubleValue
-65.856

@<SCITEGIC>MOL_PROPERTY
W(SA)
SciTegic.value.DoubleValue
2.070

@<SCITEGIC>MOL_PROPERTY
Valence
SciTegic.value.DoubleValue
14.117

@<SCITEGIC>MOL_PROPERTY
Coulomb
SciTegic.value.DoubleValue
-1.228

@<SCITEGIC>MOL_PROPERTY
VdW
SciTegic.value.DoubleValue
0.974

@<SCITEGIC>MOL_PROPERTY
VdW6
SciTegic.value.DoubleValue
-4.885

@<SCITEGIC>MOL_PROPERTY
VdW12
SciTegic.value.DoubleValue
5.859

@<SCITEGIC>MOL_PROPERTY
Bond
SciTegic.value.DoubleValue
0.094

@<SCITEGIC>MOL_PROPERTY
Angle
SciTegic.value.DoubleValue
2.818

@<SCITEGIC>MOL_PROPERTY
Pdih
SciTegic.value.DoubleValue
11.205

@<SCITEGIC>MOL_PROPERTY
Idih
SciTegic.value.DoubleValue
0.000

@<SCITEGIC>MOL_PROPERTY
Tether
SciTegic.value.DoubleValue
0.000

@<TRIPOS>MOLECULE
guest-s20_confgen4.mol2 : confsearch ligand conformer 149
          17          16           1
SMALL
USER_CHARGES
 
@<TRIPOS>ATOM
       1    C1      20.564397   16.295598   23.099317 C.2        1 MOL1         0.6132
       2    O1      20.717400   15.706996   22.047200 O.co2      1 MOL1        -0.6749
       3    O2      21.280455   16.136950   24.068385 O.co2      1 MOL1        -0.6749
       4    C2      19.406418   17.278132   23.215662 C.3        1 MOL1        -0.1955
       5    H1      18.945247   17.136746   24.199947 H          1 MOL1         0.0733
       6    H2      18.652052   17.009813   22.466268 H          1 MOL1         0.0733
       7    C3      19.848783   18.719517   23.049870 C.2        1 MOL1        -0.1395
       8    H3      20.480929   19.106719   23.848420 H          1 MOL1         0.0816
       9    C4      19.517035   19.492377   22.011195 C.2        1 MOL1        -0.1394
      10    H4      18.889140   19.103060   21.210421 H          1 MOL1         0.0816
      11    C5      19.961623   20.928519   21.846348 C.3        1 MOL1        -0.1826
      12    H5      19.098483   21.556743   21.587801 H          1 MOL1         0.0736
      13    H6      20.362930   21.317664   22.792248 H          1 MOL1         0.0736
      14    C6      21.035149   21.052788   20.747670 C.3        1 MOL1        -0.2882
      15    H7      20.647749   20.706287   19.780570 H          1 MOL1         0.0749
      16    H8      21.354460   22.096749   20.632554 H          1 MOL1         0.0749
      17    H9      21.919325   20.451351   20.997045 H          1 MOL1         0.0749
@<TRIPOS>BOND
    1     1     2    1
    2     1     3    2
    3     1     4    1
    4     4     5    1
    5     4     6    1
    6     4     7    1
    7     7     8    1
    8     7     9    2
    9     9    10    1
   10     9    11    1
   11    11    12    1
   12    11    13    1
   13    11    14    1
   14    14    15    1
   15    14    16    1
   16    14    17    1
@<TRIPOS>SUBSTRUCTURE
       1 MOL1            1 RESIDUE      1      MOL     
@<SCITEGIC>MOL_PROPERTY
VConf Rank
SciTegic.value.IntegerValue
149

@<SCITEGIC>MOL_PROPERTY
Conf_Id
SciTegic.value.IntegerValue
7

@<SCITEGIC>MOL_PROPERTY
Delta U+W
SciTegic.value.DoubleValue
-0.041

@<SCITEGIC>MOL_PROPERTY
U+W
SciTegic.value.DoubleValue
-49.468

@<SCITEGIC>MOL_PROPERTY
Grad RMS
SciTegic.value.DoubleValue
0.000000

@<SCITEGIC>MOL_PROPERTY
U
SciTegic.value.DoubleValue
14.121

@<SCITEGIC>MOL_PROPERTY
W
SciTegic.value.DoubleValue
-63.589

@<SCITEGIC>MOL_PROPERTY
W(PB)
SciTegic.value.DoubleValue
-65.660

@<SCITEGIC>MOL_PROPERTY
W(SA)
SciTegic.value.DoubleValue
2.071

@<SCITEGIC>MOL_PROPERTY
Valence
SciTegic.value.DoubleValue
15.230

@<SCITEGIC>MOL_PROPERTY
Coulomb
SciTegic.value.DoubleValue
-1.333

@<SCITEGIC>MOL_PROPERTY
VdW
SciTegic.value.DoubleValue
0.224

@<SCITEGIC>MOL_PROPERTY
VdW6
SciTegic.value.DoubleValue
-4.212

@<SCITEGIC>MOL_PROPERTY
VdW12
SciTegic.value.DoubleValue
4.436

@<SCITEGIC>MOL_PROPERTY
Bond
SciTegic.value.DoubleValue
0.044

@<SCITEGIC>MOL_PROPERTY
Angle
SciTegic.value.DoubleValue
2.230

@<SCITEGIC>MOL_PROPERTY
Pdih
SciTegic.value.DoubleValue
12.956

@<SCITEGIC>MOL_PROPERTY
Idih
SciTegic.value.DoubleValue
0.000

@<SCITEGIC>MOL_PROPERTY
Tether
SciTegic.value.DoubleValue
0.000

@<TRIPOS>MOLECULE
guest-s20_confgen4.mol2 : confsearch ligand conformer 150
          17          16           1
SMALL
USER_CHARGES
 
@<TRIPOS>ATOM
       1    C1      20.795348   21.953033   22.276438 C.2        1 MOL1         0.6132
       2    O1      21.994614   21.893307   22.088855 O.co2      1 MOL1        -0.6749
       3    O2      20.290505   22.547227   23.208720 O.co2      1 MOL1        -0.6749
       4    C2      19.872692   21.268903   21.272322 C.3        1 MOL1        -0.1955
       5    H1      20.353200   21.315467   20.288090 H          1 MOL1         0.0733
       6    H2      18.960013   21.870657   21.190908 H          1 MOL1         0.0733
       7    C3      19.506166   19.826849   21.593284 C.2        1 MOL1        -0.1395
       8    H3      18.846933   19.357697   20.864001 H          1 MOL1         0.0816
       9    C4      19.919615   19.128221   22.657227 C.2        1 MOL1        -0.1394
      10    H4      20.579734   19.573240   23.400822 H          1 MOL1         0.0816
      11    C5      19.523928   17.694246   22.931254 C.3        1 MOL1        -0.1826
      12    H5      19.195169   17.593579   23.974471 H          1 MOL1         0.0736
      13    H6      18.671108   17.403139   22.302677 H          1 MOL1         0.0736
      14    C6      20.701465   16.735260   22.668980 C.3        1 MOL1        -0.2882
      15    H7      20.409180   15.696542   22.870710 H          1 MOL1         0.0749
      16    H8      21.031253   16.799770   21.623670 H          1 MOL1         0.0749
      17    H9      21.556481   16.979935   23.312828 H          1 MOL1         0.0749
@<TRIPOS>BOND
    1     1     2    1
    2     1     3    2
    3     1     4    1
    4     4     5    1
    5     4     6    1
    6     4     7    1
    7     7     8    1
    8     7     9    2
    9     9    10    1
   10     9    11    1
   11    11    12    1
   12    11    13    1
   13    11    14    1
   14    14    15    1
   15    14    16    1
   16    14    17    1
@<TRIPOS>SUBSTRUCTURE
       1 MOL1            1 RESIDUE      1      MOL     
@<SCITEGIC>MOL_PROPERTY
VConf Rank
SciTegic.value.IntegerValue
150

@<SCITEGIC>MOL_PROPERTY
Conf_Id
SciTegic.value.IntegerValue
39

@<SCITEGIC>MOL_PROPERTY
Delta U+W
SciTegic.value.DoubleValue
-0.422

@<SCITEGIC>MOL_PROPERTY
U+W
SciTegic.value.DoubleValue
-49.849

@<SCITEGIC>MOL_PROPERTY
Grad RMS
SciTegic.value.DoubleValue
0.000000

@<SCITEGIC>MOL_PROPERTY
U
SciTegic.value.DoubleValue
14.465

@<SCITEGIC>MOL_PROPERTY
W
SciTegic.value.DoubleValue
-64.314

@<SCITEGIC>MOL_PROPERTY
W(PB)
SciTegic.value.DoubleValue
-66.406

@<SCITEGIC>MOL_PROPERTY
W(SA)
SciTegic.value.DoubleValue
2.093

@<SCITEGIC>MOL_PROPERTY
Valence
SciTegic.value.DoubleValue
14.072

@<SCITEGIC>MOL_PROPERTY
Coulomb
SciTegic.value.DoubleValue
-0.199

@<SCITEGIC>MOL_PROPERTY
VdW
SciTegic.value.DoubleValue
0.592

@<SCITEGIC>MOL_PROPERTY
VdW6
SciTegic.value.DoubleValue
-5.019

@<SCITEGIC>MOL_PROPERTY
VdW12
SciTegic.value.DoubleValue
5.611

@<SCITEGIC>MOL_PROPERTY
Bond
SciTegic.value.DoubleValue
0.085

@<SCITEGIC>MOL_PROPERTY
Angle
SciTegic.value.DoubleValue
2.748

@<SCITEGIC>MOL_PROPERTY
Pdih
SciTegic.value.DoubleValue
11.238

@<SCITEGIC>MOL_PROPERTY
Idih
SciTegic.value.DoubleValue
0.001

@<SCITEGIC>MOL_PROPERTY
Tether
SciTegic.value.DoubleValue
0.000

@<TRIPOS>MOLECULE
guest-s20_confgen4.mol2 : confsearch ligand conformer 151
          17          16           1
SMALL
USER_CHARGES
 
@<TRIPOS>ATOM
       1    C1      20.419432   21.328468   19.718231 C.2        1 MOL1         0.6132
       2    O1      20.569528   20.853944   18.609512 O.co2      1 MOL1        -0.6749
       3    O2      21.014085   22.311362   20.114620 O.co2      1 MOL1        -0.6749
       4    C2      19.427622   20.656363   20.658547 C.3        1 MOL1        -0.1955
       5    H1      18.547142   20.373445   20.070141 H          1 MOL1         0.0733
       6    H2      19.096335   21.398234   21.395103 H          1 MOL1         0.0733
       7    C3      20.011634   19.434759   21.342183 C.2        1 MOL1        -0.1395
       8    H3      20.216866   18.588741   20.686946 H          1 MOL1         0.0816
       9    C4      20.273722   19.359649   22.650577 C.2        1 MOL1        -0.1394
      10    H4      20.071032   20.207048   23.304711 H          1 MOL1         0.0816
      11    C5      20.859592   18.142024   23.329892 C.3        1 MOL1        -0.1826
      12    H5      21.268647   17.445742   22.584851 H          1 MOL1         0.0736
      13    H6      21.697493   18.443538   23.972968 H          1 MOL1         0.0736
      14    C6      19.796991   17.415669   24.177447 C.3        1 MOL1        -0.2882
      15    H7      18.959804   17.081604   23.550454 H          1 MOL1         0.0749
      16    H8      20.228120   16.533496   24.668348 H          1 MOL1         0.0749
      17    H9      19.397668   18.078025   24.956712 H          1 MOL1         0.0749
@<TRIPOS>BOND
    1     1     2    1
    2     1     3    2
    3     1     4    1
    4     4     5    1
    5     4     6    1
    6     4     7    1
    7     7     8    1
    8     7     9    2
    9     9    10    1
   10     9    11    1
   11    11    12    1
   12    11    13    1
   13    11    14    1
   14    14    15    1
   15    14    16    1
   16    14    17    1
@<TRIPOS>SUBSTRUCTURE
       1 MOL1            1 RESIDUE      1      MOL     
@<SCITEGIC>MOL_PROPERTY
VConf Rank
SciTegic.value.IntegerValue
151

@<SCITEGIC>MOL_PROPERTY
Conf_Id
SciTegic.value.IntegerValue
38

@<SCITEGIC>MOL_PROPERTY
Delta U+W
SciTegic.value.DoubleValue
0.000

@<SCITEGIC>MOL_PROPERTY
U+W
SciTegic.value.DoubleValue
-49.427

@<SCITEGIC>MOL_PROPERTY
Grad RMS
SciTegic.value.DoubleValue
0.000000

@<SCITEGIC>MOL_PROPERTY
U
SciTegic.value.DoubleValue
13.666

@<SCITEGIC>MOL_PROPERTY
W
SciTegic.value.DoubleValue
-63.093

@<SCITEGIC>MOL_PROPERTY
W(PB)
SciTegic.value.DoubleValue
-65.225

@<SCITEGIC>MOL_PROPERTY
W(SA)
SciTegic.value.DoubleValue
2.132

@<SCITEGIC>MOL_PROPERTY
Valence
SciTegic.value.DoubleValue
15.226

@<SCITEGIC>MOL_PROPERTY
Coulomb
SciTegic.value.DoubleValue
-1.822

@<SCITEGIC>MOL_PROPERTY
VdW
SciTegic.value.DoubleValue
0.261

@<SCITEGIC>MOL_PROPERTY
VdW6
SciTegic.value.DoubleValue
-4.165

@<SCITEGIC>MOL_PROPERTY
VdW12
SciTegic.value.DoubleValue
4.426

@<SCITEGIC>MOL_PROPERTY
Bond
SciTegic.value.DoubleValue
0.044

@<SCITEGIC>MOL_PROPERTY
Angle
SciTegic.value.DoubleValue
2.229

@<SCITEGIC>MOL_PROPERTY
Pdih
SciTegic.value.DoubleValue
12.953

@<SCITEGIC>MOL_PROPERTY
Idih
SciTegic.value.DoubleValue
0.000

@<SCITEGIC>MOL_PROPERTY
Tether
SciTegic.value.DoubleValue
0.000

@<TRIPOS>MOLECULE
guest-s20_confgen4.mol2 : confsearch ligand conformer 152
          17          16           1
SMALL
USER_CHARGES
 
@<TRIPOS>ATOM
       1    C1      21.263115   16.643285   23.425393 C.2        1 MOL1         0.6132
       2    O1      21.351156   16.807529   24.626264 O.co2      1 MOL1        -0.6749
       3    O2      22.078738   16.024938   22.770133 O.co2      1 MOL1        -0.6749
       4    C2      20.063295   17.239331   22.700986 C.3        1 MOL1        -0.1955
       5    H1      19.253566   17.370652   23.428814 H          1 MOL1         0.0733
       6    H2      19.717049   16.504159   21.965362 H          1 MOL1         0.0733
       7    C3      20.392924   18.549876   22.012102 C.2        1 MOL1        -0.1395
       8    H3      21.074315   18.471714   21.165462 H          1 MOL1         0.0816
       9    C4      19.907137   19.737654   22.385496 C.2        1 MOL1        -0.1394
      10    H4      19.228332   19.815491   23.234157 H          1 MOL1         0.0816
      11    C5      20.240053   21.043932   21.699838 C.3        1 MOL1        -0.1826
      12    H5      20.518889   21.795966   22.450323 H          1 MOL1         0.0736
      13    H6      21.109160   20.920628   21.039030 H          1 MOL1         0.0736
      14    C6      19.042768   21.558481   20.877153 C.3        1 MOL1        -0.2882
      15    H7      18.169189   21.727432   21.520382 H          1 MOL1         0.0749
      16    H8      19.290077   22.506821   20.382607 H          1 MOL1         0.0749
      17    H9      18.761762   20.833214   20.102155 H          1 MOL1         0.0749
@<TRIPOS>BOND
    1     1     2    1
    2     1     3    2
    3     1     4    1
    4     4     5    1
    5     4     6    1
    6     4     7    1
    7     7     8    1
    8     7     9    2
    9     9    10    1
   10     9    11    1
   11    11    12    1
   12    11    13    1
   13    11    14    1
   14    14    15    1
   15    14    16    1
   16    14    17    1
@<TRIPOS>SUBSTRUCTURE
       1 MOL1            1 RESIDUE      1      MOL     
@<SCITEGIC>MOL_PROPERTY
VConf Rank
SciTegic.value.IntegerValue
152

@<SCITEGIC>MOL_PROPERTY
Conf_Id
SciTegic.value.IntegerValue
35

@<SCITEGIC>MOL_PROPERTY
Delta U+W
SciTegic.value.DoubleValue
-0.102

@<SCITEGIC>MOL_PROPERTY
U+W
SciTegic.value.DoubleValue
-49.529

@<SCITEGIC>MOL_PROPERTY
Grad RMS
SciTegic.value.DoubleValue
0.000000

@<SCITEGIC>MOL_PROPERTY
U
SciTegic.value.DoubleValue
13.666

@<SCITEGIC>MOL_PROPERTY
W
SciTegic.value.DoubleValue
-63.195

@<SCITEGIC>MOL_PROPERTY
W(PB)
SciTegic.value.DoubleValue
-65.299

@<SCITEGIC>MOL_PROPERTY
W(SA)
SciTegic.value.DoubleValue
2.103

@<SCITEGIC>MOL_PROPERTY
Valence
SciTegic.value.DoubleValue
15.226

@<SCITEGIC>MOL_PROPERTY
Coulomb
SciTegic.value.DoubleValue
-1.822

@<SCITEGIC>MOL_PROPERTY
VdW
SciTegic.value.DoubleValue
0.261

@<SCITEGIC>MOL_PROPERTY
VdW6
SciTegic.value.DoubleValue
-4.165

@<SCITEGIC>MOL_PROPERTY
VdW12
SciTegic.value.DoubleValue
4.426

@<SCITEGIC>MOL_PROPERTY
Bond
SciTegic.value.DoubleValue
0.044

@<SCITEGIC>MOL_PROPERTY
Angle
SciTegic.value.DoubleValue
2.229

@<SCITEGIC>MOL_PROPERTY
Pdih
SciTegic.value.DoubleValue
12.953

@<SCITEGIC>MOL_PROPERTY
Idih
SciTegic.value.DoubleValue
0.000

@<SCITEGIC>MOL_PROPERTY
Tether
SciTegic.value.DoubleValue
0.000

@<TRIPOS>MOLECULE
guest-s20_confgen4.mol2 : confsearch ligand conformer 153
          17          16           1
SMALL
USER_CHARGES
 
@<TRIPOS>ATOM
       1    C1      22.731638   17.830957   23.099866 C.2        1 MOL1         0.6132
       2    O1      23.549410   17.852487   22.201113 O.co2      1 MOL1        -0.6749
       3    O2      22.989971   18.124048   24.250610 O.co2      1 MOL1        -0.6749
       4    C2      21.308399   17.404021   22.765484 C.3        1 MOL1        -0.1955
       5    H1      20.838892   17.027764   23.682315 H          1 MOL1         0.0733
       6    H2      21.367094   16.561595   22.066639 H          1 MOL1         0.0733
       7    C3      20.492643   18.529119   22.157123 C.2        1 MOL1        -0.1395
       8    H3      20.817198   18.841024   21.165928 H          1 MOL1         0.0816
       9    C4      19.455357   19.114881   22.768376 C.2        1 MOL1        -0.1394
      10    H4      19.162287   18.778702   23.762448 H          1 MOL1         0.0816
      11    C5      18.599700   20.245000   22.221318 C.3        1 MOL1        -0.1826
      12    H5      17.550550   19.920388   22.200904 H          1 MOL1         0.0736
      13    H6      18.633674   21.089421   22.922973 H          1 MOL1         0.0736
      14    C6      18.999472   20.743670   20.815068 C.3        1 MOL1        -0.2882
      15    H7      18.924681   19.936389   20.074727 H          1 MOL1         0.0749
      16    H8      18.337218   21.557627   20.492699 H          1 MOL1         0.0749
      17    H9      20.028682   21.126028   20.810626 H          1 MOL1         0.0749
@<TRIPOS>BOND
    1     1     2    1
    2     1     3    2
    3     1     4    1
    4     4     5    1
    5     4     6    1
    6     4     7    1
    7     7     8    1
    8     7     9    2
    9     9    10    1
   10     9    11    1
   11    11    12    1
   12    11    13    1
   13    11    14    1
   14    14    15    1
   15    14    16    1
   16    14    17    1
@<TRIPOS>SUBSTRUCTURE
       1 MOL1            1 RESIDUE      1      MOL     
@<SCITEGIC>MOL_PROPERTY
VConf Rank
SciTegic.value.IntegerValue
153

@<SCITEGIC>MOL_PROPERTY
Conf_Id
SciTegic.value.IntegerValue
19

@<SCITEGIC>MOL_PROPERTY
Delta U+W
SciTegic.value.DoubleValue
-0.496

@<SCITEGIC>MOL_PROPERTY
U+W
SciTegic.value.DoubleValue
-49.923

@<SCITEGIC>MOL_PROPERTY
Grad RMS
SciTegic.value.DoubleValue
0.000000

@<SCITEGIC>MOL_PROPERTY
U
SciTegic.value.DoubleValue
13.863

@<SCITEGIC>MOL_PROPERTY
W
SciTegic.value.DoubleValue
-63.786

@<SCITEGIC>MOL_PROPERTY
W(PB)
SciTegic.value.DoubleValue
-65.856

@<SCITEGIC>MOL_PROPERTY
W(SA)
SciTegic.value.DoubleValue
2.070

@<SCITEGIC>MOL_PROPERTY
Valence
SciTegic.value.DoubleValue
14.117

@<SCITEGIC>MOL_PROPERTY
Coulomb
SciTegic.value.DoubleValue
-1.228

@<SCITEGIC>MOL_PROPERTY
VdW
SciTegic.value.DoubleValue
0.974

@<SCITEGIC>MOL_PROPERTY
VdW6
SciTegic.value.DoubleValue
-4.885

@<SCITEGIC>MOL_PROPERTY
VdW12
SciTegic.value.DoubleValue
5.859

@<SCITEGIC>MOL_PROPERTY
Bond
SciTegic.value.DoubleValue
0.094

@<SCITEGIC>MOL_PROPERTY
Angle
SciTegic.value.DoubleValue
2.818

@<SCITEGIC>MOL_PROPERTY
Pdih
SciTegic.value.DoubleValue
11.205

@<SCITEGIC>MOL_PROPERTY
Idih
SciTegic.value.DoubleValue
0.000

@<SCITEGIC>MOL_PROPERTY
Tether
SciTegic.value.DoubleValue
0.000

@<TRIPOS>MOLECULE
guest-s20_confgen4.mol2 : confsearch ligand conformer 154
          17          16           1
SMALL
USER_CHARGES
 
@<TRIPOS>ATOM
       1    C1      19.823514   18.560461   25.084787 C.2        1 MOL1         0.6132
       2    O1      20.836237   17.947237   25.358943 O.co2      1 MOL1        -0.6749
       3    O2      19.395441   19.482798   25.750408 O.co2      1 MOL1        -0.6749
       4    C2      19.040640   18.145355   23.845988 C.3        1 MOL1        -0.1955
       5    H1      17.974786   18.167180   24.100866 H          1 MOL1         0.0733
       6    H2      19.293672   17.104022   23.613063 H          1 MOL1         0.0733
       7    C3      19.310826   19.049232   22.658229 C.2        1 MOL1        -0.1395
       8    H3      18.942906   20.070015   22.757492 H          1 MOL1         0.0816
       9    C4      19.956885   18.664711   21.553255 C.2        1 MOL1        -0.1394
      10    H4      20.329090   17.645301   21.456685 H          1 MOL1         0.0816
      11    C5      20.227829   19.568432   20.371217 C.3        1 MOL1        -0.1826
      12    H5      19.943589   19.057947   19.441090 H          1 MOL1         0.0736
      13    H6      19.612957   20.476903   20.433020 H          1 MOL1         0.0736
      14    C6      21.716004   19.963571   20.306454 C.3        1 MOL1        -0.2882
      15    H7      22.353074   19.075152   20.205072 H          1 MOL1         0.0749
      16    H8      21.906925   20.619617   19.447257 H          1 MOL1         0.0749
      17    H9      22.017202   20.498074   21.217095 H          1 MOL1         0.0749
@<TRIPOS>BOND
    1     1     2    1
    2     1     3    2
    3     1     4    1
    4     4     5    1
    5     4     6    1
    6     4     7    1
    7     7     8    1
    8     7     9    2
    9     9    10    1
   10     9    11    1
   11    11    12    1
   12    11    13    1
   13    11    14    1
   14    14    15    1
   15    14    16    1
   16    14    17    1
@<TRIPOS>SUBSTRUCTURE
       1 MOL1            1 RESIDUE      1      MOL     
@<SCITEGIC>MOL_PROPERTY
VConf Rank
SciTegic.value.IntegerValue
154

@<SCITEGIC>MOL_PROPERTY
Conf_Id
SciTegic.value.IntegerValue
7

@<SCITEGIC>MOL_PROPERTY
Delta U+W
SciTegic.value.DoubleValue
-0.041

@<SCITEGIC>MOL_PROPERTY
U+W
SciTegic.value.DoubleValue
-49.468

@<SCITEGIC>MOL_PROPERTY
Grad RMS
SciTegic.value.DoubleValue
0.000000

@<SCITEGIC>MOL_PROPERTY
U
SciTegic.value.DoubleValue
14.121

@<SCITEGIC>MOL_PROPERTY
W
SciTegic.value.DoubleValue
-63.589

@<SCITEGIC>MOL_PROPERTY
W(PB)
SciTegic.value.DoubleValue
-65.660

@<SCITEGIC>MOL_PROPERTY
W(SA)
SciTegic.value.DoubleValue
2.071

@<SCITEGIC>MOL_PROPERTY
Valence
SciTegic.value.DoubleValue
15.230

@<SCITEGIC>MOL_PROPERTY
Coulomb
SciTegic.value.DoubleValue
-1.333

@<SCITEGIC>MOL_PROPERTY
VdW
SciTegic.value.DoubleValue
0.224

@<SCITEGIC>MOL_PROPERTY
VdW6
SciTegic.value.DoubleValue
-4.212

@<SCITEGIC>MOL_PROPERTY
VdW12
SciTegic.value.DoubleValue
4.436

@<SCITEGIC>MOL_PROPERTY
Bond
SciTegic.value.DoubleValue
0.044

@<SCITEGIC>MOL_PROPERTY
Angle
SciTegic.value.DoubleValue
2.230

@<SCITEGIC>MOL_PROPERTY
Pdih
SciTegic.value.DoubleValue
12.956

@<SCITEGIC>MOL_PROPERTY
Idih
SciTegic.value.DoubleValue
0.000

@<SCITEGIC>MOL_PROPERTY
Tether
SciTegic.value.DoubleValue
0.000

@<TRIPOS>MOLECULE
guest-s20_confgen4.mol2 : confsearch ligand conformer 155
          17          16           1
SMALL
USER_CHARGES
 
@<TRIPOS>ATOM
       1    C1      19.921455   17.097343   20.577728 C.2        1 MOL1         0.6132
       2    O1      19.279005   17.575839   19.663785 O.co2      1 MOL1        -0.6749
       3    O2      19.596491   16.086918   21.169776 O.co2      1 MOL1        -0.6749
       4    C2      21.220145   17.786356   20.985456 C.3        1 MOL1        -0.1955
       5    H1      21.655532   18.241370   20.088144 H          1 MOL1         0.0733
       6    H2      21.926481   17.010462   21.302945 H          1 MOL1         0.0733
       7    C3      21.091151   18.837312   22.078950 C.2        1 MOL1        -0.1395
       8    H3      22.029707   19.316466   22.354758 H          1 MOL1         0.0816
       9    C4      19.958529   19.197704   22.693995 C.2        1 MOL1        -0.1394
      10    H4      19.006501   18.735033   22.436485 H          1 MOL1         0.0816
      11    C5      19.884629   20.249610   23.778417 C.3        1 MOL1        -0.1826
      12    H5      19.301441   19.866680   24.626813 H          1 MOL1         0.0736
      13    H6      20.888243   20.477345   24.163189 H          1 MOL1         0.0736
      14    C6      19.235001   21.543759   23.250972 C.3        1 MOL1        -0.2882
      15    H7      19.182706   22.302869   24.042222 H          1 MOL1         0.0749
      16    H8      19.815977   21.959727   22.417286 H          1 MOL1         0.0749
      17    H9      18.214411   21.352279   22.894333 H          1 MOL1         0.0749
@<TRIPOS>BOND
    1     1     2    1
    2     1     3    2
    3     1     4    1
    4     4     5    1
    5     4     6    1
    6     4     7    1
    7     7     8    1
    8     7     9    2
    9     9    10    1
   10     9    11    1
   11    11    12    1
   12    11    13    1
   13    11    14    1
   14    14    15    1
   15    14    16    1
   16    14    17    1
@<TRIPOS>SUBSTRUCTURE
       1 MOL1            1 RESIDUE      1      MOL     
@<SCITEGIC>MOL_PROPERTY
VConf Rank
SciTegic.value.IntegerValue
155

@<SCITEGIC>MOL_PROPERTY
Conf_Id
SciTegic.value.IntegerValue
39

@<SCITEGIC>MOL_PROPERTY
Delta U+W
SciTegic.value.DoubleValue
-0.422

@<SCITEGIC>MOL_PROPERTY
U+W
SciTegic.value.DoubleValue
-49.849

@<SCITEGIC>MOL_PROPERTY
Grad RMS
SciTegic.value.DoubleValue
0.000000

@<SCITEGIC>MOL_PROPERTY
U
SciTegic.value.DoubleValue
14.465

@<SCITEGIC>MOL_PROPERTY
W
SciTegic.value.DoubleValue
-64.314

@<SCITEGIC>MOL_PROPERTY
W(PB)
SciTegic.value.DoubleValue
-66.406

@<SCITEGIC>MOL_PROPERTY
W(SA)
SciTegic.value.DoubleValue
2.093

@<SCITEGIC>MOL_PROPERTY
Valence
SciTegic.value.DoubleValue
14.072

@<SCITEGIC>MOL_PROPERTY
Coulomb
SciTegic.value.DoubleValue
-0.199

@<SCITEGIC>MOL_PROPERTY
VdW
SciTegic.value.DoubleValue
0.592

@<SCITEGIC>MOL_PROPERTY
VdW6
SciTegic.value.DoubleValue
-5.019

@<SCITEGIC>MOL_PROPERTY
VdW12
SciTegic.value.DoubleValue
5.611

@<SCITEGIC>MOL_PROPERTY
Bond
SciTegic.value.DoubleValue
0.085

@<SCITEGIC>MOL_PROPERTY
Angle
SciTegic.value.DoubleValue
2.748

@<SCITEGIC>MOL_PROPERTY
Pdih
SciTegic.value.DoubleValue
11.238

@<SCITEGIC>MOL_PROPERTY
Idih
SciTegic.value.DoubleValue
0.001

@<SCITEGIC>MOL_PROPERTY
Tether
SciTegic.value.DoubleValue
0.000

@<TRIPOS>MOLECULE
guest-s20_confgen4.mol2 : confsearch ligand conformer 156
          17          16           1
SMALL
USER_CHARGES
 
@<TRIPOS>ATOM
       1    C1      21.618013   16.630345   22.973256 C.2        1 MOL1         0.6132
       2    O1      22.801987   16.568477   22.706165 O.co2      1 MOL1        -0.6749
       3    O2      20.856982   15.687954   22.875534 O.co2      1 MOL1        -0.6749
       4    C2      21.060889   17.960881   23.462021 C.3        1 MOL1        -0.1955
       5    H1      21.792187   18.396892   24.152389 H          1 MOL1         0.0733
       6    H2      20.152195   17.760018   24.042166 H          1 MOL1         0.0733
       7    C3      20.778354   18.924930   22.325566 C.2        1 MOL1        -0.1395
       8    H3      21.658326   19.297102   21.801793 H          1 MOL1         0.0816
       9    C4      19.553882   19.314497   21.957962 C.2        1 MOL1        -0.1394
      10    H4      18.674229   18.939643   22.480223 H          1 MOL1         0.0816
      11    C5      19.273866   20.272951   20.822057 C.3        1 MOL1        -0.1826
      12    H5      20.167581   20.397701   20.195216 H          1 MOL1         0.0736
      13    H6      18.489200   19.860165   20.173642 H          1 MOL1         0.0736
      14    C6      18.828748   21.648703   21.355197 C.3        1 MOL1        -0.2882
      15    H7      19.609311   22.093302   21.986587 H          1 MOL1         0.0749
      16    H8      18.626417   22.339594   20.526452 H          1 MOL1         0.0749
      17    H9      17.913547   21.558953   21.955015 H          1 MOL1         0.0749
@<TRIPOS>BOND
    1     1     2    1
    2     1     3    2
    3     1     4    1
    4     4     5    1
    5     4     6    1
    6     4     7    1
    7     7     8    1
    8     7     9    2
    9     9    10    1
   10     9    11    1
   11    11    12    1
   12    11    13    1
   13    11    14    1
   14    14    15    1
   15    14    16    1
   16    14    17    1
@<TRIPOS>SUBSTRUCTURE
       1 MOL1            1 RESIDUE      1      MOL     
@<SCITEGIC>MOL_PROPERTY
VConf Rank
SciTegic.value.IntegerValue
156

@<SCITEGIC>MOL_PROPERTY
Conf_Id
SciTegic.value.IntegerValue
38

@<SCITEGIC>MOL_PROPERTY
Delta U+W
SciTegic.value.DoubleValue
0.000

@<SCITEGIC>MOL_PROPERTY
U+W
SciTegic.value.DoubleValue
-49.427

@<SCITEGIC>MOL_PROPERTY
Grad RMS
SciTegic.value.DoubleValue
0.000000

@<SCITEGIC>MOL_PROPERTY
U
SciTegic.value.DoubleValue
13.666

@<SCITEGIC>MOL_PROPERTY
W
SciTegic.value.DoubleValue
-63.093

@<SCITEGIC>MOL_PROPERTY
W(PB)
SciTegic.value.DoubleValue
-65.225

@<SCITEGIC>MOL_PROPERTY
W(SA)
SciTegic.value.DoubleValue
2.132

@<SCITEGIC>MOL_PROPERTY
Valence
SciTegic.value.DoubleValue
15.226

@<SCITEGIC>MOL_PROPERTY
Coulomb
SciTegic.value.DoubleValue
-1.822

@<SCITEGIC>MOL_PROPERTY
VdW
SciTegic.value.DoubleValue
0.261

@<SCITEGIC>MOL_PROPERTY
VdW6
SciTegic.value.DoubleValue
-4.165

@<SCITEGIC>MOL_PROPERTY
VdW12
SciTegic.value.DoubleValue
4.426

@<SCITEGIC>MOL_PROPERTY
Bond
SciTegic.value.DoubleValue
0.044

@<SCITEGIC>MOL_PROPERTY
Angle
SciTegic.value.DoubleValue
2.229

@<SCITEGIC>MOL_PROPERTY
Pdih
SciTegic.value.DoubleValue
12.953

@<SCITEGIC>MOL_PROPERTY
Idih
SciTegic.value.DoubleValue
0.000

@<SCITEGIC>MOL_PROPERTY
Tether
SciTegic.value.DoubleValue
0.000

@<TRIPOS>MOLECULE
guest-s20_confgen4.mol2 : confsearch ligand conformer 157
          17          16           1
SMALL
USER_CHARGES
 
@<TRIPOS>ATOM
       1    C1      22.089010   17.798006   20.144319 C.2        1 MOL1         0.6132
       2    O1      21.876711   16.602050   20.182210 O.co2      1 MOL1        -0.6749
       3    O2      23.199702   18.280408   20.041312 O.co2      1 MOL1        -0.6749
       4    C2      20.899369   18.745583   20.224676 C.3        1 MOL1        -0.1955
       5    H1      20.006322   18.204260   19.889899 H          1 MOL1         0.0733
       6    H2      21.069174   19.557849   19.508507 H          1 MOL1         0.0733
       7    C3      20.701249   19.312353   21.617610 C.2        1 MOL1        -0.1395
       8    H3      21.479273   19.995677   21.956652 H          1 MOL1         0.0816
       9    C4      19.663472   19.019300   22.407145 C.2        1 MOL1        -0.1394
      10    H4      18.887486   18.333460   22.068725 H          1 MOL1         0.0816
      11    C5      19.469609   19.582333   23.797373 C.3        1 MOL1        -0.1826
      12    H5      19.230816   18.769500   24.496524 H          1 MOL1         0.0736
      13    H6      20.398648   20.045306   24.157598 H          1 MOL1         0.0736
      14    C6      18.337297   20.627549   23.818683 C.3        1 MOL1        -0.2882
      15    H7      17.386365   20.181461   23.499057 H          1 MOL1         0.0749
      16    H8      18.200862   21.031947   24.830085 H          1 MOL1         0.0749
      17    H9      18.566161   21.464060   23.145281 H          1 MOL1         0.0749
@<TRIPOS>BOND
    1     1     2    1
    2     1     3    2
    3     1     4    1
    4     4     5    1
    5     4     6    1
    6     4     7    1
    7     7     8    1
    8     7     9    2
    9     9    10    1
   10     9    11    1
   11    11    12    1
   12    11    13    1
   13    11    14    1
   14    14    15    1
   15    14    16    1
   16    14    17    1
@<TRIPOS>SUBSTRUCTURE
       1 MOL1            1 RESIDUE      1      MOL     
@<SCITEGIC>MOL_PROPERTY
VConf Rank
SciTegic.value.IntegerValue
157

@<SCITEGIC>MOL_PROPERTY
Conf_Id
SciTegic.value.IntegerValue
35

@<SCITEGIC>MOL_PROPERTY
Delta U+W
SciTegic.value.DoubleValue
-0.102

@<SCITEGIC>MOL_PROPERTY
U+W
SciTegic.value.DoubleValue
-49.529

@<SCITEGIC>MOL_PROPERTY
Grad RMS
SciTegic.value.DoubleValue
0.000000

@<SCITEGIC>MOL_PROPERTY
U
SciTegic.value.DoubleValue
13.666

@<SCITEGIC>MOL_PROPERTY
W
SciTegic.value.DoubleValue
-63.195

@<SCITEGIC>MOL_PROPERTY
W(PB)
SciTegic.value.DoubleValue
-65.299

@<SCITEGIC>MOL_PROPERTY
W(SA)
SciTegic.value.DoubleValue
2.103

@<SCITEGIC>MOL_PROPERTY
Valence
SciTegic.value.DoubleValue
15.226

@<SCITEGIC>MOL_PROPERTY
Coulomb
SciTegic.value.DoubleValue
-1.822

@<SCITEGIC>MOL_PROPERTY
VdW
SciTegic.value.DoubleValue
0.261

@<SCITEGIC>MOL_PROPERTY
VdW6
SciTegic.value.DoubleValue
-4.165

@<SCITEGIC>MOL_PROPERTY
VdW12
SciTegic.value.DoubleValue
4.426

@<SCITEGIC>MOL_PROPERTY
Bond
SciTegic.value.DoubleValue
0.044

@<SCITEGIC>MOL_PROPERTY
Angle
SciTegic.value.DoubleValue
2.229

@<SCITEGIC>MOL_PROPERTY
Pdih
SciTegic.value.DoubleValue
12.953

@<SCITEGIC>MOL_PROPERTY
Idih
SciTegic.value.DoubleValue
0.000

@<SCITEGIC>MOL_PROPERTY
Tether
SciTegic.value.DoubleValue
0.000

@<TRIPOS>MOLECULE
guest-s20_confgen4.mol2 : confsearch ligand conformer 158
          17          16           1
SMALL
USER_CHARGES
 
@<TRIPOS>ATOM
       1    C1      23.136935   18.650592   22.315385 C.2        1 MOL1         0.6132
       2    O1      23.425445   18.063484   23.339610 O.co2      1 MOL1        -0.6749
       3    O2      23.582418   18.356115   21.223746 O.co2      1 MOL1        -0.6749
       4    C2      22.171683   19.825027   22.408584 C.3        1 MOL1        -0.1955
       5    H1      22.347419   20.482419   21.548620 H          1 MOL1         0.0733
       6    H2      22.427440   20.397993   23.307366 H          1 MOL1         0.0733
       7    C3      20.722134   19.381660   22.468915 C.2        1 MOL1        -0.1395
       8    H3      20.445138   18.857079   23.381700 H          1 MOL1         0.0816
       9    C4      19.833206   19.598690   21.491461 C.2        1 MOL1        -0.1394
      10    H4      20.148357   20.123567   20.590202 H          1 MOL1         0.0816
      11    C5      18.372476   19.180597   21.483884 C.3        1 MOL1        -0.1826
      12    H5      17.746810   20.072631   21.344876 H          1 MOL1         0.0736
      13    H6      18.186908   18.550004   20.603863 H          1 MOL1         0.0736
      14    C6      17.902803   18.428833   22.748908 C.3        1 MOL1        -0.2882
      15    H7      18.023365   19.051705   23.644953 H          1 MOL1         0.0749
      16    H8      16.841361   18.161482   22.665874 H          1 MOL1         0.0749
      17    H9      18.472967   17.501246   22.890274 H          1 MOL1         0.0749
@<TRIPOS>BOND
    1     1     2    1
    2     1     3    2
    3     1     4    1
    4     4     5    1
    5     4     6    1
    6     4     7    1
    7     7     8    1
    8     7     9    2
    9     9    10    1
   10     9    11    1
   11    11    12    1
   12    11    13    1
   13    11    14    1
   14    14    15    1
   15    14    16    1
   16    14    17    1
@<TRIPOS>SUBSTRUCTURE
       1 MOL1            1 RESIDUE      1      MOL     
@<SCITEGIC>MOL_PROPERTY
VConf Rank
SciTegic.value.IntegerValue
158

@<SCITEGIC>MOL_PROPERTY
Conf_Id
SciTegic.value.IntegerValue
19

@<SCITEGIC>MOL_PROPERTY
Delta U+W
SciTegic.value.DoubleValue
-0.496

@<SCITEGIC>MOL_PROPERTY
U+W
SciTegic.value.DoubleValue
-49.923

@<SCITEGIC>MOL_PROPERTY
Grad RMS
SciTegic.value.DoubleValue
0.000000

@<SCITEGIC>MOL_PROPERTY
U
SciTegic.value.DoubleValue
13.863

@<SCITEGIC>MOL_PROPERTY
W
SciTegic.value.DoubleValue
-63.786

@<SCITEGIC>MOL_PROPERTY
W(PB)
SciTegic.value.DoubleValue
-65.856

@<SCITEGIC>MOL_PROPERTY
W(SA)
SciTegic.value.DoubleValue
2.070

@<SCITEGIC>MOL_PROPERTY
Valence
SciTegic.value.DoubleValue
14.117

@<SCITEGIC>MOL_PROPERTY
Coulomb
SciTegic.value.DoubleValue
-1.228

@<SCITEGIC>MOL_PROPERTY
VdW
SciTegic.value.DoubleValue
0.974

@<SCITEGIC>MOL_PROPERTY
VdW6
SciTegic.value.DoubleValue
-4.885

@<SCITEGIC>MOL_PROPERTY
VdW12
SciTegic.value.DoubleValue
5.859

@<SCITEGIC>MOL_PROPERTY
Bond
SciTegic.value.DoubleValue
0.094

@<SCITEGIC>MOL_PROPERTY
Angle
SciTegic.value.DoubleValue
2.818

@<SCITEGIC>MOL_PROPERTY
Pdih
SciTegic.value.DoubleValue
11.205

@<SCITEGIC>MOL_PROPERTY
Idih
SciTegic.value.DoubleValue
0.000

@<SCITEGIC>MOL_PROPERTY
Tether
SciTegic.value.DoubleValue
0.000

@<TRIPOS>MOLECULE
guest-s20_confgen4.mol2 : confsearch ligand conformer 159
          17          16           1
SMALL
USER_CHARGES
 
@<TRIPOS>ATOM
       1    C1      22.730586   18.137085   23.279574 C.2        1 MOL1         0.6132
       2    O1      22.456819   17.023690   23.682332 O.co2      1 MOL1        -0.6749
       3    O2      23.715561   18.387253   22.613058 O.co2      1 MOL1        -0.6749
       4    C2      21.795548   19.284917   23.637364 C.3        1 MOL1        -0.1955
       5    H1      22.414095   20.148907   23.906451 H          1 MOL1         0.0733
       6    H2      21.232130   19.001677   24.534576 H          1 MOL1         0.0733
       7    C3      20.859990   19.648063   22.499990 C.2        1 MOL1        -0.1395
       8    H3      21.339609   20.086103   21.625174 H          1 MOL1         0.0816
       9    C4      19.537806   19.454491   22.523946 C.2        1 MOL1        -0.1394
      10    H4      19.059407   19.011687   23.396940 H          1 MOL1         0.0816
      11    C5      18.607071   19.814623   21.387559 C.3        1 MOL1        -0.1826
      12    H5      17.745378   20.373687   21.776730 H          1 MOL1         0.0736
      13    H6      19.113691   20.475017   20.670326 H          1 MOL1         0.0736
      14    C6      18.112350   18.551623   20.656072 C.3        1 MOL1        -0.2882
      15    H7      17.567256   17.889966   21.342008 H          1 MOL1         0.0749
      16    H8      17.437776   18.818718   19.832253 H          1 MOL1         0.0749
      17    H9      18.956502   17.988501   20.236569 H          1 MOL1         0.0749
@<TRIPOS>BOND
    1     1     2    1
    2     1     3    2
    3     1     4    1
    4     4     5    1
    5     4     6    1
    6     4     7    1
    7     7     8    1
    8     7     9    2
    9     9    10    1
   10     9    11    1
   11    11    12    1
   12    11    13    1
   13    11    14    1
   14    14    15    1
   15    14    16    1
   16    14    17    1
@<TRIPOS>SUBSTRUCTURE
       1 MOL1            1 RESIDUE      1      MOL     
@<SCITEGIC>MOL_PROPERTY
VConf Rank
SciTegic.value.IntegerValue
159

@<SCITEGIC>MOL_PROPERTY
Conf_Id
SciTegic.value.IntegerValue
7

@<SCITEGIC>MOL_PROPERTY
Delta U+W
SciTegic.value.DoubleValue
-0.041

@<SCITEGIC>MOL_PROPERTY
U+W
SciTegic.value.DoubleValue
-49.468

@<SCITEGIC>MOL_PROPERTY
Grad RMS
SciTegic.value.DoubleValue
0.000000

@<SCITEGIC>MOL_PROPERTY
U
SciTegic.value.DoubleValue
14.121

@<SCITEGIC>MOL_PROPERTY
W
SciTegic.value.DoubleValue
-63.589

@<SCITEGIC>MOL_PROPERTY
W(PB)
SciTegic.value.DoubleValue
-65.660

@<SCITEGIC>MOL_PROPERTY
W(SA)
SciTegic.value.DoubleValue
2.071

@<SCITEGIC>MOL_PROPERTY
Valence
SciTegic.value.DoubleValue
15.230

@<SCITEGIC>MOL_PROPERTY
Coulomb
SciTegic.value.DoubleValue
-1.333

@<SCITEGIC>MOL_PROPERTY
VdW
SciTegic.value.DoubleValue
0.224

@<SCITEGIC>MOL_PROPERTY
VdW6
SciTegic.value.DoubleValue
-4.212

@<SCITEGIC>MOL_PROPERTY
VdW12
SciTegic.value.DoubleValue
4.436

@<SCITEGIC>MOL_PROPERTY
Bond
SciTegic.value.DoubleValue
0.044

@<SCITEGIC>MOL_PROPERTY
Angle
SciTegic.value.DoubleValue
2.230

@<SCITEGIC>MOL_PROPERTY
Pdih
SciTegic.value.DoubleValue
12.956

@<SCITEGIC>MOL_PROPERTY
Idih
SciTegic.value.DoubleValue
0.000

@<SCITEGIC>MOL_PROPERTY
Tether
SciTegic.value.DoubleValue
0.000

@<TRIPOS>MOLECULE
guest-s20_confgen4.mol2 : confsearch ligand conformer 160
          17          16           1
SMALL
USER_CHARGES
 
@<TRIPOS>ATOM
       1    C1      18.210494   17.971030   23.765649 C.2        1 MOL1         0.6132
       2    O1      18.880120   17.566145   24.695520 O.co2      1 MOL1        -0.6749
       3    O2      17.504887   17.253636   23.084072 O.co2      1 MOL1        -0.6749
       4    C2      18.235273   19.464419   23.454600 C.3        1 MOL1        -0.1955
       5    H1      18.381663   20.002182   24.398607 H          1 MOL1         0.0733
       6    H2      17.239041   19.749370   23.096767 H          1 MOL1         0.0733
       7    C3      19.285807   19.908276   22.446509 C.2        1 MOL1        -0.1395
       8    H3      19.286049   20.977610   22.238977 H          1 MOL1         0.0816
       9    C4      20.168290   19.114197   21.828724 C.2        1 MOL1        -0.1394
      10    H4      20.189940   18.041781   22.018956 H          1 MOL1         0.0816
      11    C5      21.193405   19.606594   20.831415 C.3        1 MOL1        -0.1826
      12    H5      21.176838   18.968485   19.937512 H          1 MOL1         0.0736
      13    H6      20.947704   20.623891   20.496912 H          1 MOL1         0.0736
      14    C6      22.608317   19.598473   21.442149 C.3        1 MOL1        -0.2882
      15    H7      23.348108   19.955287   20.713828 H          1 MOL1         0.0749
      16    H8      22.655915   20.250895   22.324008 H          1 MOL1         0.0749
      17    H9      22.895556   18.584801   21.751049 H          1 MOL1         0.0749
@<TRIPOS>BOND
    1     1     2    1
    2     1     3    2
    3     1     4    1
    4     4     5    1
    5     4     6    1
    6     4     7    1
    7     7     8    1
    8     7     9    2
    9     9    10    1
   10     9    11    1
   11    11    12    1
   12    11    13    1
   13    11    14    1
   14    14    15    1
   15    14    16    1
   16    14    17    1
@<TRIPOS>SUBSTRUCTURE
       1 MOL1            1 RESIDUE      1      MOL     
@<SCITEGIC>MOL_PROPERTY
VConf Rank
SciTegic.value.IntegerValue
160

@<SCITEGIC>MOL_PROPERTY
Conf_Id
SciTegic.value.IntegerValue
39

@<SCITEGIC>MOL_PROPERTY
Delta U+W
SciTegic.value.DoubleValue
-0.422

@<SCITEGIC>MOL_PROPERTY
U+W
SciTegic.value.DoubleValue
-49.849

@<SCITEGIC>MOL_PROPERTY
Grad RMS
SciTegic.value.DoubleValue
0.000000

@<SCITEGIC>MOL_PROPERTY
U
SciTegic.value.DoubleValue
14.465

@<SCITEGIC>MOL_PROPERTY
W
SciTegic.value.DoubleValue
-64.314

@<SCITEGIC>MOL_PROPERTY
W(PB)
SciTegic.value.DoubleValue
-66.406

@<SCITEGIC>MOL_PROPERTY
W(SA)
SciTegic.value.DoubleValue
2.093

@<SCITEGIC>MOL_PROPERTY
Valence
SciTegic.value.DoubleValue
14.072

@<SCITEGIC>MOL_PROPERTY
Coulomb
SciTegic.value.DoubleValue
-0.199

@<SCITEGIC>MOL_PROPERTY
VdW
SciTegic.value.DoubleValue
0.592

@<SCITEGIC>MOL_PROPERTY
VdW6
SciTegic.value.DoubleValue
-5.019

@<SCITEGIC>MOL_PROPERTY
VdW12
SciTegic.value.DoubleValue
5.611

@<SCITEGIC>MOL_PROPERTY
Bond
SciTegic.value.DoubleValue
0.085

@<SCITEGIC>MOL_PROPERTY
Angle
SciTegic.value.DoubleValue
2.748

@<SCITEGIC>MOL_PROPERTY
Pdih
SciTegic.value.DoubleValue
11.238

@<SCITEGIC>MOL_PROPERTY
Idih
SciTegic.value.DoubleValue
0.001

@<SCITEGIC>MOL_PROPERTY
Tether
SciTegic.value.DoubleValue
0.000

@<TRIPOS>MOLECULE
guest-s20_confgen4.mol2 : confsearch ligand conformer 161
          17          16           1
SMALL
USER_CHARGES
 
@<TRIPOS>ATOM
       1    C1      18.408580   21.830840   22.870726 C.2        1 MOL1         0.6132
       2    O1      17.206967   21.675379   22.965167 O.co2      1 MOL1        -0.6749
       3    O2      18.921944   22.813251   22.372585 O.co2      1 MOL1        -0.6749
       4    C2      19.318821   20.736086   23.411631 C.3        1 MOL1        -0.1955
       5    H1      18.894043   20.385104   24.359199 H          1 MOL1         0.0733
       6    H2      20.293129   21.183144   23.642942 H          1 MOL1         0.0733
       7    C3      19.468522   19.575588   22.446447 C.2        1 MOL1        -0.1395
       8    H3      18.569024   18.980510   22.291574 H          1 MOL1         0.0816
       9    C4      20.602650   19.270830   21.808401 C.2        1 MOL1        -0.1394
      10    H4      21.500933   19.868094   21.961450 H          1 MOL1         0.0816
      11    C5      20.749047   18.115528   20.843430 C.3        1 MOL1        -0.1826
      12    H5      19.761977   17.732690   20.549581 H          1 MOL1         0.0736
      13    H6      21.239825   18.460891   19.923432 H          1 MOL1         0.0736
      14    C6      21.573837   16.973309   21.468025 C.3        1 MOL1        -0.2882
      15    H7      21.088496   16.593812   22.376886 H          1 MOL1         0.0749
      16    H8      21.677187   16.138239   20.762998 H          1 MOL1         0.0749
      17    H9      22.580729   17.318815   21.736767 H          1 MOL1         0.0749
@<TRIPOS>BOND
    1     1     2    1
    2     1     3    2
    3     1     4    1
    4     4     5    1
    5     4     6    1
    6     4     7    1
    7     7     8    1
    8     7     9    2
    9     9    10    1
   10     9    11    1
   11    11    12    1
   12    11    13    1
   13    11    14    1
   14    14    15    1
   15    14    16    1
   16    14    17    1
@<TRIPOS>SUBSTRUCTURE
       1 MOL1            1 RESIDUE      1      MOL     
@<SCITEGIC>MOL_PROPERTY
VConf Rank
SciTegic.value.IntegerValue
161

@<SCITEGIC>MOL_PROPERTY
Conf_Id
SciTegic.value.IntegerValue
38

@<SCITEGIC>MOL_PROPERTY
Delta U+W
SciTegic.value.DoubleValue
0.000

@<SCITEGIC>MOL_PROPERTY
U+W
SciTegic.value.DoubleValue
-49.427

@<SCITEGIC>MOL_PROPERTY
Grad RMS
SciTegic.value.DoubleValue
0.000000

@<SCITEGIC>MOL_PROPERTY
U
SciTegic.value.DoubleValue
13.666

@<SCITEGIC>MOL_PROPERTY
W
SciTegic.value.DoubleValue
-63.093

@<SCITEGIC>MOL_PROPERTY
W(PB)
SciTegic.value.DoubleValue
-65.225

@<SCITEGIC>MOL_PROPERTY
W(SA)
SciTegic.value.DoubleValue
2.132

@<SCITEGIC>MOL_PROPERTY
Valence
SciTegic.value.DoubleValue
15.226

@<SCITEGIC>MOL_PROPERTY
Coulomb
SciTegic.value.DoubleValue
-1.822

@<SCITEGIC>MOL_PROPERTY
VdW
SciTegic.value.DoubleValue
0.261

@<SCITEGIC>MOL_PROPERTY
VdW6
SciTegic.value.DoubleValue
-4.165

@<SCITEGIC>MOL_PROPERTY
VdW12
SciTegic.value.DoubleValue
4.426

@<SCITEGIC>MOL_PROPERTY
Bond
SciTegic.value.DoubleValue
0.044

@<SCITEGIC>MOL_PROPERTY
Angle
SciTegic.value.DoubleValue
2.229

@<SCITEGIC>MOL_PROPERTY
Pdih
SciTegic.value.DoubleValue
12.953

@<SCITEGIC>MOL_PROPERTY
Idih
SciTegic.value.DoubleValue
0.000

@<SCITEGIC>MOL_PROPERTY
Tether
SciTegic.value.DoubleValue
0.000

@<TRIPOS>MOLECULE
guest-s20_confgen4.mol2 : confsearch ligand conformer 162
          17          16           1
SMALL
USER_CHARGES
 
@<TRIPOS>ATOM
       1    C1      18.371089   18.606776   24.681656 C.2        1 MOL1         0.6132
       2    O1      18.055856   19.646151   25.226766 O.co2      1 MOL1        -0.6749
       3    O2      18.666528   17.594149   25.285198 O.co2      1 MOL1        -0.6749
       4    C2      18.392477   18.567272   23.159294 C.3        1 MOL1        -0.1955
       5    H1      17.725322   19.353650   22.786260 H          1 MOL1         0.0733
       6    H2      17.965943   17.608317   22.843095 H          1 MOL1         0.0733
       7    C3      19.790784   18.727108   22.593667 C.2        1 MOL1        -0.1395
       8    H3      20.469313   17.897377   22.789488 H          1 MOL1         0.0816
       9    C4      20.203711   19.793279   21.901569 C.2        1 MOL1        -0.1394
      10    H4      19.525633   20.624021   21.708853 H          1 MOL1         0.0816
      11    C5      21.599589   19.952683   21.341715 C.3        1 MOL1        -0.1826
      12    H5      21.993178   20.944072   21.603950 H          1 MOL1         0.0736
      13    H6      22.279803   19.214938   21.789220 H          1 MOL1         0.0736
      14    C6      21.604062   19.786989   19.809531 C.3        1 MOL1        -0.2882
      15    H7      20.960756   20.537968   19.332440 H          1 MOL1         0.0749
      16    H8      22.619396   19.904395   19.409033 H          1 MOL1         0.0749
      17    H9      21.238087   18.791956   19.523922 H          1 MOL1         0.0749
@<TRIPOS>BOND
    1     1     2    1
    2     1     3    2
    3     1     4    1
    4     4     5    1
    5     4     6    1
    6     4     7    1
    7     7     8    1
    8     7     9    2
    9     9    10    1
   10     9    11    1
   11    11    12    1
   12    11    13    1
   13    11    14    1
   14    14    15    1
   15    14    16    1
   16    14    17    1
@<TRIPOS>SUBSTRUCTURE
       1 MOL1            1 RESIDUE      1      MOL     
@<SCITEGIC>MOL_PROPERTY
VConf Rank
SciTegic.value.IntegerValue
162

@<SCITEGIC>MOL_PROPERTY
Conf_Id
SciTegic.value.IntegerValue
35

@<SCITEGIC>MOL_PROPERTY
Delta U+W
SciTegic.value.DoubleValue
-0.102

@<SCITEGIC>MOL_PROPERTY
U+W
SciTegic.value.DoubleValue
-49.529

@<SCITEGIC>MOL_PROPERTY
Grad RMS
SciTegic.value.DoubleValue
0.000000

@<SCITEGIC>MOL_PROPERTY
U
SciTegic.value.DoubleValue
13.666

@<SCITEGIC>MOL_PROPERTY
W
SciTegic.value.DoubleValue
-63.195

@<SCITEGIC>MOL_PROPERTY
W(PB)
SciTegic.value.DoubleValue
-65.299

@<SCITEGIC>MOL_PROPERTY
W(SA)
SciTegic.value.DoubleValue
2.103

@<SCITEGIC>MOL_PROPERTY
Valence
SciTegic.value.DoubleValue
15.226

@<SCITEGIC>MOL_PROPERTY
Coulomb
SciTegic.value.DoubleValue
-1.822

@<SCITEGIC>MOL_PROPERTY
VdW
SciTegic.value.DoubleValue
0.261

@<SCITEGIC>MOL_PROPERTY
VdW6
SciTegic.value.DoubleValue
-4.165

@<SCITEGIC>MOL_PROPERTY
VdW12
SciTegic.value.DoubleValue
4.426

@<SCITEGIC>MOL_PROPERTY
Bond
SciTegic.value.DoubleValue
0.044

@<SCITEGIC>MOL_PROPERTY
Angle
SciTegic.value.DoubleValue
2.229

@<SCITEGIC>MOL_PROPERTY
Pdih
SciTegic.value.DoubleValue
12.953

@<SCITEGIC>MOL_PROPERTY
Idih
SciTegic.value.DoubleValue
0.000

@<SCITEGIC>MOL_PROPERTY
Tether
SciTegic.value.DoubleValue
0.000

@<TRIPOS>MOLECULE
guest-s20_confgen4.mol2 : confsearch ligand conformer 163
          17          16           1
SMALL
USER_CHARGES
 
@<TRIPOS>ATOM
       1    C1      22.074757   19.961020   20.074323 C.2        1 MOL1         0.6132
       2    O1      22.414194   21.112543   20.263396 O.co2      1 MOL1        -0.6749
       3    O2      22.848138   19.073275   19.773260 O.co2      1 MOL1        -0.6749
       4    C2      20.597895   19.615769   20.213516 C.3        1 MOL1        -0.1955
       5    H1      20.398531   18.716112   19.618994 H          1 MOL1         0.0733
       6    H2      20.019676   20.431375   19.764115 H          1 MOL1         0.0733
       7    C3      20.181803   19.417640   21.658859 C.2        1 MOL1        -0.1395
       8    H3      20.206528   20.320508   22.266566 H          1 MOL1         0.0816
       9    C4      19.814289   18.238367   22.175541 C.2        1 MOL1        -0.1394
      10    H4      19.806044   17.355296   21.537418 H          1 MOL1         0.0816
      11    C5      19.390850   17.968181   23.609518 C.3        1 MOL1        -0.1826
      12    H5      18.383526   17.530232   23.607538 H          1 MOL1         0.0736
      13    H6      20.046969   17.197109   24.035518 H          1 MOL1         0.0736
      14    C6      19.400285   19.204055   24.536101 C.3        1 MOL1        -0.2882
      15    H7      18.711998   19.976791   24.169301 H          1 MOL1         0.0749
      16    H8      19.084738   18.927048   25.550363 H          1 MOL1         0.0749
      17    H9      20.406643   19.637801   24.603894 H          1 MOL1         0.0749
@<TRIPOS>BOND
    1     1     2    1
    2     1     3    2
    3     1     4    1
    4     4     5    1
    5     4     6    1
    6     4     7    1
    7     7     8    1
    8     7     9    2
    9     9    10    1
   10     9    11    1
   11    11    12    1
   12    11    13    1
   13    11    14    1
   14    14    15    1
   15    14    16    1
   16    14    17    1
@<TRIPOS>SUBSTRUCTURE
       1 MOL1            1 RESIDUE      1      MOL     
@<SCITEGIC>MOL_PROPERTY
VConf Rank
SciTegic.value.IntegerValue
163

@<SCITEGIC>MOL_PROPERTY
Conf_Id
SciTegic.value.IntegerValue
19

@<SCITEGIC>MOL_PROPERTY
Delta U+W
SciTegic.value.DoubleValue
-0.496

@<SCITEGIC>MOL_PROPERTY
U+W
SciTegic.value.DoubleValue
-49.923

@<SCITEGIC>MOL_PROPERTY
Grad RMS
SciTegic.value.DoubleValue
0.000000

@<SCITEGIC>MOL_PROPERTY
U
SciTegic.value.DoubleValue
13.863

@<SCITEGIC>MOL_PROPERTY
W
SciTegic.value.DoubleValue
-63.786

@<SCITEGIC>MOL_PROPERTY
W(PB)
SciTegic.value.DoubleValue
-65.856

@<SCITEGIC>MOL_PROPERTY
W(SA)
SciTegic.value.DoubleValue
2.070

@<SCITEGIC>MOL_PROPERTY
Valence
SciTegic.value.DoubleValue
14.117

@<SCITEGIC>MOL_PROPERTY
Coulomb
SciTegic.value.DoubleValue
-1.228

@<SCITEGIC>MOL_PROPERTY
VdW
SciTegic.value.DoubleValue
0.974

@<SCITEGIC>MOL_PROPERTY
VdW6
SciTegic.value.DoubleValue
-4.885

@<SCITEGIC>MOL_PROPERTY
VdW12
SciTegic.value.DoubleValue
5.859

@<SCITEGIC>MOL_PROPERTY
Bond
SciTegic.value.DoubleValue
0.094

@<SCITEGIC>MOL_PROPERTY
Angle
SciTegic.value.DoubleValue
2.818

@<SCITEGIC>MOL_PROPERTY
Pdih
SciTegic.value.DoubleValue
11.205

@<SCITEGIC>MOL_PROPERTY
Idih
SciTegic.value.DoubleValue
0.000

@<SCITEGIC>MOL_PROPERTY
Tether
SciTegic.value.DoubleValue
0.000

@<TRIPOS>MOLECULE
guest-s20_confgen4.mol2 : confsearch ligand conformer 164
          17          16           1
SMALL
USER_CHARGES
 
@<TRIPOS>ATOM
       1    C1      21.055848   16.678017   23.667126 C.2        1 MOL1         0.6132
       2    O1      22.262482   16.821877   23.679398 O.co2      1 MOL1        -0.6749
       3    O2      20.406593   16.363659   24.645211 O.co2      1 MOL1        -0.6749
       4    C2      20.316094   16.892339   22.353103 C.3        1 MOL1        -0.1955
       5    H1      19.563673   16.100739   22.259742 H          1 MOL1         0.0733
       6    H2      21.029412   16.755636   21.531431 H          1 MOL1         0.0733
       7    C3      19.652089   18.253910   22.275742 C.2        1 MOL1        -0.1395
       8    H3      18.821907   18.406246   22.964805 H          1 MOL1         0.0816
       9    C4      20.030989   19.228237   21.443072 C.2        1 MOL1        -0.1394
      10    H4      20.864493   19.077154   20.757869 H          1 MOL1         0.0816
      11    C5      19.369383   20.586255   21.369576 C.3        1 MOL1        -0.1826
      12    H5      19.159283   20.840366   20.321813 H          1 MOL1         0.0736
      13    H6      18.402153   20.571323   21.890585 H          1 MOL1         0.0736
      14    C6      20.266924   21.673445   21.992015 C.3        1 MOL1        -0.2882
      15    H7      21.227846   21.737190   21.464766 H          1 MOL1         0.0749
      16    H8      19.781881   22.656660   21.936429 H          1 MOL1         0.0749
      17    H9      20.470528   21.452956   23.048240 H          1 MOL1         0.0749
@<TRIPOS>BOND
    1     1     2    1
    2     1     3    2
    3     1     4    1
    4     4     5    1
    5     4     6    1
    6     4     7    1
    7     7     8    1
    8     7     9    2
    9     9    10    1
   10     9    11    1
   11    11    12    1
   12    11    13    1
   13    11    14    1
   14    14    15    1
   15    14    16    1
   16    14    17    1
@<TRIPOS>SUBSTRUCTURE
       1 MOL1            1 RESIDUE      1      MOL     
@<SCITEGIC>MOL_PROPERTY
VConf Rank
SciTegic.value.IntegerValue
164

@<SCITEGIC>MOL_PROPERTY
Conf_Id
SciTegic.value.IntegerValue
7

@<SCITEGIC>MOL_PROPERTY
Delta U+W
SciTegic.value.DoubleValue
-0.041

@<SCITEGIC>MOL_PROPERTY
U+W
SciTegic.value.DoubleValue
-49.468

@<SCITEGIC>MOL_PROPERTY
Grad RMS
SciTegic.value.DoubleValue
0.000000

@<SCITEGIC>MOL_PROPERTY
U
SciTegic.value.DoubleValue
14.121

@<SCITEGIC>MOL_PROPERTY
W
SciTegic.value.DoubleValue
-63.589

@<SCITEGIC>MOL_PROPERTY
W(PB)
SciTegic.value.DoubleValue
-65.660

@<SCITEGIC>MOL_PROPERTY
W(SA)
SciTegic.value.DoubleValue
2.071

@<SCITEGIC>MOL_PROPERTY
Valence
SciTegic.value.DoubleValue
15.230

@<SCITEGIC>MOL_PROPERTY
Coulomb
SciTegic.value.DoubleValue
-1.333

@<SCITEGIC>MOL_PROPERTY
VdW
SciTegic.value.DoubleValue
0.224

@<SCITEGIC>MOL_PROPERTY
VdW6
SciTegic.value.DoubleValue
-4.212

@<SCITEGIC>MOL_PROPERTY
VdW12
SciTegic.value.DoubleValue
4.436

@<SCITEGIC>MOL_PROPERTY
Bond
SciTegic.value.DoubleValue
0.044

@<SCITEGIC>MOL_PROPERTY
Angle
SciTegic.value.DoubleValue
2.230

@<SCITEGIC>MOL_PROPERTY
Pdih
SciTegic.value.DoubleValue
12.956

@<SCITEGIC>MOL_PROPERTY
Idih
SciTegic.value.DoubleValue
0.000

@<SCITEGIC>MOL_PROPERTY
Tether
SciTegic.value.DoubleValue
0.000

@<TRIPOS>MOLECULE
guest-s20_confgen4.mol2 : confsearch ligand conformer 165
          17          16           1
SMALL
USER_CHARGES
 
@<TRIPOS>ATOM
       1    C1      17.603890   18.833140   23.292389 C.2        1 MOL1         0.6132
       2    O1      16.910829   19.224529   22.373981 O.co2      1 MOL1        -0.6749
       3    O2      17.496161   19.236389   24.433821 O.co2      1 MOL1        -0.6749
       4    C2      18.646414   17.757631   23.002560 C.3        1 MOL1        -0.1955
       5    H1      18.258546   17.121246   22.198607 H          1 MOL1         0.0733
       6    H2      18.720027   17.114395   23.887179 H          1 MOL1         0.0733
       7    C3      20.030121   18.268215   22.626348 C.2        1 MOL1        -0.1395
       8    H3      20.758730   17.484224   22.423779 H          1 MOL1         0.0816
       9    C4      20.395490   19.552024   22.529728 C.2        1 MOL1        -0.1394
      10    H4      19.686305   20.355296   22.726053 H          1 MOL1         0.0816
      11    C5      21.787723   20.007427   22.152583 C.3        1 MOL1        -0.1826
      12    H5      22.129694   20.776666   22.858165 H          1 MOL1         0.0736
      13    H6      22.499093   19.173386   22.226628 H          1 MOL1         0.0736
      14    C6      21.815348   20.575498   20.720253 C.3        1 MOL1        -0.2882
      15    H7      22.827466   20.905603   20.452474 H          1 MOL1         0.0749
      16    H8      21.501252   19.814985   19.993233 H          1 MOL1         0.0749
      17    H9      21.140316   21.436418   20.627474 H          1 MOL1         0.0749
@<TRIPOS>BOND
    1     1     2    1
    2     1     3    2
    3     1     4    1
    4     4     5    1
    5     4     6    1
    6     4     7    1
    7     7     8    1
    8     7     9    2
    9     9    10    1
   10     9    11    1
   11    11    12    1
   12    11    13    1
   13    11    14    1
   14    14    15    1
   15    14    16    1
   16    14    17    1
@<TRIPOS>SUBSTRUCTURE
       1 MOL1            1 RESIDUE      1      MOL     
@<SCITEGIC>MOL_PROPERTY
VConf Rank
SciTegic.value.IntegerValue
165

@<SCITEGIC>MOL_PROPERTY
Conf_Id
SciTegic.value.IntegerValue
39

@<SCITEGIC>MOL_PROPERTY
Delta U+W
SciTegic.value.DoubleValue
-0.422

@<SCITEGIC>MOL_PROPERTY
U+W
SciTegic.value.DoubleValue
-49.849

@<SCITEGIC>MOL_PROPERTY
Grad RMS
SciTegic.value.DoubleValue
0.000000

@<SCITEGIC>MOL_PROPERTY
U
SciTegic.value.DoubleValue
14.465

@<SCITEGIC>MOL_PROPERTY
W
SciTegic.value.DoubleValue
-64.314

@<SCITEGIC>MOL_PROPERTY
W(PB)
SciTegic.value.DoubleValue
-66.406

@<SCITEGIC>MOL_PROPERTY
W(SA)
SciTegic.value.DoubleValue
2.093

@<SCITEGIC>MOL_PROPERTY
Valence
SciTegic.value.DoubleValue
14.072

@<SCITEGIC>MOL_PROPERTY
Coulomb
SciTegic.value.DoubleValue
-0.199

@<SCITEGIC>MOL_PROPERTY
VdW
SciTegic.value.DoubleValue
0.592

@<SCITEGIC>MOL_PROPERTY
VdW6
SciTegic.value.DoubleValue
-5.019

@<SCITEGIC>MOL_PROPERTY
VdW12
SciTegic.value.DoubleValue
5.611

@<SCITEGIC>MOL_PROPERTY
Bond
SciTegic.value.DoubleValue
0.085

@<SCITEGIC>MOL_PROPERTY
Angle
SciTegic.value.DoubleValue
2.748

@<SCITEGIC>MOL_PROPERTY
Pdih
SciTegic.value.DoubleValue
11.238

@<SCITEGIC>MOL_PROPERTY
Idih
SciTegic.value.DoubleValue
0.001

@<SCITEGIC>MOL_PROPERTY
Tether
SciTegic.value.DoubleValue
0.000

@<TRIPOS>MOLECULE
guest-s20_confgen4.mol2 : confsearch ligand conformer 166
          17          16           1
SMALL
USER_CHARGES
 
@<TRIPOS>ATOM
       1    C1      22.200026   21.646931   22.218396 C.2        1 MOL1         0.6132
       2    O1      21.753266   22.770376   22.094955 O.co2      1 MOL1        -0.6749
       3    O2      23.244751   21.280430   21.717350 O.co2      1 MOL1        -0.6749
       4    C2      21.408620   20.647110   23.051246 C.3        1 MOL1        -0.1955
       5    H1      21.025711   21.174252   23.932728 H          1 MOL1         0.0733
       6    H2      22.101248   19.877813   23.413308 H          1 MOL1         0.0733
       7    C3      20.261814   20.025354   22.277295 C.2        1 MOL1        -0.1395
       8    H3      19.450232   20.705936   22.021670 H          1 MOL1         0.0816
       9    C4      20.211103   18.740602   21.912510 C.2        1 MOL1        -0.1394
      10    H4      21.024367   18.061284   22.165865 H          1 MOL1         0.0816
      11    C5      19.068494   18.123233   21.137513 C.3        1 MOL1        -0.1826
      12    H5      18.430487   18.905962   20.704497 H          1 MOL1         0.0736
      13    H6      19.464454   17.538217   20.296378 H          1 MOL1         0.0736
      14    C6      18.215287   17.211579   22.040832 C.3        1 MOL1        -0.2882
      15    H7      17.787004   17.781079   22.876204 H          1 MOL1         0.0749
      16    H8      17.388268   16.766036   21.472838 H          1 MOL1         0.0749
      17    H9      18.820581   16.395916   22.457655 H          1 MOL1         0.0749
@<TRIPOS>BOND
    1     1     2    1
    2     1     3    2
    3     1     4    1
    4     4     5    1
    5     4     6    1
    6     4     7    1
    7     7     8    1
    8     7     9    2
    9     9    10    1
   10     9    11    1
   11    11    12    1
   12    11    13    1
   13    11    14    1
   14    14    15    1
   15    14    16    1
   16    14    17    1
@<TRIPOS>SUBSTRUCTURE
       1 MOL1            1 RESIDUE      1      MOL     
@<SCITEGIC>MOL_PROPERTY
VConf Rank
SciTegic.value.IntegerValue
166

@<SCITEGIC>MOL_PROPERTY
Conf_Id
SciTegic.value.IntegerValue
38

@<SCITEGIC>MOL_PROPERTY
Delta U+W
SciTegic.value.DoubleValue
0.000

@<SCITEGIC>MOL_PROPERTY
U+W
SciTegic.value.DoubleValue
-49.427

@<SCITEGIC>MOL_PROPERTY
Grad RMS
SciTegic.value.DoubleValue
0.000000

@<SCITEGIC>MOL_PROPERTY
U
SciTegic.value.DoubleValue
13.666

@<SCITEGIC>MOL_PROPERTY
W
SciTegic.value.DoubleValue
-63.093

@<SCITEGIC>MOL_PROPERTY
W(PB)
SciTegic.value.DoubleValue
-65.225

@<SCITEGIC>MOL_PROPERTY
W(SA)
SciTegic.value.DoubleValue
2.132

@<SCITEGIC>MOL_PROPERTY
Valence
SciTegic.value.DoubleValue
15.226

@<SCITEGIC>MOL_PROPERTY
Coulomb
SciTegic.value.DoubleValue
-1.822

@<SCITEGIC>MOL_PROPERTY
VdW
SciTegic.value.DoubleValue
0.261

@<SCITEGIC>MOL_PROPERTY
VdW6
SciTegic.value.DoubleValue
-4.165

@<SCITEGIC>MOL_PROPERTY
VdW12
SciTegic.value.DoubleValue
4.426

@<SCITEGIC>MOL_PROPERTY
Bond
SciTegic.value.DoubleValue
0.044

@<SCITEGIC>MOL_PROPERTY
Angle
SciTegic.value.DoubleValue
2.229

@<SCITEGIC>MOL_PROPERTY
Pdih
SciTegic.value.DoubleValue
12.953

@<SCITEGIC>MOL_PROPERTY
Idih
SciTegic.value.DoubleValue
0.000

@<SCITEGIC>MOL_PROPERTY
Tether
SciTegic.value.DoubleValue
0.000

@<TRIPOS>MOLECULE
guest-s20_confgen4.mol2 : confsearch ligand conformer 167
          17          16           1
SMALL
USER_CHARGES
 
@<TRIPOS>ATOM
       1    C1      20.237034   17.422198   24.671724 C.2        1 MOL1         0.6132
       2    O1      20.305209   18.123283   25.662002 O.co2      1 MOL1        -0.6749
       3    O2      20.834872   16.371131   24.550037 O.co2      1 MOL1        -0.6749
       4    C2      19.350443   17.881172   23.521549 C.3        1 MOL1        -0.1955
       5    H1      18.590754   18.561774   23.924405 H          1 MOL1         0.0733
       6    H2      18.821166   17.002413   23.135343 H          1 MOL1         0.0733
       7    C3      20.139502   18.544545   22.408864 C.2        1 MOL1        -0.1395
       8    H3      20.803204   17.884000   21.851746 H          1 MOL1         0.0816
       9    C4      20.058989   19.842817   22.101883 C.2        1 MOL1        -0.1394
      10    H4      19.397492   20.503396   22.661453 H          1 MOL1         0.0816
      11    C5      20.849520   20.503353   20.994602 C.3        1 MOL1        -0.1826
      12    H5      21.320192   21.421302   21.371923 H          1 MOL1         0.0736
      13    H6      21.663849   19.846454   20.659085 H          1 MOL1         0.0736
      14    C6      19.943708   20.845850   19.795744 C.3        1 MOL1        -0.2882
      15    H7      19.141488   21.533235   20.094700 H          1 MOL1         0.0749
      16    H8      20.522718   21.325481   18.995877 H          1 MOL1         0.0749
      17    H9      19.481386   19.938701   19.384722 H          1 MOL1         0.0749
@<TRIPOS>BOND
    1     1     2    1
    2     1     3    2
    3     1     4    1
    4     4     5    1
    5     4     6    1
    6     4     7    1
    7     7     8    1
    8     7     9    2
    9     9    10    1
   10     9    11    1
   11    11    12    1
   12    11    13    1
   13    11    14    1
   14    14    15    1
   15    14    16    1
   16    14    17    1
@<TRIPOS>SUBSTRUCTURE
       1 MOL1            1 RESIDUE      1      MOL     
@<SCITEGIC>MOL_PROPERTY
VConf Rank
SciTegic.value.IntegerValue
167

@<SCITEGIC>MOL_PROPERTY
Conf_Id
SciTegic.value.IntegerValue
35

@<SCITEGIC>MOL_PROPERTY
Delta U+W
SciTegic.value.DoubleValue
-0.102

@<SCITEGIC>MOL_PROPERTY
U+W
SciTegic.value.DoubleValue
-49.529

@<SCITEGIC>MOL_PROPERTY
Grad RMS
SciTegic.value.DoubleValue
0.000000

@<SCITEGIC>MOL_PROPERTY
U
SciTegic.value.DoubleValue
13.666

@<SCITEGIC>MOL_PROPERTY
W
SciTegic.value.DoubleValue
-63.195

@<SCITEGIC>MOL_PROPERTY
W(PB)
SciTegic.value.DoubleValue
-65.299

@<SCITEGIC>MOL_PROPERTY
W(SA)
SciTegic.value.DoubleValue
2.103

@<SCITEGIC>MOL_PROPERTY
Valence
SciTegic.value.DoubleValue
15.226

@<SCITEGIC>MOL_PROPERTY
Coulomb
SciTegic.value.DoubleValue
-1.822

@<SCITEGIC>MOL_PROPERTY
VdW
SciTegic.value.DoubleValue
0.261

@<SCITEGIC>MOL_PROPERTY
VdW6
SciTegic.value.DoubleValue
-4.165

@<SCITEGIC>MOL_PROPERTY
VdW12
SciTegic.value.DoubleValue
4.426

@<SCITEGIC>MOL_PROPERTY
Bond
SciTegic.value.DoubleValue
0.044

@<SCITEGIC>MOL_PROPERTY
Angle
SciTegic.value.DoubleValue
2.229

@<SCITEGIC>MOL_PROPERTY
Pdih
SciTegic.value.DoubleValue
12.953

@<SCITEGIC>MOL_PROPERTY
Idih
SciTegic.value.DoubleValue
0.000

@<SCITEGIC>MOL_PROPERTY
Tether
SciTegic.value.DoubleValue
0.000

@<TRIPOS>MOLECULE
guest-s20_confgen4.mol2 : confsearch ligand conformer 168
          17          16           1
SMALL
USER_CHARGES
 
@<TRIPOS>ATOM
       1    C1      22.551431   20.190719   23.649621 C.2        1 MOL1         0.6132
       2    O1      23.516265   19.471008   23.482040 O.co2      1 MOL1        -0.6749
       3    O2      22.594973   21.402530   23.569205 O.co2      1 MOL1        -0.6749
       4    C2      21.218145   19.536890   23.988073 C.3        1 MOL1        -0.1955
       5    H1      20.598521   20.273552   24.513410 H          1 MOL1         0.0733
       6    H2      21.414713   18.721816   24.694136 H          1 MOL1         0.0733
       7    C3      20.505915   19.001517   22.760266 C.2        1 MOL1        -0.1395
       8    H3      20.997299   18.155556   22.282792 H          1 MOL1         0.0816
       9    C4      19.366548   19.511305   22.275836 C.2        1 MOL1        -0.1394
      10    H4      18.906022   20.361380   22.778202 H          1 MOL1         0.0816
      11    C5      18.604022   19.029012   21.053324 C.3        1 MOL1        -0.1826
      12    H5      17.580918   18.764081   21.352617 H          1 MOL1         0.0736
      13    H6      18.498081   19.863735   20.347255 H          1 MOL1         0.0736
      14    C6      19.240545   17.827906   20.319696 C.3        1 MOL1        -0.2882
      15    H7      19.312638   16.955019   20.981719 H          1 MOL1         0.0749
      16    H8      18.633302   17.541652   19.451166 H          1 MOL1         0.0749
      17    H9      20.247526   18.075444   19.958860 H          1 MOL1         0.0749
@<TRIPOS>BOND
    1     1     2    1
    2     1     3    2
    3     1     4    1
    4     4     5    1
    5     4     6    1
    6     4     7    1
    7     7     8    1
    8     7     9    2
    9     9    10    1
   10     9    11    1
   11    11    12    1
   12    11    13    1
   13    11    14    1
   14    14    15    1
   15    14    16    1
   16    14    17    1
@<TRIPOS>SUBSTRUCTURE
       1 MOL1            1 RESIDUE      1      MOL     
@<SCITEGIC>MOL_PROPERTY
VConf Rank
SciTegic.value.IntegerValue
168

@<SCITEGIC>MOL_PROPERTY
Conf_Id
SciTegic.value.IntegerValue
19

@<SCITEGIC>MOL_PROPERTY
Delta U+W
SciTegic.value.DoubleValue
-0.496

@<SCITEGIC>MOL_PROPERTY
U+W
SciTegic.value.DoubleValue
-49.923

@<SCITEGIC>MOL_PROPERTY
Grad RMS
SciTegic.value.DoubleValue
0.000000

@<SCITEGIC>MOL_PROPERTY
U
SciTegic.value.DoubleValue
13.863

@<SCITEGIC>MOL_PROPERTY
W
SciTegic.value.DoubleValue
-63.786

@<SCITEGIC>MOL_PROPERTY
W(PB)
SciTegic.value.DoubleValue
-65.856

@<SCITEGIC>MOL_PROPERTY
W(SA)
SciTegic.value.DoubleValue
2.070

@<SCITEGIC>MOL_PROPERTY
Valence
SciTegic.value.DoubleValue
14.117

@<SCITEGIC>MOL_PROPERTY
Coulomb
SciTegic.value.DoubleValue
-1.228

@<SCITEGIC>MOL_PROPERTY
VdW
SciTegic.value.DoubleValue
0.974

@<SCITEGIC>MOL_PROPERTY
VdW6
SciTegic.value.DoubleValue
-4.885

@<SCITEGIC>MOL_PROPERTY
VdW12
SciTegic.value.DoubleValue
5.859

@<SCITEGIC>MOL_PROPERTY
Bond
SciTegic.value.DoubleValue
0.094

@<SCITEGIC>MOL_PROPERTY
Angle
SciTegic.value.DoubleValue
2.818

@<SCITEGIC>MOL_PROPERTY
Pdih
SciTegic.value.DoubleValue
11.205

@<SCITEGIC>MOL_PROPERTY
Idih
SciTegic.value.DoubleValue
0.000

@<SCITEGIC>MOL_PROPERTY
Tether
SciTegic.value.DoubleValue
0.000

@<TRIPOS>MOLECULE
guest-s20_confgen4.mol2 : confsearch ligand conformer 169
          17          16           1
SMALL
USER_CHARGES
 
@<TRIPOS>ATOM
       1    C1      18.766265   19.824175   24.682918 C.2        1 MOL1         0.6132
       2    O1      17.886680   18.988440   24.751398 O.co2      1 MOL1        -0.6749
       3    O2      19.467185   20.140731   25.623931 O.co2      1 MOL1        -0.6749
       4    C2      18.997550   20.521906   23.348936 C.3        1 MOL1        -0.1955
       5    H1      19.165514   21.585787   23.552480 H          1 MOL1         0.0733
       6    H2      18.075655   20.449575   22.759418 H          1 MOL1         0.0733
       7    C3      20.176039   19.944697   22.588176 C.2        1 MOL1        -0.1395
       8    H3      21.151714   20.117252   23.041497 H          1 MOL1         0.0816
       9    C4      20.069819   19.260285   21.445149 C.2        1 MOL1        -0.1394
      10    H4      19.093494   19.083605   20.995001 H          1 MOL1         0.0816
      11    C5      21.245992   18.683037   20.689676 C.3        1 MOL1        -0.1826
      12    H5      21.171168   18.949674   19.626742 H          1 MOL1         0.0736
      13    H6      22.187671   19.113483   21.057324 H          1 MOL1         0.0736
      14    C6      21.296527   17.149397   20.832457 C.3        1 MOL1        -0.2882
      15    H7      20.382021   16.688812   20.436267 H          1 MOL1         0.0749
      16    H8      22.152031   16.735839   20.282776 H          1 MOL1         0.0749
      17    H9      21.396253   16.859312   21.886775 H          1 MOL1         0.0749
@<TRIPOS>BOND
    1     1     2    1
    2     1     3    2
    3     1     4    1
    4     4     5    1
    5     4     6    1
    6     4     7    1
    7     7     8    1
    8     7     9    2
    9     9    10    1
   10     9    11    1
   11    11    12    1
   12    11    13    1
   13    11    14    1
   14    14    15    1
   15    14    16    1
   16    14    17    1
@<TRIPOS>SUBSTRUCTURE
       1 MOL1            1 RESIDUE      1      MOL     
@<SCITEGIC>MOL_PROPERTY
VConf Rank
SciTegic.value.IntegerValue
169

@<SCITEGIC>MOL_PROPERTY
Conf_Id
SciTegic.value.IntegerValue
7

@<SCITEGIC>MOL_PROPERTY
Delta U+W
SciTegic.value.DoubleValue
-0.041

@<SCITEGIC>MOL_PROPERTY
U+W
SciTegic.value.DoubleValue
-49.468

@<SCITEGIC>MOL_PROPERTY
Grad RMS
SciTegic.value.DoubleValue
0.000000

@<SCITEGIC>MOL_PROPERTY
U
SciTegic.value.DoubleValue
14.121

@<SCITEGIC>MOL_PROPERTY
W
SciTegic.value.DoubleValue
-63.589

@<SCITEGIC>MOL_PROPERTY
W(PB)
SciTegic.value.DoubleValue
-65.660

@<SCITEGIC>MOL_PROPERTY
W(SA)
SciTegic.value.DoubleValue
2.071

@<SCITEGIC>MOL_PROPERTY
Valence
SciTegic.value.DoubleValue
15.230

@<SCITEGIC>MOL_PROPERTY
Coulomb
SciTegic.value.DoubleValue
-1.333

@<SCITEGIC>MOL_PROPERTY
VdW
SciTegic.value.DoubleValue
0.224

@<SCITEGIC>MOL_PROPERTY
VdW6
SciTegic.value.DoubleValue
-4.212

@<SCITEGIC>MOL_PROPERTY
VdW12
SciTegic.value.DoubleValue
4.436

@<SCITEGIC>MOL_PROPERTY
Bond
SciTegic.value.DoubleValue
0.044

@<SCITEGIC>MOL_PROPERTY
Angle
SciTegic.value.DoubleValue
2.230

@<SCITEGIC>MOL_PROPERTY
Pdih
SciTegic.value.DoubleValue
12.956

@<SCITEGIC>MOL_PROPERTY
Idih
SciTegic.value.DoubleValue
0.000

@<SCITEGIC>MOL_PROPERTY
Tether
SciTegic.value.DoubleValue
0.000

@<TRIPOS>MOLECULE
guest-s20_confgen4.mol2 : confsearch ligand conformer 170
          17          16           1
SMALL
USER_CHARGES
 
@<TRIPOS>ATOM
       1    C1      19.469102   20.237342   24.768157 C.2        1 MOL1         0.6132
       2    O1      19.023018   19.235032   25.291010 O.co2      1 MOL1        -0.6749
       3    O2      18.863900   21.289615   24.708721 O.co2      1 MOL1        -0.6749
       4    C2      20.875369   20.179612   24.179380 C.3        1 MOL1        -0.1955
       5    H1      21.462671   19.475067   24.779764 H          1 MOL1         0.0733
       6    H2      21.341025   21.161216   24.325460 H          1 MOL1         0.0733
       7    C3      20.957143   19.789585   22.710343 C.2        1 MOL1        -0.1395
       8    H3      21.969716   19.754594   22.310321 H          1 MOL1         0.0816
       9    C4      19.921059   19.498527   21.914849 C.2        1 MOL1        -0.1394
      10    H4      18.898653   19.525082   22.289967 H          1 MOL1         0.0816
      11    C5      20.056767   19.117143   20.457430 C.3        1 MOL1        -0.1826
      12    H5      19.347987   19.700572   19.854304 H          1 MOL1         0.0736
      13    H6      21.061765   19.362112   20.087129 H          1 MOL1         0.0736
      14    C6      19.790067   17.613304   20.251579 C.3        1 MOL1        -0.2882
      15    H7      19.888508   17.342507   19.192316 H          1 MOL1         0.0749
      16    H8      20.504313   17.008626   20.825871 H          1 MOL1         0.0749
      17    H9      18.776344   17.347135   20.578655 H          1 MOL1         0.0749
@<TRIPOS>BOND
    1     1     2    1
    2     1     3    2
    3     1     4    1
    4     4     5    1
    5     4     6    1
    6     4     7    1
    7     7     8    1
    8     7     9    2
    9     9    10    1
   10     9    11    1
   11    11    12    1
   12    11    13    1
   13    11    14    1
   14    14    15    1
   15    14    16    1
   16    14    17    1
@<TRIPOS>SUBSTRUCTURE
       1 MOL1            1 RESIDUE      1      MOL     
@<SCITEGIC>MOL_PROPERTY
VConf Rank
SciTegic.value.IntegerValue
170

@<SCITEGIC>MOL_PROPERTY
Conf_Id
SciTegic.value.IntegerValue
39

@<SCITEGIC>MOL_PROPERTY
Delta U+W
SciTegic.value.DoubleValue
-0.422

@<SCITEGIC>MOL_PROPERTY
U+W
SciTegic.value.DoubleValue
-49.849

@<SCITEGIC>MOL_PROPERTY
Grad RMS
SciTegic.value.DoubleValue
0.000000

@<SCITEGIC>MOL_PROPERTY
U
SciTegic.value.DoubleValue
14.465

@<SCITEGIC>MOL_PROPERTY
W
SciTegic.value.DoubleValue
-64.314

@<SCITEGIC>MOL_PROPERTY
W(PB)
SciTegic.value.DoubleValue
-66.406

@<SCITEGIC>MOL_PROPERTY
W(SA)
SciTegic.value.DoubleValue
2.093

@<SCITEGIC>MOL_PROPERTY
Valence
SciTegic.value.DoubleValue
14.072

@<SCITEGIC>MOL_PROPERTY
Coulomb
SciTegic.value.DoubleValue
-0.199

@<SCITEGIC>MOL_PROPERTY
VdW
SciTegic.value.DoubleValue
0.592

@<SCITEGIC>MOL_PROPERTY
VdW6
SciTegic.value.DoubleValue
-5.019

@<SCITEGIC>MOL_PROPERTY
VdW12
SciTegic.value.DoubleValue
5.611

@<SCITEGIC>MOL_PROPERTY
Bond
SciTegic.value.DoubleValue
0.085

@<SCITEGIC>MOL_PROPERTY
Angle
SciTegic.value.DoubleValue
2.748

@<SCITEGIC>MOL_PROPERTY
Pdih
SciTegic.value.DoubleValue
11.238

@<SCITEGIC>MOL_PROPERTY
Idih
SciTegic.value.DoubleValue
0.001

@<SCITEGIC>MOL_PROPERTY
Tether
SciTegic.value.DoubleValue
0.000

@<TRIPOS>MOLECULE
guest-s20_confgen4.mol2 : confsearch ligand conformer 171
          17          16           1
SMALL
USER_CHARGES
 
@<TRIPOS>ATOM
       1    C1      18.954507   17.338714   24.327918 C.2        1 MOL1         0.6132
       2    O1      17.947772   16.721526   24.040647 O.co2      1 MOL1        -0.6749
       3    O2      19.153856   17.827136   25.422689 O.co2      1 MOL1        -0.6749
       4    C2      20.025682   17.503178   23.257806 C.3        1 MOL1        -0.1955
       5    H1      20.112279   16.551154   22.721465 H          1 MOL1         0.0733
       6    H2      20.985972   17.678245   23.757640 H          1 MOL1         0.0733
       7    C3      19.707417   18.622174   22.284512 C.2        1 MOL1        -0.1395
       8    H3      18.851212   18.443816   21.634663 H          1 MOL1         0.0816
       9    C4      20.399447   19.762315   22.198496 C.2        1 MOL1        -0.1394
      10    H4      21.253683   19.941269   22.850659 H          1 MOL1         0.0816
      11    C5      20.078324   20.878608   21.229945 C.3        1 MOL1        -0.1826
      12    H5      19.076043   20.739571   20.801783 H          1 MOL1         0.0736
      13    H6      20.062920   21.838896   21.762998 H          1 MOL1         0.0736
      14    C6      21.115300   20.939528   20.091512 C.3        1 MOL1        -0.2882
      15    H7      21.130533   19.997752   19.527218 H          1 MOL1         0.0749
      16    H8      20.877407   21.751741   19.392368 H          1 MOL1         0.0749
      17    H9      22.123357   21.116486   20.488923 H          1 MOL1         0.0749
@<TRIPOS>BOND
    1     1     2    1
    2     1     3    2
    3     1     4    1
    4     4     5    1
    5     4     6    1
    6     4     7    1
    7     7     8    1
    8     7     9    2
    9     9    10    1
   10     9    11    1
   11    11    12    1
   12    11    13    1
   13    11    14    1
   14    14    15    1
   15    14    16    1
   16    14    17    1
@<TRIPOS>SUBSTRUCTURE
       1 MOL1            1 RESIDUE      1      MOL     
@<SCITEGIC>MOL_PROPERTY
VConf Rank
SciTegic.value.IntegerValue
171

@<SCITEGIC>MOL_PROPERTY
Conf_Id
SciTegic.value.IntegerValue
38

@<SCITEGIC>MOL_PROPERTY
Delta U+W
SciTegic.value.DoubleValue
0.000

@<SCITEGIC>MOL_PROPERTY
U+W
SciTegic.value.DoubleValue
-49.427

@<SCITEGIC>MOL_PROPERTY
Grad RMS
SciTegic.value.DoubleValue
0.000000

@<SCITEGIC>MOL_PROPERTY
U
SciTegic.value.DoubleValue
13.666

@<SCITEGIC>MOL_PROPERTY
W
SciTegic.value.DoubleValue
-63.093

@<SCITEGIC>MOL_PROPERTY
W(PB)
SciTegic.value.DoubleValue
-65.225

@<SCITEGIC>MOL_PROPERTY
W(SA)
SciTegic.value.DoubleValue
2.132

@<SCITEGIC>MOL_PROPERTY
Valence
SciTegic.value.DoubleValue
15.226

@<SCITEGIC>MOL_PROPERTY
Coulomb
SciTegic.value.DoubleValue
-1.822

@<SCITEGIC>MOL_PROPERTY
VdW
SciTegic.value.DoubleValue
0.261

@<SCITEGIC>MOL_PROPERTY
VdW6
SciTegic.value.DoubleValue
-4.165

@<SCITEGIC>MOL_PROPERTY
VdW12
SciTegic.value.DoubleValue
4.426

@<SCITEGIC>MOL_PROPERTY
Bond
SciTegic.value.DoubleValue
0.044

@<SCITEGIC>MOL_PROPERTY
Angle
SciTegic.value.DoubleValue
2.229

@<SCITEGIC>MOL_PROPERTY
Pdih
SciTegic.value.DoubleValue
12.953

@<SCITEGIC>MOL_PROPERTY
Idih
SciTegic.value.DoubleValue
0.000

@<SCITEGIC>MOL_PROPERTY
Tether
SciTegic.value.DoubleValue
0.000

@<TRIPOS>MOLECULE
guest-s20_confgen4.mol2 : confsearch ligand conformer 172
          17          16           1
SMALL
USER_CHARGES
 
@<TRIPOS>ATOM
       1    C1      18.980307   19.672500   19.167307 C.2        1 MOL1         0.6132
       2    O1      19.191292   20.816970   18.817316 O.co2      1 MOL1        -0.6749
       3    O2      17.974787   19.055232   18.875983 O.co2      1 MOL1        -0.6749
       4    C2      20.034518   18.969766   20.012534 C.3        1 MOL1        -0.1955
       5    H1      21.000335   19.456372   19.830733 H          1 MOL1         0.0733
       6    H2      20.121680   17.938900   19.650283 H          1 MOL1         0.0733
       7    C3      19.692589   18.975319   21.490302 C.2        1 MOL1        -0.1395
       8    H3      18.828828   18.372943   21.770054 H          1 MOL1         0.0816
       9    C4      20.373137   19.657877   22.416151 C.2        1 MOL1        -0.1394
      10    H4      21.234834   20.262558   22.135260 H          1 MOL1         0.0816
      11    C5      20.028335   19.665387   23.888692 C.3        1 MOL1        -0.1826
      12    H5      20.011573   20.698937   24.260211 H          1 MOL1         0.0736
      13    H6      19.021504   19.256063   24.049824 H          1 MOL1         0.0736
      14    C6      21.048753   18.844087   24.700649 C.3        1 MOL1        -0.2882
      15    H7      22.060592   19.255182   24.588348 H          1 MOL1         0.0749
      16    H8      20.793750   18.853812   25.768341 H          1 MOL1         0.0749
      17    H9      21.064714   17.799200   24.363669 H          1 MOL1         0.0749
@<TRIPOS>BOND
    1     1     2    1
    2     1     3    2
    3     1     4    1
    4     4     5    1
    5     4     6    1
    6     4     7    1
    7     7     8    1
    8     7     9    2
    9     9    10    1
   10     9    11    1
   11    11    12    1
   12    11    13    1
   13    11    14    1
   14    14    15    1
   15    14    16    1
   16    14    17    1
@<TRIPOS>SUBSTRUCTURE
       1 MOL1            1 RESIDUE      1      MOL     
@<SCITEGIC>MOL_PROPERTY
VConf Rank
SciTegic.value.IntegerValue
172

@<SCITEGIC>MOL_PROPERTY
Conf_Id
SciTegic.value.IntegerValue
35

@<SCITEGIC>MOL_PROPERTY
Delta U+W
SciTegic.value.DoubleValue
-0.102

@<SCITEGIC>MOL_PROPERTY
U+W
SciTegic.value.DoubleValue
-49.529

@<SCITEGIC>MOL_PROPERTY
Grad RMS
SciTegic.value.DoubleValue
0.000000

@<SCITEGIC>MOL_PROPERTY
U
SciTegic.value.DoubleValue
13.666

@<SCITEGIC>MOL_PROPERTY
W
SciTegic.value.DoubleValue
-63.195

@<SCITEGIC>MOL_PROPERTY
W(PB)
SciTegic.value.DoubleValue
-65.299

@<SCITEGIC>MOL_PROPERTY
W(SA)
SciTegic.value.DoubleValue
2.103

@<SCITEGIC>MOL_PROPERTY
Valence
SciTegic.value.DoubleValue
15.226

@<SCITEGIC>MOL_PROPERTY
Coulomb
SciTegic.value.DoubleValue
-1.822

@<SCITEGIC>MOL_PROPERTY
VdW
SciTegic.value.DoubleValue
0.261

@<SCITEGIC>MOL_PROPERTY
VdW6
SciTegic.value.DoubleValue
-4.165

@<SCITEGIC>MOL_PROPERTY
VdW12
SciTegic.value.DoubleValue
4.426

@<SCITEGIC>MOL_PROPERTY
Bond
SciTegic.value.DoubleValue
0.044

@<SCITEGIC>MOL_PROPERTY
Angle
SciTegic.value.DoubleValue
2.229

@<SCITEGIC>MOL_PROPERTY
Pdih
SciTegic.value.DoubleValue
12.953

@<SCITEGIC>MOL_PROPERTY
Idih
SciTegic.value.DoubleValue
0.000

@<SCITEGIC>MOL_PROPERTY
Tether
SciTegic.value.DoubleValue
0.000

@<TRIPOS>MOLECULE
guest-s20_confgen4.mol2 : confsearch ligand conformer 173
          17          16           1
SMALL
USER_CHARGES
 
@<TRIPOS>ATOM
       1    C1      22.431686   20.712495   23.309468 C.2        1 MOL1         0.6132
       2    O1      23.430949   20.562696   22.634186 O.co2      1 MOL1        -0.6749
       3    O2      22.038840   21.795113   23.697358 O.co2      1 MOL1        -0.6749
       4    C2      21.635064   19.473760   23.697566 C.3        1 MOL1        -0.1955
       5    H1      21.067288   19.702345   24.607491 H          1 MOL1         0.0733
       6    H2      22.349562   18.683623   23.955804 H          1 MOL1         0.0733
       7    C3      20.716888   19.002208   22.585811 C.2        1 MOL1        -0.1395
       8    H3      21.229328   18.610712   21.708756 H          1 MOL1         0.0816
       9    C4      19.380462   19.056019   22.647290 C.2        1 MOL1        -0.1394
      10    H4      18.902950   19.458559   23.540054 H          1 MOL1         0.0816
      11    C5      18.403723   18.606530   21.573729 C.3        1 MOL1        -0.1826
      12    H5      17.730104   17.849994   21.998460 H          1 MOL1         0.0736
      13    H6      17.760572   19.453800   21.299849 H          1 MOL1         0.0736
      14    C6      19.056885   18.037399   20.294864 C.3        1 MOL1        -0.2882
      15    H7      19.666209   17.153210   20.523635 H          1 MOL1         0.0749
      16    H8      18.288170   17.737541   19.570853 H          1 MOL1         0.0749
      17    H9      19.698185   18.787116   19.813045 H          1 MOL1         0.0749
@<TRIPOS>BOND
    1     1     2    1
    2     1     3    2
    3     1     4    1
    4     4     5    1
    5     4     6    1
    6     4     7    1
    7     7     8    1
    8     7     9    2
    9     9    10    1
   10     9    11    1
   11    11    12    1
   12    11    13    1
   13    11    14    1
   14    14    15    1
   15    14    16    1
   16    14    17    1
@<TRIPOS>SUBSTRUCTURE
       1 MOL1            1 RESIDUE      1      MOL     
@<SCITEGIC>MOL_PROPERTY
VConf Rank
SciTegic.value.IntegerValue
173

@<SCITEGIC>MOL_PROPERTY
Conf_Id
SciTegic.value.IntegerValue
19

@<SCITEGIC>MOL_PROPERTY
Delta U+W
SciTegic.value.DoubleValue
-0.496

@<SCITEGIC>MOL_PROPERTY
U+W
SciTegic.value.DoubleValue
-49.923

@<SCITEGIC>MOL_PROPERTY
Grad RMS
SciTegic.value.DoubleValue
0.000000

@<SCITEGIC>MOL_PROPERTY
U
SciTegic.value.DoubleValue
13.863

@<SCITEGIC>MOL_PROPERTY
W
SciTegic.value.DoubleValue
-63.786

@<SCITEGIC>MOL_PROPERTY
W(PB)
SciTegic.value.DoubleValue
-65.856

@<SCITEGIC>MOL_PROPERTY
W(SA)
SciTegic.value.DoubleValue
2.070

@<SCITEGIC>MOL_PROPERTY
Valence
SciTegic.value.DoubleValue
14.117

@<SCITEGIC>MOL_PROPERTY
Coulomb
SciTegic.value.DoubleValue
-1.228

@<SCITEGIC>MOL_PROPERTY
VdW
SciTegic.value.DoubleValue
0.974

@<SCITEGIC>MOL_PROPERTY
VdW6
SciTegic.value.DoubleValue
-4.885

@<SCITEGIC>MOL_PROPERTY
VdW12
SciTegic.value.DoubleValue
5.859

@<SCITEGIC>MOL_PROPERTY
Bond
SciTegic.value.DoubleValue
0.094

@<SCITEGIC>MOL_PROPERTY
Angle
SciTegic.value.DoubleValue
2.818

@<SCITEGIC>MOL_PROPERTY
Pdih
SciTegic.value.DoubleValue
11.205

@<SCITEGIC>MOL_PROPERTY
Idih
SciTegic.value.DoubleValue
0.000

@<SCITEGIC>MOL_PROPERTY
Tether
SciTegic.value.DoubleValue
0.000

@<TRIPOS>MOLECULE
guest-s20_confgen4.mol2 : confsearch ligand conformer 174
          17          16           1
SMALL
USER_CHARGES
 
@<TRIPOS>ATOM
       1    C1      19.526707   20.234813   24.829409 C.2        1 MOL1         0.6132
       2    O1      20.390994   21.080660   24.949251 O.co2      1 MOL1        -0.6749
       3    O2      18.351383   20.437171   25.063218 O.co2      1 MOL1        -0.6749
       4    C2      19.937963   18.841536   24.371724 C.3        1 MOL1        -0.1955
       5    H1      19.382993   18.113792   24.974950 H          1 MOL1         0.0733
       6    H2      21.001435   18.704681   24.601837 H          1 MOL1         0.0733
       7    C3      19.666685   18.610851   22.897290 C.2        1 MOL1        -0.1395
       8    H3      18.614079   18.577626   22.617766 H          1 MOL1         0.0816
       9    C4      20.619909   18.462033   21.972394 C.2        1 MOL1        -0.1394
      10    H4      21.672326   18.500492   22.251677 H          1 MOL1         0.0816
      11    C5      20.347265   18.235017   20.502202 C.3        1 MOL1        -0.1826
      12    H5      20.953975   17.395018   20.137747 H          1 MOL1         0.0736
      13    H6      19.296127   17.956613   20.344694 H          1 MOL1         0.0736
      14    C6      20.669275   19.497019   19.678399 C.3        1 MOL1        -0.2882
      15    H7      21.725530   19.776396   19.786569 H          1 MOL1         0.0749
      16    H8      20.469242   19.326915   18.612511 H          1 MOL1         0.0749
      17    H9      20.055688   20.345375   20.009283 H          1 MOL1         0.0749
@<TRIPOS>BOND
    1     1     2    1
    2     1     3    2
    3     1     4    1
    4     4     5    1
    5     4     6    1
    6     4     7    1
    7     7     8    1
    8     7     9    2
    9     9    10    1
   10     9    11    1
   11    11    12    1
   12    11    13    1
   13    11    14    1
   14    14    15    1
   15    14    16    1
   16    14    17    1
@<TRIPOS>SUBSTRUCTURE
       1 MOL1            1 RESIDUE      1      MOL     
@<SCITEGIC>MOL_PROPERTY
VConf Rank
SciTegic.value.IntegerValue
174

@<SCITEGIC>MOL_PROPERTY
Conf_Id
SciTegic.value.IntegerValue
7

@<SCITEGIC>MOL_PROPERTY
Delta U+W
SciTegic.value.DoubleValue
-0.041

@<SCITEGIC>MOL_PROPERTY
U+W
SciTegic.value.DoubleValue
-49.468

@<SCITEGIC>MOL_PROPERTY
Grad RMS
SciTegic.value.DoubleValue
0.000000

@<SCITEGIC>MOL_PROPERTY
U
SciTegic.value.DoubleValue
14.121

@<SCITEGIC>MOL_PROPERTY
W
SciTegic.value.DoubleValue
-63.589

@<SCITEGIC>MOL_PROPERTY
W(PB)
SciTegic.value.DoubleValue
-65.660

@<SCITEGIC>MOL_PROPERTY
W(SA)
SciTegic.value.DoubleValue
2.071

@<SCITEGIC>MOL_PROPERTY
Valence
SciTegic.value.DoubleValue
15.230

@<SCITEGIC>MOL_PROPERTY
Coulomb
SciTegic.value.DoubleValue
-1.333

@<SCITEGIC>MOL_PROPERTY
VdW
SciTegic.value.DoubleValue
0.224

@<SCITEGIC>MOL_PROPERTY
VdW6
SciTegic.value.DoubleValue
-4.212

@<SCITEGIC>MOL_PROPERTY
VdW12
SciTegic.value.DoubleValue
4.436

@<SCITEGIC>MOL_PROPERTY
Bond
SciTegic.value.DoubleValue
0.044

@<SCITEGIC>MOL_PROPERTY
Angle
SciTegic.value.DoubleValue
2.230

@<SCITEGIC>MOL_PROPERTY
Pdih
SciTegic.value.DoubleValue
12.956

@<SCITEGIC>MOL_PROPERTY
Idih
SciTegic.value.DoubleValue
0.000

@<SCITEGIC>MOL_PROPERTY
Tether
SciTegic.value.DoubleValue
0.000

@<TRIPOS>MOLECULE
guest-s20_confgen4.mol2 : confsearch ligand conformer 175
          17          16           1
SMALL
USER_CHARGES
 
@<TRIPOS>ATOM
       1    C1      17.507844   18.943978   23.068567 C.2        1 MOL1         0.6132
       2    O1      17.588780   17.910052   23.702159 O.co2      1 MOL1        -0.6749
       3    O2      16.724278   19.111723   22.154801 O.co2      1 MOL1        -0.6749
       4    C2      18.419463   20.103248   23.459233 C.3        1 MOL1        -0.1955
       5    H1      18.591766   20.046019   24.540346 H          1 MOL1         0.0733
       6    H2      17.867885   21.035524   23.290880 H          1 MOL1         0.0733
       7    C3      19.755443   20.162387   22.732227 C.2        1 MOL1        -0.1395
       8    H3      20.390379   20.997328   23.025954 H          1 MOL1         0.0816
       9    C4      20.184388   19.299807   21.803272 C.2        1 MOL1        -0.1394
      10    H4      19.569642   18.455981   21.492180 H          1 MOL1         0.0816
      11    C5      21.523760   19.404591   21.108258 C.3        1 MOL1        -0.1826
      12    H5      21.388027   19.294232   20.023861 H          1 MOL1         0.0736
      13    H6      21.965589   20.397283   21.271058 H          1 MOL1         0.0736
      14    C6      22.497354   18.323554   21.616697 C.3        1 MOL1        -0.2882
      15    H7      23.466899   18.403406   21.108105 H          1 MOL1         0.0749
      16    H8      22.668737   18.429925   22.696006 H          1 MOL1         0.0749
      17    H9      22.097173   17.318033   21.431652 H          1 MOL1         0.0749
@<TRIPOS>BOND
    1     1     2    1
    2     1     3    2
    3     1     4    1
    4     4     5    1
    5     4     6    1
    6     4     7    1
    7     7     8    1
    8     7     9    2
    9     9    10    1
   10     9    11    1
   11    11    12    1
   12    11    13    1
   13    11    14    1
   14    14    15    1
   15    14    16    1
   16    14    17    1
@<TRIPOS>SUBSTRUCTURE
       1 MOL1            1 RESIDUE      1      MOL     
@<SCITEGIC>MOL_PROPERTY
VConf Rank
SciTegic.value.IntegerValue
175

@<SCITEGIC>MOL_PROPERTY
Conf_Id
SciTegic.value.IntegerValue
39

@<SCITEGIC>MOL_PROPERTY
Delta U+W
SciTegic.value.DoubleValue
-0.422

@<SCITEGIC>MOL_PROPERTY
U+W
SciTegic.value.DoubleValue
-49.849

@<SCITEGIC>MOL_PROPERTY
Grad RMS
SciTegic.value.DoubleValue
0.000000

@<SCITEGIC>MOL_PROPERTY
U
SciTegic.value.DoubleValue
14.465

@<SCITEGIC>MOL_PROPERTY
W
SciTegic.value.DoubleValue
-64.314

@<SCITEGIC>MOL_PROPERTY
W(PB)
SciTegic.value.DoubleValue
-66.406

@<SCITEGIC>MOL_PROPERTY
W(SA)
SciTegic.value.DoubleValue
2.093

@<SCITEGIC>MOL_PROPERTY
Valence
SciTegic.value.DoubleValue
14.072

@<SCITEGIC>MOL_PROPERTY
Coulomb
SciTegic.value.DoubleValue
-0.199

@<SCITEGIC>MOL_PROPERTY
VdW
SciTegic.value.DoubleValue
0.592

@<SCITEGIC>MOL_PROPERTY
VdW6
SciTegic.value.DoubleValue
-5.019

@<SCITEGIC>MOL_PROPERTY
VdW12
SciTegic.value.DoubleValue
5.611

@<SCITEGIC>MOL_PROPERTY
Bond
SciTegic.value.DoubleValue
0.085

@<SCITEGIC>MOL_PROPERTY
Angle
SciTegic.value.DoubleValue
2.748

@<SCITEGIC>MOL_PROPERTY
Pdih
SciTegic.value.DoubleValue
11.238

@<SCITEGIC>MOL_PROPERTY
Idih
SciTegic.value.DoubleValue
0.001

@<SCITEGIC>MOL_PROPERTY
Tether
SciTegic.value.DoubleValue
0.000

@<TRIPOS>MOLECULE
guest-s20_confgen4.mol2 : confsearch ligand conformer 176
          17          16           1
SMALL
USER_CHARGES
 
@<TRIPOS>ATOM
       1    C1      18.805920   20.172046   24.846061 C.2        1 MOL1         0.6132
       2    O1      17.672157   19.789774   25.059161 O.co2      1 MOL1        -0.6749
       3    O2      19.204511   21.284407   25.129953 O.co2      1 MOL1        -0.6749
       4    C2      19.780111   19.200758   24.192490 C.3        1 MOL1        -0.1955
       5    H1      19.620029   18.213361   24.640741 H          1 MOL1         0.0733
       6    H2      20.799517   19.509864   24.453078 H          1 MOL1         0.0733
       7    C3      19.602930   19.124618   22.687979 C.2        1 MOL1        -0.1395
       8    H3      18.669851   18.673428   22.351833 H          1 MOL1         0.0816
       9    C4      20.500001   19.569120   21.802593 C.2        1 MOL1        -0.1394
      10    H4      21.431505   20.022884   22.139430 H          1 MOL1         0.0816
      11    C5      20.319944   19.495787   20.302752 C.3        1 MOL1        -0.1826
      12    H5      19.273816   19.272670   20.051645 H          1 MOL1         0.0736
      13    H6      20.550764   20.471228   19.853562 H          1 MOL1         0.0736
      14    C6      21.233257   18.417743   19.687333 C.3        1 MOL1        -0.2882
      15    H7      21.003014   17.427959   20.103166 H          1 MOL1         0.0749
      16    H8      21.098648   18.369668   18.598914 H          1 MOL1         0.0749
      17    H9      22.289736   18.636793   19.890551 H          1 MOL1         0.0749
@<TRIPOS>BOND
    1     1     2    1
    2     1     3    2
    3     1     4    1
    4     4     5    1
    5     4     6    1
    6     4     7    1
    7     7     8    1
    8     7     9    2
    9     9    10    1
   10     9    11    1
   11    11    12    1
   12    11    13    1
   13    11    14    1
   14    14    15    1
   15    14    16    1
   16    14    17    1
@<TRIPOS>SUBSTRUCTURE
       1 MOL1            1 RESIDUE      1      MOL     
@<SCITEGIC>MOL_PROPERTY
VConf Rank
SciTegic.value.IntegerValue
176

@<SCITEGIC>MOL_PROPERTY
Conf_Id
SciTegic.value.IntegerValue
38

@<SCITEGIC>MOL_PROPERTY
Delta U+W
SciTegic.value.DoubleValue
0.000

@<SCITEGIC>MOL_PROPERTY
U+W
SciTegic.value.DoubleValue
-49.427

@<SCITEGIC>MOL_PROPERTY
Grad RMS
SciTegic.value.DoubleValue
0.000000

@<SCITEGIC>MOL_PROPERTY
U
SciTegic.value.DoubleValue
13.666

@<SCITEGIC>MOL_PROPERTY
W
SciTegic.value.DoubleValue
-63.093

@<SCITEGIC>MOL_PROPERTY
W(PB)
SciTegic.value.DoubleValue
-65.225

@<SCITEGIC>MOL_PROPERTY
W(SA)
SciTegic.value.DoubleValue
2.132

@<SCITEGIC>MOL_PROPERTY
Valence
SciTegic.value.DoubleValue
15.226

@<SCITEGIC>MOL_PROPERTY
Coulomb
SciTegic.value.DoubleValue
-1.822

@<SCITEGIC>MOL_PROPERTY
VdW
SciTegic.value.DoubleValue
0.261

@<SCITEGIC>MOL_PROPERTY
VdW6
SciTegic.value.DoubleValue
-4.165

@<SCITEGIC>MOL_PROPERTY
VdW12
SciTegic.value.DoubleValue
4.426

@<SCITEGIC>MOL_PROPERTY
Bond
SciTegic.value.DoubleValue
0.044

@<SCITEGIC>MOL_PROPERTY
Angle
SciTegic.value.DoubleValue
2.229

@<SCITEGIC>MOL_PROPERTY
Pdih
SciTegic.value.DoubleValue
12.953

@<SCITEGIC>MOL_PROPERTY
Idih
SciTegic.value.DoubleValue
0.000

@<SCITEGIC>MOL_PROPERTY
Tether
SciTegic.value.DoubleValue
0.000

@<TRIPOS>MOLECULE
guest-s20_confgen4.mol2 : confsearch ligand conformer 177
          17          16           1
SMALL
USER_CHARGES
 
@<TRIPOS>ATOM
       1    C1      21.246600   17.323002   24.315844 C.2        1 MOL1         0.6132
       2    O1      22.104692   16.621527   23.817418 O.co2      1 MOL1        -0.6749
       3    O2      20.463862   16.930773   25.158719 O.co2      1 MOL1        -0.6749
       4    C2      21.148522   18.774479   23.865069 C.3        1 MOL1        -0.1955
       5    H1      22.124354   19.076540   23.466131 H          1 MOL1         0.0733
       6    H2      20.961043   19.389063   24.753126 H          1 MOL1         0.0733
       7    C3      20.051432   18.991621   22.840380 C.2        1 MOL1        -0.1395
       8    H3      19.035356   18.865944   23.213203 H          1 MOL1         0.0816
       9    C4      20.270828   19.312268   21.561599 C.2        1 MOL1        -0.1394
      10    H4      21.287206   19.434662   21.188698 H          1 MOL1         0.0816
      11    C5      19.175742   19.524518   20.540297 C.3        1 MOL1        -0.1826
      12    H5      19.406505   18.960140   19.626645 H          1 MOL1         0.0736
      13    H6      18.218796   19.137499   20.916713 H          1 MOL1         0.0736
      14    C6      19.021578   21.018753   20.195976 C.3        1 MOL1        -0.2882
      15    H7      19.953990   21.423285   19.780778 H          1 MOL1         0.0749
      16    H8      18.226099   21.166399   19.454019 H          1 MOL1         0.0749
      17    H9      18.764920   21.600631   21.091043 H          1 MOL1         0.0749
@<TRIPOS>BOND
    1     1     2    1
    2     1     3    2
    3     1     4    1
    4     4     5    1
    5     4     6    1
    6     4     7    1
    7     7     8    1
    8     7     9    2
    9     9    10    1
   10     9    11    1
   11    11    12    1
   12    11    13    1
   13    11    14    1
   14    14    15    1
   15    14    16    1
   16    14    17    1
@<TRIPOS>SUBSTRUCTURE
       1 MOL1            1 RESIDUE      1      MOL     
@<SCITEGIC>MOL_PROPERTY
VConf Rank
SciTegic.value.IntegerValue
177

@<SCITEGIC>MOL_PROPERTY
Conf_Id
SciTegic.value.IntegerValue
35

@<SCITEGIC>MOL_PROPERTY
Delta U+W
SciTegic.value.DoubleValue
-0.102

@<SCITEGIC>MOL_PROPERTY
U+W
SciTegic.value.DoubleValue
-49.529

@<SCITEGIC>MOL_PROPERTY
Grad RMS
SciTegic.value.DoubleValue
0.000000

@<SCITEGIC>MOL_PROPERTY
U
SciTegic.value.DoubleValue
13.666

@<SCITEGIC>MOL_PROPERTY
W
SciTegic.value.DoubleValue
-63.195

@<SCITEGIC>MOL_PROPERTY
W(PB)
SciTegic.value.DoubleValue
-65.299

@<SCITEGIC>MOL_PROPERTY
W(SA)
SciTegic.value.DoubleValue
2.103

@<SCITEGIC>MOL_PROPERTY
Valence
SciTegic.value.DoubleValue
15.226

@<SCITEGIC>MOL_PROPERTY
Coulomb
SciTegic.value.DoubleValue
-1.822

@<SCITEGIC>MOL_PROPERTY
VdW
SciTegic.value.DoubleValue
0.261

@<SCITEGIC>MOL_PROPERTY
VdW6
SciTegic.value.DoubleValue
-4.165

@<SCITEGIC>MOL_PROPERTY
VdW12
SciTegic.value.DoubleValue
4.426

@<SCITEGIC>MOL_PROPERTY
Bond
SciTegic.value.DoubleValue
0.044

@<SCITEGIC>MOL_PROPERTY
Angle
SciTegic.value.DoubleValue
2.229

@<SCITEGIC>MOL_PROPERTY
Pdih
SciTegic.value.DoubleValue
12.953

@<SCITEGIC>MOL_PROPERTY
Idih
SciTegic.value.DoubleValue
0.000

@<SCITEGIC>MOL_PROPERTY
Tether
SciTegic.value.DoubleValue
0.000

@<TRIPOS>MOLECULE
guest-s20_confgen4.mol2 : confsearch ligand conformer 178
          17          16           1
SMALL
USER_CHARGES
 
@<TRIPOS>ATOM
       1    C1      18.295410   20.717636   23.743367 C.2        1 MOL1         0.6132
       2    O1      17.273890   20.864750   23.101631 O.co2      1 MOL1        -0.6749
       3    O2      18.311839   20.423600   24.922401 O.co2      1 MOL1        -0.6749
       4    C2      19.626231   20.922670   23.031628 C.3        1 MOL1        -0.1955
       5    H1      20.381246   21.180774   23.783904 H          1 MOL1         0.0733
       6    H2      19.522211   21.791184   22.371044 H          1 MOL1         0.0733
       7    C3      20.049006   19.706363   22.229590 C.2        1 MOL1        -0.1395
       8    H3      19.422135   19.491355   21.365939 H          1 MOL1         0.0816
       9    C4      21.100305   18.936675   22.537914 C.2        1 MOL1        -0.1394
      10    H4      21.702122   19.180580   23.412792 H          1 MOL1         0.0816
      11    C5      21.576616   17.706496   21.784007 C.3        1 MOL1        -0.1826
      12    H5      22.620224   17.858222   21.476812 H          1 MOL1         0.0736
      13    H6      21.593163   16.850845   22.472562 H          1 MOL1         0.0736
      14    C6      20.735477   17.336294   20.542451 C.3        1 MOL1        -0.2882
      15    H7      20.741046   18.150310   19.805735 H          1 MOL1         0.0749
      16    H8      21.141458   16.439948   20.055858 H          1 MOL1         0.0749
      17    H9      19.694486   17.125419   20.820584 H          1 MOL1         0.0749
@<TRIPOS>BOND
    1     1     2    1
    2     1     3    2
    3     1     4    1
    4     4     5    1
    5     4     6    1
    6     4     7    1
    7     7     8    1
    8     7     9    2
    9     9    10    1
   10     9    11    1
   11    11    12    1
   12    11    13    1
   13    11    14    1
   14    14    15    1
   15    14    16    1
   16    14    17    1
@<TRIPOS>SUBSTRUCTURE
       1 MOL1            1 RESIDUE      1      MOL     
@<SCITEGIC>MOL_PROPERTY
VConf Rank
SciTegic.value.IntegerValue
178

@<SCITEGIC>MOL_PROPERTY
Conf_Id
SciTegic.value.IntegerValue
19

@<SCITEGIC>MOL_PROPERTY
Delta U+W
SciTegic.value.DoubleValue
-0.496

@<SCITEGIC>MOL_PROPERTY
U+W
SciTegic.value.DoubleValue
-49.923

@<SCITEGIC>MOL_PROPERTY
Grad RMS
SciTegic.value.DoubleValue
0.000000

@<SCITEGIC>MOL_PROPERTY
U
SciTegic.value.DoubleValue
13.863

@<SCITEGIC>MOL_PROPERTY
W
SciTegic.value.DoubleValue
-63.786

@<SCITEGIC>MOL_PROPERTY
W(PB)
SciTegic.value.DoubleValue
-65.856

@<SCITEGIC>MOL_PROPERTY
W(SA)
SciTegic.value.DoubleValue
2.070

@<SCITEGIC>MOL_PROPERTY
Valence
SciTegic.value.DoubleValue
14.117

@<SCITEGIC>MOL_PROPERTY
Coulomb
SciTegic.value.DoubleValue
-1.228

@<SCITEGIC>MOL_PROPERTY
VdW
SciTegic.value.DoubleValue
0.974

@<SCITEGIC>MOL_PROPERTY
VdW6
SciTegic.value.DoubleValue
-4.885

@<SCITEGIC>MOL_PROPERTY
VdW12
SciTegic.value.DoubleValue
5.859

@<SCITEGIC>MOL_PROPERTY
Bond
SciTegic.value.DoubleValue
0.094

@<SCITEGIC>MOL_PROPERTY
Angle
SciTegic.value.DoubleValue
2.818

@<SCITEGIC>MOL_PROPERTY
Pdih
SciTegic.value.DoubleValue
11.205

@<SCITEGIC>MOL_PROPERTY
Idih
SciTegic.value.DoubleValue
0.000

@<SCITEGIC>MOL_PROPERTY
Tether
SciTegic.value.DoubleValue
0.000

@<TRIPOS>MOLECULE
guest-s20_confgen4.mol2 : confsearch ligand conformer 179
          17          16           1
SMALL
USER_CHARGES
 
@<TRIPOS>ATOM
       1    C1      20.012754   20.797374   24.577344 C.2        1 MOL1         0.6132
       2    O1      18.999294   20.406394   25.122180 O.co2      1 MOL1        -0.6749
       3    O2      21.056817   20.999519   25.165623 O.co2      1 MOL1        -0.6749
       4    C2      19.971647   21.059257   23.077492 C.3        1 MOL1        -0.1955
       5    H1      20.518727   21.989410   22.885125 H          1 MOL1         0.0733
       6    H2      18.928494   21.234766   22.788214 H          1 MOL1         0.0733
       7    C3      20.575310   19.923939   22.272876 C.2        1 MOL1        -0.1395
       8    H3      21.649935   19.789350   22.392384 H          1 MOL1         0.0816
       9    C4      19.875145   19.117460   21.469398 C.2        1 MOL1        -0.1394
      10    H4      18.799769   19.249255   21.354263 H          1 MOL1         0.0816
      11    C5      20.478569   17.984098   20.670207 C.3        1 MOL1        -0.1826
      12    H5      20.126999   18.034776   19.630807 H          1 MOL1         0.0736
      13    H6      21.572923   18.076589   20.637898 H          1 MOL1         0.0736
      14    C6      20.100097   16.617954   21.274690 C.3        1 MOL1        -0.2882
      15    H7      19.010674   16.481935   21.283709 H          1 MOL1         0.0749
      16    H8      20.540888   15.799212   20.691224 H          1 MOL1         0.0749
      17    H9      20.463535   16.534722   22.307486 H          1 MOL1         0.0749
@<TRIPOS>BOND
    1     1     2    1
    2     1     3    2
    3     1     4    1
    4     4     5    1
    5     4     6    1
    6     4     7    1
    7     7     8    1
    8     7     9    2
    9     9    10    1
   10     9    11    1
   11    11    12    1
   12    11    13    1
   13    11    14    1
   14    14    15    1
   15    14    16    1
   16    14    17    1
@<TRIPOS>SUBSTRUCTURE
       1 MOL1            1 RESIDUE      1      MOL     
@<SCITEGIC>MOL_PROPERTY
VConf Rank
SciTegic.value.IntegerValue
179

@<SCITEGIC>MOL_PROPERTY
Conf_Id
SciTegic.value.IntegerValue
7

@<SCITEGIC>MOL_PROPERTY
Delta U+W
SciTegic.value.DoubleValue
-0.041

@<SCITEGIC>MOL_PROPERTY
U+W
SciTegic.value.DoubleValue
-49.468

@<SCITEGIC>MOL_PROPERTY
Grad RMS
SciTegic.value.DoubleValue
0.000000

@<SCITEGIC>MOL_PROPERTY
U
SciTegic.value.DoubleValue
14.121

@<SCITEGIC>MOL_PROPERTY
W
SciTegic.value.DoubleValue
-63.589

@<SCITEGIC>MOL_PROPERTY
W(PB)
SciTegic.value.DoubleValue
-65.660

@<SCITEGIC>MOL_PROPERTY
W(SA)
SciTegic.value.DoubleValue
2.071

@<SCITEGIC>MOL_PROPERTY
Valence
SciTegic.value.DoubleValue
15.230

@<SCITEGIC>MOL_PROPERTY
Coulomb
SciTegic.value.DoubleValue
-1.333

@<SCITEGIC>MOL_PROPERTY
VdW
SciTegic.value.DoubleValue
0.224

@<SCITEGIC>MOL_PROPERTY
VdW6
SciTegic.value.DoubleValue
-4.212

@<SCITEGIC>MOL_PROPERTY
VdW12
SciTegic.value.DoubleValue
4.436

@<SCITEGIC>MOL_PROPERTY
Bond
SciTegic.value.DoubleValue
0.044

@<SCITEGIC>MOL_PROPERTY
Angle
SciTegic.value.DoubleValue
2.230

@<SCITEGIC>MOL_PROPERTY
Pdih
SciTegic.value.DoubleValue
12.956

@<SCITEGIC>MOL_PROPERTY
Idih
SciTegic.value.DoubleValue
0.000

@<SCITEGIC>MOL_PROPERTY
Tether
SciTegic.value.DoubleValue
0.000

@<TRIPOS>MOLECULE
guest-s20_confgen4.mol2 : confsearch ligand conformer 180
          17          16           1
SMALL
USER_CHARGES
 
@<TRIPOS>ATOM
       1    C1      20.334707   21.934941   21.560721 C.2        1 MOL1         0.6132
       2    O1      21.406790   21.939708   20.988350 O.co2      1 MOL1        -0.6749
       3    O2      20.063858   22.676305   22.484897 O.co2      1 MOL1        -0.6749
       4    C2      19.261416   20.965536   21.075048 C.3        1 MOL1        -0.1955
       5    H1      19.392419   20.832410   19.994824 H          1 MOL1         0.0733
       6    H2      18.287254   21.451741   21.202849 H          1 MOL1         0.0733
       7    C3      19.246512   19.605548   21.758486 C.2        1 MOL1        -0.1395
       8    H3      18.472817   18.929342   21.396981 H          1 MOL1         0.0816
       9    C4      20.079517   19.201616   22.724890 C.2        1 MOL1        -0.1394
      10    H4      20.862359   19.857676   23.103674 H          1 MOL1         0.0816
      11    C5      20.021221   17.836419   23.373566 C.3        1 MOL1        -0.1826
      12    H5      20.059342   17.943480   24.466088 H          1 MOL1         0.0736
      13    H6      19.070286   17.338677   23.138767 H          1 MOL1         0.0736
      14    C6      21.190611   16.949650   22.903244 C.3        1 MOL1        -0.2882
      15    H7      21.144106   15.960981   23.378041 H          1 MOL1         0.0749
      16    H8      21.158469   16.807112   21.815015 H          1 MOL1         0.0749
      17    H9      22.155722   17.405929   23.159813 H          1 MOL1         0.0749
@<TRIPOS>BOND
    1     1     2    1
    2     1     3    2
    3     1     4    1
    4     4     5    1
    5     4     6    1
    6     4     7    1
    7     7     8    1
    8     7     9    2
    9     9    10    1
   10     9    11    1
   11    11    12    1
   12    11    13    1
   13    11    14    1
   14    14    15    1
   15    14    16    1
   16    14    17    1
@<TRIPOS>SUBSTRUCTURE
       1 MOL1            1 RESIDUE      1      MOL     
@<SCITEGIC>MOL_PROPERTY
VConf Rank
SciTegic.value.IntegerValue
180

@<SCITEGIC>MOL_PROPERTY
Conf_Id
SciTegic.value.IntegerValue
39

@<SCITEGIC>MOL_PROPERTY
Delta U+W
SciTegic.value.DoubleValue
-0.422

@<SCITEGIC>MOL_PROPERTY
U+W
SciTegic.value.DoubleValue
-49.849

@<SCITEGIC>MOL_PROPERTY
Grad RMS
SciTegic.value.DoubleValue
0.000000

@<SCITEGIC>MOL_PROPERTY
U
SciTegic.value.DoubleValue
14.465

@<SCITEGIC>MOL_PROPERTY
W
SciTegic.value.DoubleValue
-64.314

@<SCITEGIC>MOL_PROPERTY
W(PB)
SciTegic.value.DoubleValue
-66.406

@<SCITEGIC>MOL_PROPERTY
W(SA)
SciTegic.value.DoubleValue
2.093

@<SCITEGIC>MOL_PROPERTY
Valence
SciTegic.value.DoubleValue
14.072

@<SCITEGIC>MOL_PROPERTY
Coulomb
SciTegic.value.DoubleValue
-0.199

@<SCITEGIC>MOL_PROPERTY
VdW
SciTegic.value.DoubleValue
0.592

@<SCITEGIC>MOL_PROPERTY
VdW6
SciTegic.value.DoubleValue
-5.019

@<SCITEGIC>MOL_PROPERTY
VdW12
SciTegic.value.DoubleValue
5.611

@<SCITEGIC>MOL_PROPERTY
Bond
SciTegic.value.DoubleValue
0.085

@<SCITEGIC>MOL_PROPERTY
Angle
SciTegic.value.DoubleValue
2.748

@<SCITEGIC>MOL_PROPERTY
Pdih
SciTegic.value.DoubleValue
11.238

@<SCITEGIC>MOL_PROPERTY
Idih
SciTegic.value.DoubleValue
0.001

@<SCITEGIC>MOL_PROPERTY
Tether
SciTegic.value.DoubleValue
0.000

@<TRIPOS>MOLECULE
guest-s20_confgen4.mol2 : confsearch ligand conformer 181
          17          16           1
SMALL
USER_CHARGES
 
@<TRIPOS>ATOM
       1    C1      19.847856   22.228376   23.209125 C.2        1 MOL1         0.6132
       2    O1      18.783220   22.784662   23.024583 O.co2      1 MOL1        -0.6749
       3    O2      20.923215   22.785866   23.111010 O.co2      1 MOL1        -0.6749
       4    C2      19.830914   20.753645   23.589238 C.3        1 MOL1        -0.1955
       5    H1      19.012765   20.600990   24.302566 H          1 MOL1         0.0733
       6    H2      20.764157   20.524812   24.117757 H          1 MOL1         0.0733
       7    C3      19.650141   19.846078   22.387411 C.2        1 MOL1        -0.1395
       8    H3      18.675247   19.902962   21.904143 H          1 MOL1         0.0816
       9    C4      20.593014   19.022444   21.919601 C.2        1 MOL1        -0.1394
      10    H4      21.568654   18.968248   22.401525 H          1 MOL1         0.0816
      11    C5      20.412253   18.120955   20.718783 C.3        1 MOL1        -0.1826
      12    H5      19.521966   18.416568   20.146749 H          1 MOL1         0.0736
      13    H6      21.271202   18.227672   20.042503 H          1 MOL1         0.0736
      14    C6      20.276429   16.647095   21.148142 C.3        1 MOL1        -0.2882
      15    H7      19.407553   16.511008   21.805512 H          1 MOL1         0.0749
      16    H8      20.146184   15.997816   20.272609 H          1 MOL1         0.0749
      17    H9      21.170945   16.312913   21.689984 H          1 MOL1         0.0749
@<TRIPOS>BOND
    1     1     2    1
    2     1     3    2
    3     1     4    1
    4     4     5    1
    5     4     6    1
    6     4     7    1
    7     7     8    1
    8     7     9    2
    9     9    10    1
   10     9    11    1
   11    11    12    1
   12    11    13    1
   13    11    14    1
   14    14    15    1
   15    14    16    1
   16    14    17    1
@<TRIPOS>SUBSTRUCTURE
       1 MOL1            1 RESIDUE      1      MOL     
@<SCITEGIC>MOL_PROPERTY
VConf Rank
SciTegic.value.IntegerValue
181

@<SCITEGIC>MOL_PROPERTY
Conf_Id
SciTegic.value.IntegerValue
38

@<SCITEGIC>MOL_PROPERTY
Delta U+W
SciTegic.value.DoubleValue
0.000

@<SCITEGIC>MOL_PROPERTY
U+W
SciTegic.value.DoubleValue
-49.427

@<SCITEGIC>MOL_PROPERTY
Grad RMS
SciTegic.value.DoubleValue
0.000000

@<SCITEGIC>MOL_PROPERTY
U
SciTegic.value.DoubleValue
13.666

@<SCITEGIC>MOL_PROPERTY
W
SciTegic.value.DoubleValue
-63.093

@<SCITEGIC>MOL_PROPERTY
W(PB)
SciTegic.value.DoubleValue
-65.225

@<SCITEGIC>MOL_PROPERTY
W(SA)
SciTegic.value.DoubleValue
2.132

@<SCITEGIC>MOL_PROPERTY
Valence
SciTegic.value.DoubleValue
15.226

@<SCITEGIC>MOL_PROPERTY
Coulomb
SciTegic.value.DoubleValue
-1.822

@<SCITEGIC>MOL_PROPERTY
VdW
SciTegic.value.DoubleValue
0.261

@<SCITEGIC>MOL_PROPERTY
VdW6
SciTegic.value.DoubleValue
-4.165

@<SCITEGIC>MOL_PROPERTY
VdW12
SciTegic.value.DoubleValue
4.426

@<SCITEGIC>MOL_PROPERTY
Bond
SciTegic.value.DoubleValue
0.044

@<SCITEGIC>MOL_PROPERTY
Angle
SciTegic.value.DoubleValue
2.229

@<SCITEGIC>MOL_PROPERTY
Pdih
SciTegic.value.DoubleValue
12.953

@<SCITEGIC>MOL_PROPERTY
Idih
SciTegic.value.DoubleValue
0.000

@<SCITEGIC>MOL_PROPERTY
Tether
SciTegic.value.DoubleValue
0.000

@<TRIPOS>MOLECULE
guest-s20_confgen4.mol2 : confsearch ligand conformer 182
          17          16           1
SMALL
USER_CHARGES
 
@<TRIPOS>ATOM
       1    C1      18.393108   19.683879   24.746559 C.2        1 MOL1         0.6132
       2    O1      19.047352   20.331154   25.540171 O.co2      1 MOL1        -0.6749
       3    O2      17.656350   18.772478   25.068269 O.co2      1 MOL1        -0.6749
       4    C2      18.496451   20.035870   23.268376 C.3        1 MOL1        -0.1955
       5    H1      18.823724   21.079317   23.186212 H          1 MOL1         0.0733
       6    H2      17.489057   19.981143   22.839809 H          1 MOL1         0.0733
       7    C3      19.433747   19.111213   22.515229 C.2        1 MOL1        -0.1395
       8    H3      19.090889   18.081764   22.415805 H          1 MOL1         0.0816
       9    C4      20.606148   19.489603   21.997034 C.2        1 MOL1        -0.1394
      10    H4      20.949841   20.518399   22.099580 H          1 MOL1         0.0816
      11    C5      21.541293   18.565248   21.249778 C.3        1 MOL1        -0.1826
      12    H5      22.562410   18.677351   21.638734 H          1 MOL1         0.0736
      13    H6      21.255677   17.516674   21.411441 H          1 MOL1         0.0736
      14    C6      21.530700   18.869637   19.739051 C.3        1 MOL1        -0.2882
      15    H7      21.849800   19.902131   19.545249 H          1 MOL1         0.0749
      16    H8      22.211575   18.196297   19.202294 H          1 MOL1         0.0749
      17    H9      20.523405   18.738946   19.322067 H          1 MOL1         0.0749
@<TRIPOS>BOND
    1     1     2    1
    2     1     3    2
    3     1     4    1
    4     4     5    1
    5     4     6    1
    6     4     7    1
    7     7     8    1
    8     7     9    2
    9     9    10    1
   10     9    11    1
   11    11    12    1
   12    11    13    1
   13    11    14    1
   14    14    15    1
   15    14    16    1
   16    14    17    1
@<TRIPOS>SUBSTRUCTURE
       1 MOL1            1 RESIDUE      1      MOL     
@<SCITEGIC>MOL_PROPERTY
VConf Rank
SciTegic.value.IntegerValue
182

@<SCITEGIC>MOL_PROPERTY
Conf_Id
SciTegic.value.IntegerValue
35

@<SCITEGIC>MOL_PROPERTY
Delta U+W
SciTegic.value.DoubleValue
-0.102

@<SCITEGIC>MOL_PROPERTY
U+W
SciTegic.value.DoubleValue
-49.529

@<SCITEGIC>MOL_PROPERTY
Grad RMS
SciTegic.value.DoubleValue
0.000000

@<SCITEGIC>MOL_PROPERTY
U
SciTegic.value.DoubleValue
13.666

@<SCITEGIC>MOL_PROPERTY
W
SciTegic.value.DoubleValue
-63.195

@<SCITEGIC>MOL_PROPERTY
W(PB)
SciTegic.value.DoubleValue
-65.299

@<SCITEGIC>MOL_PROPERTY
W(SA)
SciTegic.value.DoubleValue
2.103

@<SCITEGIC>MOL_PROPERTY
Valence
SciTegic.value.DoubleValue
15.226

@<SCITEGIC>MOL_PROPERTY
Coulomb
SciTegic.value.DoubleValue
-1.822

@<SCITEGIC>MOL_PROPERTY
VdW
SciTegic.value.DoubleValue
0.261

@<SCITEGIC>MOL_PROPERTY
VdW6
SciTegic.value.DoubleValue
-4.165

@<SCITEGIC>MOL_PROPERTY
VdW12
SciTegic.value.DoubleValue
4.426

@<SCITEGIC>MOL_PROPERTY
Bond
SciTegic.value.DoubleValue
0.044

@<SCITEGIC>MOL_PROPERTY
Angle
SciTegic.value.DoubleValue
2.229

@<SCITEGIC>MOL_PROPERTY
Pdih
SciTegic.value.DoubleValue
12.953

@<SCITEGIC>MOL_PROPERTY
Idih
SciTegic.value.DoubleValue
0.000

@<SCITEGIC>MOL_PROPERTY
Tether
SciTegic.value.DoubleValue
0.000

@<TRIPOS>MOLECULE
guest-s20_confgen4.mol2 : confsearch ligand conformer 183
          17          16           1
SMALL
USER_CHARGES
 
@<TRIPOS>ATOM
       1    C1      21.390855   20.873476   20.155780 C.2        1 MOL1         0.6132
       2    O1      20.945146   20.590517   19.061134 O.co2      1 MOL1        -0.6749
       3    O2      21.495874   22.013117   20.564485 O.co2      1 MOL1        -0.6749
       4    C2      21.851069   19.736993   21.059274 C.3        1 MOL1        -0.1955
       5    H1      22.586446   20.137946   21.767117 H          1 MOL1         0.0733
       6    H2      22.374316   19.003763   20.434696 H          1 MOL1         0.0733
       7    C3      20.698772   19.071923   21.788176 C.2        1 MOL1        -0.1395
       8    H3      20.015230   18.517660   21.147355 H          1 MOL1         0.0816
       9    C4      20.508490   19.147658   23.111342 C.2        1 MOL1        -0.1394
      10    H4      21.211447   19.715435   23.720083 H          1 MOL1         0.0816
      11    C5      19.378534   18.511956   23.903599 C.3        1 MOL1        -0.1826
      12    H5      19.807429   17.854866   24.672226 H          1 MOL1         0.0736
      13    H6      18.842452   19.297737   24.452857 H          1 MOL1         0.0736
      14    C6      18.364645   17.706253   23.061637 C.3        1 MOL1        -0.2882
      15    H7      18.857862   16.875992   22.539329 H          1 MOL1         0.0749
      16    H8      17.582260   17.281682   23.704010 H          1 MOL1         0.0749
      17    H9      17.876037   18.346148   22.315120 H          1 MOL1         0.0749
@<TRIPOS>BOND
    1     1     2    1
    2     1     3    2
    3     1     4    1
    4     4     5    1
    5     4     6    1
    6     4     7    1
    7     7     8    1
    8     7     9    2
    9     9    10    1
   10     9    11    1
   11    11    12    1
   12    11    13    1
   13    11    14    1
   14    14    15    1
   15    14    16    1
   16    14    17    1
@<TRIPOS>SUBSTRUCTURE
       1 MOL1            1 RESIDUE      1      MOL     
@<SCITEGIC>MOL_PROPERTY
VConf Rank
SciTegic.value.IntegerValue
183

@<SCITEGIC>MOL_PROPERTY
Conf_Id
SciTegic.value.IntegerValue
19

@<SCITEGIC>MOL_PROPERTY
Delta U+W
SciTegic.value.DoubleValue
-0.496

@<SCITEGIC>MOL_PROPERTY
U+W
SciTegic.value.DoubleValue
-49.923

@<SCITEGIC>MOL_PROPERTY
Grad RMS
SciTegic.value.DoubleValue
0.000000

@<SCITEGIC>MOL_PROPERTY
U
SciTegic.value.DoubleValue
13.863

@<SCITEGIC>MOL_PROPERTY
W
SciTegic.value.DoubleValue
-63.786

@<SCITEGIC>MOL_PROPERTY
W(PB)
SciTegic.value.DoubleValue
-65.856

@<SCITEGIC>MOL_PROPERTY
W(SA)
SciTegic.value.DoubleValue
2.070

@<SCITEGIC>MOL_PROPERTY
Valence
SciTegic.value.DoubleValue
14.117

@<SCITEGIC>MOL_PROPERTY
Coulomb
SciTegic.value.DoubleValue
-1.228

@<SCITEGIC>MOL_PROPERTY
VdW
SciTegic.value.DoubleValue
0.974

@<SCITEGIC>MOL_PROPERTY
VdW6
SciTegic.value.DoubleValue
-4.885

@<SCITEGIC>MOL_PROPERTY
VdW12
SciTegic.value.DoubleValue
5.859

@<SCITEGIC>MOL_PROPERTY
Bond
SciTegic.value.DoubleValue
0.094

@<SCITEGIC>MOL_PROPERTY
Angle
SciTegic.value.DoubleValue
2.818

@<SCITEGIC>MOL_PROPERTY
Pdih
SciTegic.value.DoubleValue
11.205

@<SCITEGIC>MOL_PROPERTY
Idih
SciTegic.value.DoubleValue
0.000

@<SCITEGIC>MOL_PROPERTY
Tether
SciTegic.value.DoubleValue
0.000

@<TRIPOS>MOLECULE
guest-s20_confgen4.mol2 : confsearch ligand conformer 184
          17          16           1
SMALL
USER_CHARGES
 
@<TRIPOS>ATOM
       1    C1      20.531147   21.945421   21.787113 C.2        1 MOL1         0.6132
       2    O1      21.127694   22.279400   22.791804 O.co2      1 MOL1        -0.6749
       3    O2      20.854473   22.290554   20.667584 O.co2      1 MOL1        -0.6749
       4    C2      19.304912   21.054606   21.937523 C.3        1 MOL1        -0.1955
       5    H1      18.534401   21.427554   21.252900 H          1 MOL1         0.0733
       6    H2      18.915539   21.175693   22.955550 H          1 MOL1         0.0733
       7    C3      19.605224   19.597879   21.639997 C.2        1 MOL1        -0.1395
       8    H3      19.849852   19.376186   20.601621 H          1 MOL1         0.0816
       9    C4      19.590156   18.625367   22.556627 C.2        1 MOL1        -0.1394
      10    H4      19.350516   18.848477   23.595787 H          1 MOL1         0.0816
      11    C5      19.892786   17.173880   22.258404 C.3        1 MOL1        -0.1826
      12    H5      19.117785   16.534511   22.702367 H          1 MOL1         0.0736
      13    H6      19.870067   16.991173   21.175210 H          1 MOL1         0.0736
      14    C6      21.272338   16.770698   22.814527 C.3        1 MOL1        -0.2882
      15    H7      21.310683   16.906652   23.903321 H          1 MOL1         0.0749
      16    H8      21.487024   15.716766   22.594970 H          1 MOL1         0.0749
      17    H9      22.066982   17.381190   22.365616 H          1 MOL1         0.0749
@<TRIPOS>BOND
    1     1     2    1
    2     1     3    2
    3     1     4    1
    4     4     5    1
    5     4     6    1
    6     4     7    1
    7     7     8    1
    8     7     9    2
    9     9    10    1
   10     9    11    1
   11    11    12    1
   12    11    13    1
   13    11    14    1
   14    14    15    1
   15    14    16    1
   16    14    17    1
@<TRIPOS>SUBSTRUCTURE
       1 MOL1            1 RESIDUE      1      MOL     
@<SCITEGIC>MOL_PROPERTY
VConf Rank
SciTegic.value.IntegerValue
184

@<SCITEGIC>MOL_PROPERTY
Conf_Id
SciTegic.value.IntegerValue
7

@<SCITEGIC>MOL_PROPERTY
Delta U+W
SciTegic.value.DoubleValue
-0.041

@<SCITEGIC>MOL_PROPERTY
U+W
SciTegic.value.DoubleValue
-49.468

@<SCITEGIC>MOL_PROPERTY
Grad RMS
SciTegic.value.DoubleValue
0.000000

@<SCITEGIC>MOL_PROPERTY
U
SciTegic.value.DoubleValue
14.121

@<SCITEGIC>MOL_PROPERTY
W
SciTegic.value.DoubleValue
-63.589

@<SCITEGIC>MOL_PROPERTY
W(PB)
SciTegic.value.DoubleValue
-65.660

@<SCITEGIC>MOL_PROPERTY
W(SA)
SciTegic.value.DoubleValue
2.071

@<SCITEGIC>MOL_PROPERTY
Valence
SciTegic.value.DoubleValue
15.230

@<SCITEGIC>MOL_PROPERTY
Coulomb
SciTegic.value.DoubleValue
-1.333

@<SCITEGIC>MOL_PROPERTY
VdW
SciTegic.value.DoubleValue
0.224

@<SCITEGIC>MOL_PROPERTY
VdW6
SciTegic.value.DoubleValue
-4.212

@<SCITEGIC>MOL_PROPERTY
VdW12
SciTegic.value.DoubleValue
4.436

@<SCITEGIC>MOL_PROPERTY
Bond
SciTegic.value.DoubleValue
0.044

@<SCITEGIC>MOL_PROPERTY
Angle
SciTegic.value.DoubleValue
2.230

@<SCITEGIC>MOL_PROPERTY
Pdih
SciTegic.value.DoubleValue
12.956

@<SCITEGIC>MOL_PROPERTY
Idih
SciTegic.value.DoubleValue
0.000

@<SCITEGIC>MOL_PROPERTY
Tether
SciTegic.value.DoubleValue
0.000

@<TRIPOS>MOLECULE
guest-s20_confgen4.mol2 : confsearch ligand conformer 185
          17          16           1
SMALL
USER_CHARGES
 
@<TRIPOS>ATOM
       1    C1      22.775076   18.800265   22.903623 C.2        1 MOL1         0.6132
       2    O1      23.127310   19.907328   23.260462 O.co2      1 MOL1        -0.6749
       3    O2      23.346323   18.158723   22.043865 O.co2      1 MOL1        -0.6749
       4    C2      21.567641   18.170332   23.591273 C.3        1 MOL1        -0.1955
       5    H1      21.546132   18.528016   24.627308 H          1 MOL1         0.0733
       6    H2      21.740394   17.089348   23.649154 H          1 MOL1         0.0733
       7    C3      20.222245   18.437456   22.931400 C.2        1 MOL1        -0.1395
       8    H3      19.374139   17.978698   23.438158 H          1 MOL1         0.0816
       9    C4      20.018624   19.163841   21.826004 C.2        1 MOL1        -0.1394
      10    H4      20.849079   19.634043   21.300658 H          1 MOL1         0.0816
      11    C5      18.657801   19.398119   21.208578 C.3        1 MOL1        -0.1826
      12    H5      18.702867   19.204513   20.128298 H          1 MOL1         0.0736
      13    H6      17.920591   18.697207   21.623786 H          1 MOL1         0.0736
      14    C6      18.180829   20.843214   21.451961 C.3        1 MOL1        -0.2882
      15    H7      17.193767   21.007949   21.000707 H          1 MOL1         0.0749
      16    H8      18.103366   21.052205   22.527097 H          1 MOL1         0.0749
      17    H9      18.881221   21.565816   21.012922 H          1 MOL1         0.0749
@<TRIPOS>BOND
    1     1     2    1
    2     1     3    2
    3     1     4    1
    4     4     5    1
    5     4     6    1
    6     4     7    1
    7     7     8    1
    8     7     9    2
    9     9    10    1
   10     9    11    1
   11    11    12    1
   12    11    13    1
   13    11    14    1
   14    14    15    1
   15    14    16    1
   16    14    17    1
@<TRIPOS>SUBSTRUCTURE
       1 MOL1            1 RESIDUE      1      MOL     
@<SCITEGIC>MOL_PROPERTY
VConf Rank
SciTegic.value.IntegerValue
185

@<SCITEGIC>MOL_PROPERTY
Conf_Id
SciTegic.value.IntegerValue
39

@<SCITEGIC>MOL_PROPERTY
Delta U+W
SciTegic.value.DoubleValue
-0.422

@<SCITEGIC>MOL_PROPERTY
U+W
SciTegic.value.DoubleValue
-49.849

@<SCITEGIC>MOL_PROPERTY
Grad RMS
SciTegic.value.DoubleValue
0.000000

@<SCITEGIC>MOL_PROPERTY
U
SciTegic.value.DoubleValue
14.465

@<SCITEGIC>MOL_PROPERTY
W
SciTegic.value.DoubleValue
-64.314

@<SCITEGIC>MOL_PROPERTY
W(PB)
SciTegic.value.DoubleValue
-66.406

@<SCITEGIC>MOL_PROPERTY
W(SA)
SciTegic.value.DoubleValue
2.093

@<SCITEGIC>MOL_PROPERTY
Valence
SciTegic.value.DoubleValue
14.072

@<SCITEGIC>MOL_PROPERTY
Coulomb
SciTegic.value.DoubleValue
-0.199

@<SCITEGIC>MOL_PROPERTY
VdW
SciTegic.value.DoubleValue
0.592

@<SCITEGIC>MOL_PROPERTY
VdW6
SciTegic.value.DoubleValue
-5.019

@<SCITEGIC>MOL_PROPERTY
VdW12
SciTegic.value.DoubleValue
5.611

@<SCITEGIC>MOL_PROPERTY
Bond
SciTegic.value.DoubleValue
0.085

@<SCITEGIC>MOL_PROPERTY
Angle
SciTegic.value.DoubleValue
2.748

@<SCITEGIC>MOL_PROPERTY
Pdih
SciTegic.value.DoubleValue
11.238

@<SCITEGIC>MOL_PROPERTY
Idih
SciTegic.value.DoubleValue
0.001

@<SCITEGIC>MOL_PROPERTY
Tether
SciTegic.value.DoubleValue
0.000

@<TRIPOS>MOLECULE
guest-s20_confgen4.mol2 : confsearch ligand conformer 186
          17          16           1
SMALL
USER_CHARGES
 
@<TRIPOS>ATOM
       1    C1      21.821449   21.819772   21.329291 C.2        1 MOL1         0.6132
       2    O1      22.888670   21.949609   21.895985 O.co2      1 MOL1        -0.6749
       3    O2      21.071238   22.745130   21.089053 O.co2      1 MOL1        -0.6749
       4    C2      21.406031   20.421121   20.892474 C.3        1 MOL1        -0.1955
       5    H1      22.293476   19.918083   20.491347 H          1 MOL1         0.0733
       6    H2      20.691262   20.517799   20.066399 H          1 MOL1         0.0733
       7    C3      20.816198   19.608700   22.029493 C.2        1 MOL1        -0.1395
       8    H3      21.517083   19.334017   22.817219 H          1 MOL1         0.0816
       9    C4      19.534371   19.237186   22.101079 C.2        1 MOL1        -0.1394
      10    H4      18.833408   19.514736   21.314519 H          1 MOL1         0.0816
      11    C5      18.947164   18.430306   23.237500 C.3        1 MOL1        -0.1826
      12    H5      19.635519   18.414810   24.093741 H          1 MOL1         0.0736
      13    H6      18.019560   18.903279   23.587333 H          1 MOL1         0.0736
      14    C6      18.651176   16.984110   22.794818 C.3        1 MOL1        -0.2882
      15    H7      19.569909   16.481758   22.464402 H          1 MOL1         0.0749
      16    H8      18.224725   16.403783   23.623338 H          1 MOL1         0.0749
      17    H9      17.934474   16.967908   21.963251 H          1 MOL1         0.0749
@<TRIPOS>BOND
    1     1     2    1
    2     1     3    2
    3     1     4    1
    4     4     5    1
    5     4     6    1
    6     4     7    1
    7     7     8    1
    8     7     9    2
    9     9    10    1
   10     9    11    1
   11    11    12    1
   12    11    13    1
   13    11    14    1
   14    14    15    1
   15    14    16    1
   16    14    17    1
@<TRIPOS>SUBSTRUCTURE
       1 MOL1            1 RESIDUE      1      MOL     
@<SCITEGIC>MOL_PROPERTY
VConf Rank
SciTegic.value.IntegerValue
186

@<SCITEGIC>MOL_PROPERTY
Conf_Id
SciTegic.value.IntegerValue
38

@<SCITEGIC>MOL_PROPERTY
Delta U+W
SciTegic.value.DoubleValue
0.000

@<SCITEGIC>MOL_PROPERTY
U+W
SciTegic.value.DoubleValue
-49.427

@<SCITEGIC>MOL_PROPERTY
Grad RMS
SciTegic.value.DoubleValue
0.000000

@<SCITEGIC>MOL_PROPERTY
U
SciTegic.value.DoubleValue
13.666

@<SCITEGIC>MOL_PROPERTY
W
SciTegic.value.DoubleValue
-63.093

@<SCITEGIC>MOL_PROPERTY
W(PB)
SciTegic.value.DoubleValue
-65.225

@<SCITEGIC>MOL_PROPERTY
W(SA)
SciTegic.value.DoubleValue
2.132

@<SCITEGIC>MOL_PROPERTY
Valence
SciTegic.value.DoubleValue
15.226

@<SCITEGIC>MOL_PROPERTY
Coulomb
SciTegic.value.DoubleValue
-1.822

@<SCITEGIC>MOL_PROPERTY
VdW
SciTegic.value.DoubleValue
0.261

@<SCITEGIC>MOL_PROPERTY
VdW6
SciTegic.value.DoubleValue
-4.165

@<SCITEGIC>MOL_PROPERTY
VdW12
SciTegic.value.DoubleValue
4.426

@<SCITEGIC>MOL_PROPERTY
Bond
SciTegic.value.DoubleValue
0.044

@<SCITEGIC>MOL_PROPERTY
Angle
SciTegic.value.DoubleValue
2.229

@<SCITEGIC>MOL_PROPERTY
Pdih
SciTegic.value.DoubleValue
12.953

@<SCITEGIC>MOL_PROPERTY
Idih
SciTegic.value.DoubleValue
0.000

@<SCITEGIC>MOL_PROPERTY
Tether
SciTegic.value.DoubleValue
0.000

@<TRIPOS>MOLECULE
guest-s20_confgen4.mol2 : confsearch ligand conformer 187
          17          16           1
SMALL
USER_CHARGES
 
@<TRIPOS>ATOM
       1    C1      17.447153   20.969632   22.500914 C.2        1 MOL1         0.6132
       2    O1      17.293038   21.694051   21.537439 O.co2      1 MOL1        -0.6749
       3    O2      17.180042   21.299914   23.639565 O.co2      1 MOL1        -0.6749
       4    C2      17.999907   19.569279   22.270527 C.3        1 MOL1        -0.1955
       5    H1      17.787184   19.282753   21.233564 H          1 MOL1         0.0733
       6    H2      17.442774   18.879121   22.914569 H          1 MOL1         0.0733
       7    C3      19.484451   19.474723   22.567061 C.2        1 MOL1        -0.1395
       8    H3      19.757444   19.589074   23.615679 H          1 MOL1         0.0816
       9    C4      20.424178   19.269697   21.639103 C.2        1 MOL1        -0.1394
      10    H4      20.150779   19.158614   20.590306 H          1 MOL1         0.0816
      11    C5      21.904377   19.179646   21.936125 C.3        1 MOL1        -0.1826
      12    H5      22.461790   19.821195   21.240252 H          1 MOL1         0.0736
      13    H6      22.116839   19.552391   22.947629 H          1 MOL1         0.0736
      14    C6      22.406981   17.728128   21.811443 C.3        1 MOL1        -0.2882
      15    H7      22.241730   17.342152   20.796976 H          1 MOL1         0.0749
      16    H8      23.481683   17.669225   22.027386 H          1 MOL1         0.0749
      17    H9      21.881175   17.071508   22.517118 H          1 MOL1         0.0749
@<TRIPOS>BOND
    1     1     2    1
    2     1     3    2
    3     1     4    1
    4     4     5    1
    5     4     6    1
    6     4     7    1
    7     7     8    1
    8     7     9    2
    9     9    10    1
   10     9    11    1
   11    11    12    1
   12    11    13    1
   13    11    14    1
   14    14    15    1
   15    14    16    1
   16    14    17    1
@<TRIPOS>SUBSTRUCTURE
       1 MOL1            1 RESIDUE      1      MOL     
@<SCITEGIC>MOL_PROPERTY
VConf Rank
SciTegic.value.IntegerValue
187

@<SCITEGIC>MOL_PROPERTY
Conf_Id
SciTegic.value.IntegerValue
35

@<SCITEGIC>MOL_PROPERTY
Delta U+W
SciTegic.value.DoubleValue
-0.102

@<SCITEGIC>MOL_PROPERTY
U+W
SciTegic.value.DoubleValue
-49.529

@<SCITEGIC>MOL_PROPERTY
Grad RMS
SciTegic.value.DoubleValue
0.000000

@<SCITEGIC>MOL_PROPERTY
U
SciTegic.value.DoubleValue
13.666

@<SCITEGIC>MOL_PROPERTY
W
SciTegic.value.DoubleValue
-63.195

@<SCITEGIC>MOL_PROPERTY
W(PB)
SciTegic.value.DoubleValue
-65.299

@<SCITEGIC>MOL_PROPERTY
W(SA)
SciTegic.value.DoubleValue
2.103

@<SCITEGIC>MOL_PROPERTY
Valence
SciTegic.value.DoubleValue
15.226

@<SCITEGIC>MOL_PROPERTY
Coulomb
SciTegic.value.DoubleValue
-1.822

@<SCITEGIC>MOL_PROPERTY
VdW
SciTegic.value.DoubleValue
0.261

@<SCITEGIC>MOL_PROPERTY
VdW6
SciTegic.value.DoubleValue
-4.165

@<SCITEGIC>MOL_PROPERTY
VdW12
SciTegic.value.DoubleValue
4.426

@<SCITEGIC>MOL_PROPERTY
Bond
SciTegic.value.DoubleValue
0.044

@<SCITEGIC>MOL_PROPERTY
Angle
SciTegic.value.DoubleValue
2.229

@<SCITEGIC>MOL_PROPERTY
Pdih
SciTegic.value.DoubleValue
12.953

@<SCITEGIC>MOL_PROPERTY
Idih
SciTegic.value.DoubleValue
0.000

@<SCITEGIC>MOL_PROPERTY
Tether
SciTegic.value.DoubleValue
0.000

@<TRIPOS>MOLECULE
guest-s20_confgen4.mol2 : confsearch ligand conformer 188
          17          16           1
SMALL
USER_CHARGES
 
@<TRIPOS>ATOM
       1    C1      20.099052   20.501379   24.796511 C.2        1 MOL1         0.6132
       2    O1      19.252281   19.990115   25.502597 O.co2      1 MOL1        -0.6749
       3    O2      21.208163   20.804852   25.189736 O.co2      1 MOL1        -0.6749
       4    C2      19.745725   20.785024   23.342413 C.3        1 MOL1        -0.1955
       5    H1      20.394516   21.592858   22.983164 H          1 MOL1         0.0733
       6    H2      18.717530   21.163976   23.315572 H          1 MOL1         0.0733
       7    C3      19.869961   19.554321   22.464154 C.2        1 MOL1        -0.1395
       8    H3      19.140092   18.773418   22.670485 H          1 MOL1         0.0816
       9    C4      20.796024   19.409175   21.508094 C.2        1 MOL1        -0.1394
      10    H4      21.512960   20.210756   21.333288 H          1 MOL1         0.0816
      11    C5      20.979615   18.206831   20.597460 C.3        1 MOL1        -0.1826
      12    H5      20.908579   18.536831   19.552205 H          1 MOL1         0.0736
      13    H6      22.001610   17.822333   20.716660 H          1 MOL1         0.0736
      14    C6      19.978500   17.053717   20.830108 C.3        1 MOL1        -0.2882
      15    H7      18.946052   17.389125   20.665929 H          1 MOL1         0.0749
      16    H8      20.177095   16.225928   20.137031 H          1 MOL1         0.0749
      17    H9      20.059112   16.662481   21.852813 H          1 MOL1         0.0749
@<TRIPOS>BOND
    1     1     2    1
    2     1     3    2
    3     1     4    1
    4     4     5    1
    5     4     6    1
    6     4     7    1
    7     7     8    1
    8     7     9    2
    9     9    10    1
   10     9    11    1
   11    11    12    1
   12    11    13    1
   13    11    14    1
   14    14    15    1
   15    14    16    1
   16    14    17    1
@<TRIPOS>SUBSTRUCTURE
       1 MOL1            1 RESIDUE      1      MOL     
@<SCITEGIC>MOL_PROPERTY
VConf Rank
SciTegic.value.IntegerValue
188

@<SCITEGIC>MOL_PROPERTY
Conf_Id
SciTegic.value.IntegerValue
19

@<SCITEGIC>MOL_PROPERTY
Delta U+W
SciTegic.value.DoubleValue
-0.496

@<SCITEGIC>MOL_PROPERTY
U+W
SciTegic.value.DoubleValue
-49.923

@<SCITEGIC>MOL_PROPERTY
Grad RMS
SciTegic.value.DoubleValue
0.000000

@<SCITEGIC>MOL_PROPERTY
U
SciTegic.value.DoubleValue
13.863

@<SCITEGIC>MOL_PROPERTY
W
SciTegic.value.DoubleValue
-63.786

@<SCITEGIC>MOL_PROPERTY
W(PB)
SciTegic.value.DoubleValue
-65.856

@<SCITEGIC>MOL_PROPERTY
W(SA)
SciTegic.value.DoubleValue
2.070

@<SCITEGIC>MOL_PROPERTY
Valence
SciTegic.value.DoubleValue
14.117

@<SCITEGIC>MOL_PROPERTY
Coulomb
SciTegic.value.DoubleValue
-1.228

@<SCITEGIC>MOL_PROPERTY
VdW
SciTegic.value.DoubleValue
0.974

@<SCITEGIC>MOL_PROPERTY
VdW6
SciTegic.value.DoubleValue
-4.885

@<SCITEGIC>MOL_PROPERTY
VdW12
SciTegic.value.DoubleValue
5.859

@<SCITEGIC>MOL_PROPERTY
Bond
SciTegic.value.DoubleValue
0.094

@<SCITEGIC>MOL_PROPERTY
Angle
SciTegic.value.DoubleValue
2.818

@<SCITEGIC>MOL_PROPERTY
Pdih
SciTegic.value.DoubleValue
11.205

@<SCITEGIC>MOL_PROPERTY
Idih
SciTegic.value.DoubleValue
0.000

@<SCITEGIC>MOL_PROPERTY
Tether
SciTegic.value.DoubleValue
0.000

@<TRIPOS>MOLECULE
guest-s20_confgen4.mol2 : confsearch ligand conformer 189
          17          16           1
SMALL
USER_CHARGES
 
@<TRIPOS>ATOM
       1    C1      19.538240   21.235339   24.088847 C.2        1 MOL1         0.6132
       2    O1      18.878513   20.664728   24.935000 O.co2      1 MOL1        -0.6749
       3    O2      20.444372   22.002743   24.347728 O.co2      1 MOL1        -0.6749
       4    C2      19.206234   20.984954   22.623614 C.3        1 MOL1        -0.1955
       5    H1      19.253800   21.947081   22.100611 H          1 MOL1         0.0733
       6    H2      18.168125   20.636910   22.561567 H          1 MOL1         0.0733
       7    C3      20.152146   19.992228   21.975147 C.2        1 MOL1        -0.1395
       8    H3      21.179691   20.335935   21.860117 H          1 MOL1         0.0816
       9    C4      19.794942   18.770788   21.566850 C.2        1 MOL1        -0.1394
      10    H4      18.768499   18.425709   21.686820 H          1 MOL1         0.0816
      11    C5      20.740417   17.781331   20.923121 C.3        1 MOL1        -0.1826
      12    H5      20.282070   17.367178   20.014871 H          1 MOL1         0.0736
      13    H6      21.666101   18.282830   20.608771 H          1 MOL1         0.0736
      14    C6      21.085972   16.634703   21.893084 C.3        1 MOL1        -0.2882
      15    H7      20.181298   16.090287   22.194086 H          1 MOL1         0.0749
      16    H8      21.772580   15.919956   21.421094 H          1 MOL1         0.0749
      17    H9      21.568577   17.023307   22.799594 H          1 MOL1         0.0749
@<TRIPOS>BOND
    1     1     2    1
    2     1     3    2
    3     1     4    1
    4     4     5    1
    5     4     6    1
    6     4     7    1
    7     7     8    1
    8     7     9    2
    9     9    10    1
   10     9    11    1
   11    11    12    1
   12    11    13    1
   13    11    14    1
   14    14    15    1
   15    14    16    1
   16    14    17    1
@<TRIPOS>SUBSTRUCTURE
       1 MOL1            1 RESIDUE      1      MOL     
@<SCITEGIC>MOL_PROPERTY
VConf Rank
SciTegic.value.IntegerValue
189

@<SCITEGIC>MOL_PROPERTY
Conf_Id
SciTegic.value.IntegerValue
7

@<SCITEGIC>MOL_PROPERTY
Delta U+W
SciTegic.value.DoubleValue
-0.041

@<SCITEGIC>MOL_PROPERTY
U+W
SciTegic.value.DoubleValue
-49.468

@<SCITEGIC>MOL_PROPERTY
Grad RMS
SciTegic.value.DoubleValue
0.000000

@<SCITEGIC>MOL_PROPERTY
U
SciTegic.value.DoubleValue
14.121

@<SCITEGIC>MOL_PROPERTY
W
SciTegic.value.DoubleValue
-63.589

@<SCITEGIC>MOL_PROPERTY
W(PB)
SciTegic.value.DoubleValue
-65.660

@<SCITEGIC>MOL_PROPERTY
W(SA)
SciTegic.value.DoubleValue
2.071

@<SCITEGIC>MOL_PROPERTY
Valence
SciTegic.value.DoubleValue
15.230

@<SCITEGIC>MOL_PROPERTY
Coulomb
SciTegic.value.DoubleValue
-1.333

@<SCITEGIC>MOL_PROPERTY
VdW
SciTegic.value.DoubleValue
0.224

@<SCITEGIC>MOL_PROPERTY
VdW6
SciTegic.value.DoubleValue
-4.212

@<SCITEGIC>MOL_PROPERTY
VdW12
SciTegic.value.DoubleValue
4.436

@<SCITEGIC>MOL_PROPERTY
Bond
SciTegic.value.DoubleValue
0.044

@<SCITEGIC>MOL_PROPERTY
Angle
SciTegic.value.DoubleValue
2.230

@<SCITEGIC>MOL_PROPERTY
Pdih
SciTegic.value.DoubleValue
12.956

@<SCITEGIC>MOL_PROPERTY
Idih
SciTegic.value.DoubleValue
0.000

@<SCITEGIC>MOL_PROPERTY
Tether
SciTegic.value.DoubleValue
0.000

@<TRIPOS>MOLECULE
guest-s20_confgen4.mol2 : confsearch ligand conformer 190
          17          16           1
SMALL
USER_CHARGES
 
@<TRIPOS>ATOM
       1    C1      17.718951   18.013756   22.745024 C.2        1 MOL1         0.6132
       2    O1      17.609061   17.337244   21.741407 O.co2      1 MOL1        -0.6749
       3    O2      16.865201   18.788907   23.128864 O.co2      1 MOL1        -0.6749
       4    C2      18.984528   17.861398   23.583284 C.3        1 MOL1        -0.1955
       5    H1      19.327244   16.824330   23.489451 H          1 MOL1         0.0733
       6    H2      18.707953   17.993358   24.635811 H          1 MOL1         0.0733
       7    C3      20.123144   18.808614   23.232267 C.2        1 MOL1        -0.1395
       8    H3      21.016593   18.683027   23.842614 H          1 MOL1         0.0816
       9    C4      20.104310   19.738956   22.270444 C.2        1 MOL1        -0.1394
      10    H4      19.224048   19.884487   21.645389 H          1 MOL1         0.0816
      11    C5      21.265280   20.658281   21.962334 C.3        1 MOL1        -0.1826
      12    H5      20.907392   21.693896   21.885281 H          1 MOL1         0.0736
      13    H6      21.999529   20.638655   22.779430 H          1 MOL1         0.0736
      14    C6      21.956825   20.254503   20.645608 C.3        1 MOL1        -0.2882
      15    H7      22.797393   20.925639   20.426329 H          1 MOL1         0.0749
      16    H8      22.346089   19.229732   20.708145 H          1 MOL1         0.0749
      17    H9      21.253866   20.302288   19.803573 H          1 MOL1         0.0749
@<TRIPOS>BOND
    1     1     2    1
    2     1     3    2
    3     1     4    1
    4     4     5    1
    5     4     6    1
    6     4     7    1
    7     7     8    1
    8     7     9    2
    9     9    10    1
   10     9    11    1
   11    11    12    1
   12    11    13    1
   13    11    14    1
   14    14    15    1
   15    14    16    1
   16    14    17    1
@<TRIPOS>SUBSTRUCTURE
       1 MOL1            1 RESIDUE      1      MOL     
@<SCITEGIC>MOL_PROPERTY
VConf Rank
SciTegic.value.IntegerValue
190

@<SCITEGIC>MOL_PROPERTY
Conf_Id
SciTegic.value.IntegerValue
39

@<SCITEGIC>MOL_PROPERTY
Delta U+W
SciTegic.value.DoubleValue
-0.422

@<SCITEGIC>MOL_PROPERTY
U+W
SciTegic.value.DoubleValue
-49.849

@<SCITEGIC>MOL_PROPERTY
Grad RMS
SciTegic.value.DoubleValue
0.000000

@<SCITEGIC>MOL_PROPERTY
U
SciTegic.value.DoubleValue
14.465

@<SCITEGIC>MOL_PROPERTY
W
SciTegic.value.DoubleValue
-64.314

@<SCITEGIC>MOL_PROPERTY
W(PB)
SciTegic.value.DoubleValue
-66.406

@<SCITEGIC>MOL_PROPERTY
W(SA)
SciTegic.value.DoubleValue
2.093

@<SCITEGIC>MOL_PROPERTY
Valence
SciTegic.value.DoubleValue
14.072

@<SCITEGIC>MOL_PROPERTY
Coulomb
SciTegic.value.DoubleValue
-0.199

@<SCITEGIC>MOL_PROPERTY
VdW
SciTegic.value.DoubleValue
0.592

@<SCITEGIC>MOL_PROPERTY
VdW6
SciTegic.value.DoubleValue
-5.019

@<SCITEGIC>MOL_PROPERTY
VdW12
SciTegic.value.DoubleValue
5.611

@<SCITEGIC>MOL_PROPERTY
Bond
SciTegic.value.DoubleValue
0.085

@<SCITEGIC>MOL_PROPERTY
Angle
SciTegic.value.DoubleValue
2.748

@<SCITEGIC>MOL_PROPERTY
Pdih
SciTegic.value.DoubleValue
11.238

@<SCITEGIC>MOL_PROPERTY
Idih
SciTegic.value.DoubleValue
0.001

@<SCITEGIC>MOL_PROPERTY
Tether
SciTegic.value.DoubleValue
0.000

@<TRIPOS>MOLECULE
guest-s20_confgen4.mol2 : confsearch ligand conformer 191
          17          16           1
SMALL
USER_CHARGES
 
@<TRIPOS>ATOM
       1    C1      18.910194   18.405147   19.308025 C.2        1 MOL1         0.6132
       2    O1      19.660268   18.465140   18.353693 O.co2      1 MOL1        -0.6749
       3    O2      17.737941   18.722248   19.262321 O.co2      1 MOL1        -0.6749
       4    C2      19.470573   17.899651   20.630921 C.3        1 MOL1        -0.1955
       5    H1      20.133195   17.054160   20.412778 H          1 MOL1         0.0733
       6    H2      18.638559   17.509092   21.229131 H          1 MOL1         0.0733
       7    C3      20.228239   18.973064   21.388860 C.2        1 MOL1        -0.1395
       8    H3      21.160762   19.297427   20.928000 H          1 MOL1         0.0816
       9    C4      19.816626   19.511652   22.540695 C.2        1 MOL1        -0.1394
      10    H4      18.882564   19.188965   22.999456 H          1 MOL1         0.0816
      11    C5      20.571566   20.584606   23.293129 C.3        1 MOL1        -0.1826
      12    H5      21.345409   21.030659   22.653267 H          1 MOL1         0.0736
      13    H6      19.885006   21.396169   23.569781 H          1 MOL1         0.0736
      14    C6      21.228516   20.011767   24.564086 C.3        1 MOL1        -0.2882
      15    H7      21.939594   19.214641   24.309999 H          1 MOL1         0.0749
      16    H8      21.774236   20.795021   25.106108 H          1 MOL1         0.0749
      17    H9      20.472466   19.592701   25.240990 H          1 MOL1         0.0749
@<TRIPOS>BOND
    1     1     2    1
    2     1     3    2
    3     1     4    1
    4     4     5    1
    5     4     6    1
    6     4     7    1
    7     7     8    1
    8     7     9    2
    9     9    10    1
   10     9    11    1
   11    11    12    1
   12    11    13    1
   13    11    14    1
   14    14    15    1
   15    14    16    1
   16    14    17    1
@<TRIPOS>SUBSTRUCTURE
       1 MOL1            1 RESIDUE      1      MOL     
@<SCITEGIC>MOL_PROPERTY
VConf Rank
SciTegic.value.IntegerValue
191

@<SCITEGIC>MOL_PROPERTY
Conf_Id
SciTegic.value.IntegerValue
38

@<SCITEGIC>MOL_PROPERTY
Delta U+W
SciTegic.value.DoubleValue
0.000

@<SCITEGIC>MOL_PROPERTY
U+W
SciTegic.value.DoubleValue
-49.427

@<SCITEGIC>MOL_PROPERTY
Grad RMS
SciTegic.value.DoubleValue
0.000000

@<SCITEGIC>MOL_PROPERTY
U
SciTegic.value.DoubleValue
13.666

@<SCITEGIC>MOL_PROPERTY
W
SciTegic.value.DoubleValue
-63.093

@<SCITEGIC>MOL_PROPERTY
W(PB)
SciTegic.value.DoubleValue
-65.225

@<SCITEGIC>MOL_PROPERTY
W(SA)
SciTegic.value.DoubleValue
2.132

@<SCITEGIC>MOL_PROPERTY
Valence
SciTegic.value.DoubleValue
15.226

@<SCITEGIC>MOL_PROPERTY
Coulomb
SciTegic.value.DoubleValue
-1.822

@<SCITEGIC>MOL_PROPERTY
VdW
SciTegic.value.DoubleValue
0.261

@<SCITEGIC>MOL_PROPERTY
VdW6
SciTegic.value.DoubleValue
-4.165

@<SCITEGIC>MOL_PROPERTY
VdW12
SciTegic.value.DoubleValue
4.426

@<SCITEGIC>MOL_PROPERTY
Bond
SciTegic.value.DoubleValue
0.044

@<SCITEGIC>MOL_PROPERTY
Angle
SciTegic.value.DoubleValue
2.229

@<SCITEGIC>MOL_PROPERTY
Pdih
SciTegic.value.DoubleValue
12.953

@<SCITEGIC>MOL_PROPERTY
Idih
SciTegic.value.DoubleValue
0.000

@<SCITEGIC>MOL_PROPERTY
Tether
SciTegic.value.DoubleValue
0.000

@<TRIPOS>MOLECULE
guest-s20_confgen4.mol2 : confsearch ligand conformer 192
          17          16           1
SMALL
USER_CHARGES
 
@<TRIPOS>ATOM
       1    C1      18.131171   20.611098   20.009644 C.2        1 MOL1         0.6132
       2    O1      18.454295   20.269820   18.888957 O.co2      1 MOL1        -0.6749
       3    O2      17.724515   21.723401   20.282359 O.co2      1 MOL1        -0.6749
       4    C2      18.235589   19.589181   21.134093 C.3        1 MOL1        -0.1955
       5    H1      18.193208   18.586648   20.691633 H          1 MOL1         0.0733
       6    H2      17.348280   19.697395   21.768506 H          1 MOL1         0.0733
       7    C3      19.493367   19.764640   21.963522 C.2        1 MOL1        -0.1395
       8    H3      19.532074   20.673665   22.563003 H          1 MOL1         0.0816
       9    C4      20.506560   18.893315   21.984972 C.2        1 MOL1        -0.1394
      10    H4      20.468587   17.986096   21.382833 H          1 MOL1         0.0816
      11    C5      21.761713   19.071870   22.809612 C.3        1 MOL1        -0.1826
      12    H5      22.645723   18.893066   22.182645 H          1 MOL1         0.0736
      13    H6      21.837967   20.105345   23.174761 H          1 MOL1         0.0736
      14    C6      21.778522   18.104553   24.009227 C.3        1 MOL1        -0.2882
      15    H7      21.741873   17.060613   23.671183 H          1 MOL1         0.0749
      16    H8      22.691871   18.238287   24.603362 H          1 MOL1         0.0749
      17    H9      20.916211   18.282112   24.665346 H          1 MOL1         0.0749
@<TRIPOS>BOND
    1     1     2    1
    2     1     3    2
    3     1     4    1
    4     4     5    1
    5     4     6    1
    6     4     7    1
    7     7     8    1
    8     7     9    2
    9     9    10    1
   10     9    11    1
   11    11    12    1
   12    11    13    1
   13    11    14    1
   14    14    15    1
   15    14    16    1
   16    14    17    1
@<TRIPOS>SUBSTRUCTURE
       1 MOL1            1 RESIDUE      1      MOL     
@<SCITEGIC>MOL_PROPERTY
VConf Rank
SciTegic.value.IntegerValue
192

@<SCITEGIC>MOL_PROPERTY
Conf_Id
SciTegic.value.IntegerValue
35

@<SCITEGIC>MOL_PROPERTY
Delta U+W
SciTegic.value.DoubleValue
-0.102

@<SCITEGIC>MOL_PROPERTY
U+W
SciTegic.value.DoubleValue
-49.529

@<SCITEGIC>MOL_PROPERTY
Grad RMS
SciTegic.value.DoubleValue
0.000000

@<SCITEGIC>MOL_PROPERTY
U
SciTegic.value.DoubleValue
13.666

@<SCITEGIC>MOL_PROPERTY
W
SciTegic.value.DoubleValue
-63.195

@<SCITEGIC>MOL_PROPERTY
W(PB)
SciTegic.value.DoubleValue
-65.299

@<SCITEGIC>MOL_PROPERTY
W(SA)
SciTegic.value.DoubleValue
2.103

@<SCITEGIC>MOL_PROPERTY
Valence
SciTegic.value.DoubleValue
15.226

@<SCITEGIC>MOL_PROPERTY
Coulomb
SciTegic.value.DoubleValue
-1.822

@<SCITEGIC>MOL_PROPERTY
VdW
SciTegic.value.DoubleValue
0.261

@<SCITEGIC>MOL_PROPERTY
VdW6
SciTegic.value.DoubleValue
-4.165

@<SCITEGIC>MOL_PROPERTY
VdW12
SciTegic.value.DoubleValue
4.426

@<SCITEGIC>MOL_PROPERTY
Bond
SciTegic.value.DoubleValue
0.044

@<SCITEGIC>MOL_PROPERTY
Angle
SciTegic.value.DoubleValue
2.229

@<SCITEGIC>MOL_PROPERTY
Pdih
SciTegic.value.DoubleValue
12.953

@<SCITEGIC>MOL_PROPERTY
Idih
SciTegic.value.DoubleValue
0.000

@<SCITEGIC>MOL_PROPERTY
Tether
SciTegic.value.DoubleValue
0.000

@<TRIPOS>MOLECULE
guest-s20_confgen4.mol2 : confsearch ligand conformer 193
          17          16           1
SMALL
USER_CHARGES
 
@<TRIPOS>ATOM
       1    C1      17.683342   20.595405   22.068483 C.2        1 MOL1         0.6132
       2    O1      17.842199   21.718716   22.504268 O.co2      1 MOL1        -0.6749
       3    O2      17.079233   20.351834   21.042532 O.co2      1 MOL1        -0.6749
       4    C2      18.265737   19.430147   22.857586 C.3        1 MOL1        -0.1955
       5    H1      17.699044   18.526419   22.603183 H          1 MOL1         0.0733
       6    H2      18.093407   19.627312   23.921982 H          1 MOL1         0.0733
       7    C3      19.747635   19.235932   22.597463 C.2        1 MOL1        -0.1395
       8    H3      20.383569   20.035149   22.974200 H          1 MOL1         0.0816
       9    C4      20.261098   18.179944   21.954068 C.2        1 MOL1        -0.1394
      10    H4      19.592704   17.401619   21.587265 H          1 MOL1         0.0816
      11    C5      21.728994   17.924176   21.656656 C.3        1 MOL1        -0.1826
      12    H5      22.018934   16.959545   22.094750 H          1 MOL1         0.0736
      13    H6      21.857532   17.806247   20.572178 H          1 MOL1         0.0736
      14    C6      22.696705   19.017183   22.161530 C.3        1 MOL1        -0.2882
      15    H7      22.634531   19.125220   23.252339 H          1 MOL1         0.0749
      16    H8      23.733402   18.760387   21.907866 H          1 MOL1         0.0749
      17    H9      22.468799   19.987885   21.701872 H          1 MOL1         0.0749
@<TRIPOS>BOND
    1     1     2    1
    2     1     3    2
    3     1     4    1
    4     4     5    1
    5     4     6    1
    6     4     7    1
    7     7     8    1
    8     7     9    2
    9     9    10    1
   10     9    11    1
   11    11    12    1
   12    11    13    1
   13    11    14    1
   14    14    15    1
   15    14    16    1
   16    14    17    1
@<TRIPOS>SUBSTRUCTURE
       1 MOL1            1 RESIDUE      1      MOL     
@<SCITEGIC>MOL_PROPERTY
VConf Rank
SciTegic.value.IntegerValue
193

@<SCITEGIC>MOL_PROPERTY
Conf_Id
SciTegic.value.IntegerValue
19

@<SCITEGIC>MOL_PROPERTY
Delta U+W
SciTegic.value.DoubleValue
-0.496

@<SCITEGIC>MOL_PROPERTY
U+W
SciTegic.value.DoubleValue
-49.923

@<SCITEGIC>MOL_PROPERTY
Grad RMS
SciTegic.value.DoubleValue
0.000000

@<SCITEGIC>MOL_PROPERTY
U
SciTegic.value.DoubleValue
13.863

@<SCITEGIC>MOL_PROPERTY
W
SciTegic.value.DoubleValue
-63.786

@<SCITEGIC>MOL_PROPERTY
W(PB)
SciTegic.value.DoubleValue
-65.856

@<SCITEGIC>MOL_PROPERTY
W(SA)
SciTegic.value.DoubleValue
2.070

@<SCITEGIC>MOL_PROPERTY
Valence
SciTegic.value.DoubleValue
14.117

@<SCITEGIC>MOL_PROPERTY
Coulomb
SciTegic.value.DoubleValue
-1.228

@<SCITEGIC>MOL_PROPERTY
VdW
SciTegic.value.DoubleValue
0.974

@<SCITEGIC>MOL_PROPERTY
VdW6
SciTegic.value.DoubleValue
-4.885

@<SCITEGIC>MOL_PROPERTY
VdW12
SciTegic.value.DoubleValue
5.859

@<SCITEGIC>MOL_PROPERTY
Bond
SciTegic.value.DoubleValue
0.094

@<SCITEGIC>MOL_PROPERTY
Angle
SciTegic.value.DoubleValue
2.818

@<SCITEGIC>MOL_PROPERTY
Pdih
SciTegic.value.DoubleValue
11.205

@<SCITEGIC>MOL_PROPERTY
Idih
SciTegic.value.DoubleValue
0.000

@<SCITEGIC>MOL_PROPERTY
Tether
SciTegic.value.DoubleValue
0.000

@<TRIPOS>MOLECULE
guest-s20_confgen4.mol2 : confsearch ligand conformer 194
          17          16           1
SMALL
USER_CHARGES
 
@<TRIPOS>ATOM
       1    C1      20.544645   19.645383   25.063577 C.2        1 MOL1         0.6132
       2    O1      21.742945   19.494060   25.197708 O.co2      1 MOL1        -0.6749
       3    O2      19.933112   20.595708   25.510692 O.co2      1 MOL1        -0.6749
       4    C2      19.762837   18.582057   24.303354 C.3        1 MOL1        -0.1955
       5    H1      18.826219   18.404600   24.844411 H          1 MOL1         0.0733
       6    H2      20.334521   17.646769   24.336043 H          1 MOL1         0.0733
       7    C3      19.468538   18.989617   22.872255 C.2        1 MOL1        -0.1395
       8    H3      18.775829   19.823034   22.759179 H          1 MOL1         0.0816
       9    C4      20.004462   18.401576   21.798379 C.2        1 MOL1        -0.1394
      10    H4      20.701058   17.571601   21.912194 H          1 MOL1         0.0816
      11    C5      19.711924   18.811433   20.372274 C.3        1 MOL1        -0.1826
      12    H5      19.475091   17.922584   19.771957 H          1 MOL1         0.0736
      13    H6      18.828177   19.463102   20.333193 H          1 MOL1         0.0736
      14    C6      20.915072   19.546293   19.749853 C.3        1 MOL1        -0.2882
      15    H7      21.804755   18.903020   19.740399 H          1 MOL1         0.0749
      16    H8      20.697242   19.841793   18.715301 H          1 MOL1         0.0749
      17    H9      21.155150   20.453378   20.320152 H          1 MOL1         0.0749
@<TRIPOS>BOND
    1     1     2    1
    2     1     3    2
    3     1     4    1
    4     4     5    1
    5     4     6    1
    6     4     7    1
    7     7     8    1
    8     7     9    2
    9     9    10    1
   10     9    11    1
   11    11    12    1
   12    11    13    1
   13    11    14    1
   14    14    15    1
   15    14    16    1
   16    14    17    1
@<TRIPOS>SUBSTRUCTURE
       1 MOL1            1 RESIDUE      1      MOL     
@<SCITEGIC>MOL_PROPERTY
VConf Rank
SciTegic.value.IntegerValue
194

@<SCITEGIC>MOL_PROPERTY
Conf_Id
SciTegic.value.IntegerValue
7

@<SCITEGIC>MOL_PROPERTY
Delta U+W
SciTegic.value.DoubleValue
-0.041

@<SCITEGIC>MOL_PROPERTY
U+W
SciTegic.value.DoubleValue
-49.468

@<SCITEGIC>MOL_PROPERTY
Grad RMS
SciTegic.value.DoubleValue
0.000000

@<SCITEGIC>MOL_PROPERTY
U
SciTegic.value.DoubleValue
14.121

@<SCITEGIC>MOL_PROPERTY
W
SciTegic.value.DoubleValue
-63.589

@<SCITEGIC>MOL_PROPERTY
W(PB)
SciTegic.value.DoubleValue
-65.660

@<SCITEGIC>MOL_PROPERTY
W(SA)
SciTegic.value.DoubleValue
2.071

@<SCITEGIC>MOL_PROPERTY
Valence
SciTegic.value.DoubleValue
15.230

@<SCITEGIC>MOL_PROPERTY
Coulomb
SciTegic.value.DoubleValue
-1.333

@<SCITEGIC>MOL_PROPERTY
VdW
SciTegic.value.DoubleValue
0.224

@<SCITEGIC>MOL_PROPERTY
VdW6
SciTegic.value.DoubleValue
-4.212

@<SCITEGIC>MOL_PROPERTY
VdW12
SciTegic.value.DoubleValue
4.436

@<SCITEGIC>MOL_PROPERTY
Bond
SciTegic.value.DoubleValue
0.044

@<SCITEGIC>MOL_PROPERTY
Angle
SciTegic.value.DoubleValue
2.230

@<SCITEGIC>MOL_PROPERTY
Pdih
SciTegic.value.DoubleValue
12.956

@<SCITEGIC>MOL_PROPERTY
Idih
SciTegic.value.DoubleValue
0.000

@<SCITEGIC>MOL_PROPERTY
Tether
SciTegic.value.DoubleValue
0.000

@<TRIPOS>MOLECULE
guest-s20_confgen4.mol2 : confsearch ligand conformer 195
          17          16           1
SMALL
USER_CHARGES
 
@<TRIPOS>ATOM
       1    C1      21.670721   17.355031   21.011279 C.2        1 MOL1         0.6132
       2    O1      21.767793   16.524330   21.893042 O.co2      1 MOL1        -0.6749
       3    O2      22.626142   17.838599   20.436460 O.co2      1 MOL1        -0.6749
       4    C2      20.273557   17.793952   20.583662 C.3        1 MOL1        -0.1955
       5    H1      19.598397   16.940067   20.713307 H          1 MOL1         0.0733
       6    H2      20.300199   17.996293   19.506597 H          1 MOL1         0.0733
       7    C3      19.711962   19.004113   21.316464 C.2        1 MOL1        -0.1395
       8    H3      18.714005   19.300452   20.995820 H          1 MOL1         0.0816
       9    C4      20.328842   19.694828   22.282573 C.2        1 MOL1        -0.1394
      10    H4      21.326432   19.419002   22.622378 H          1 MOL1         0.0816
      11    C5      19.725789   20.894198   22.979551 C.3        1 MOL1        -0.1826
      12    H5      20.457610   21.712826   23.007958 H          1 MOL1         0.0736
      13    H6      18.856717   21.267771   22.420703 H          1 MOL1         0.0736
      14    C6      19.294559   20.540648   24.416242 C.3        1 MOL1        -0.2882
      15    H7      18.859066   21.414753   24.917584 H          1 MOL1         0.0749
      16    H8      18.542696   19.740476   24.411719 H          1 MOL1         0.0749
      17    H9      20.152921   20.199732   25.009916 H          1 MOL1         0.0749
@<TRIPOS>BOND
    1     1     2    1
    2     1     3    2
    3     1     4    1
    4     4     5    1
    5     4     6    1
    6     4     7    1
    7     7     8    1
    8     7     9    2
    9     9    10    1
   10     9    11    1
   11    11    12    1
   12    11    13    1
   13    11    14    1
   14    14    15    1
   15    14    16    1
   16    14    17    1
@<TRIPOS>SUBSTRUCTURE
       1 MOL1            1 RESIDUE      1      MOL     
@<SCITEGIC>MOL_PROPERTY
VConf Rank
SciTegic.value.IntegerValue
195

@<SCITEGIC>MOL_PROPERTY
Conf_Id
SciTegic.value.IntegerValue
39

@<SCITEGIC>MOL_PROPERTY
Delta U+W
SciTegic.value.DoubleValue
-0.422

@<SCITEGIC>MOL_PROPERTY
U+W
SciTegic.value.DoubleValue
-49.849

@<SCITEGIC>MOL_PROPERTY
Grad RMS
SciTegic.value.DoubleValue
0.000000

@<SCITEGIC>MOL_PROPERTY
U
SciTegic.value.DoubleValue
14.465

@<SCITEGIC>MOL_PROPERTY
W
SciTegic.value.DoubleValue
-64.314

@<SCITEGIC>MOL_PROPERTY
W(PB)
SciTegic.value.DoubleValue
-66.406

@<SCITEGIC>MOL_PROPERTY
W(SA)
SciTegic.value.DoubleValue
2.093

@<SCITEGIC>MOL_PROPERTY
Valence
SciTegic.value.DoubleValue
14.072

@<SCITEGIC>MOL_PROPERTY
Coulomb
SciTegic.value.DoubleValue
-0.199

@<SCITEGIC>MOL_PROPERTY
VdW
SciTegic.value.DoubleValue
0.592

@<SCITEGIC>MOL_PROPERTY
VdW6
SciTegic.value.DoubleValue
-5.019

@<SCITEGIC>MOL_PROPERTY
VdW12
SciTegic.value.DoubleValue
5.611

@<SCITEGIC>MOL_PROPERTY
Bond
SciTegic.value.DoubleValue
0.085

@<SCITEGIC>MOL_PROPERTY
Angle
SciTegic.value.DoubleValue
2.748

@<SCITEGIC>MOL_PROPERTY
Pdih
SciTegic.value.DoubleValue
11.238

@<SCITEGIC>MOL_PROPERTY
Idih
SciTegic.value.DoubleValue
0.001

@<SCITEGIC>MOL_PROPERTY
Tether
SciTegic.value.DoubleValue
0.000

@<TRIPOS>MOLECULE
guest-s20_confgen4.mol2 : confsearch ligand conformer 196
          17          16           1
SMALL
USER_CHARGES
 
@<TRIPOS>ATOM
       1    C1      19.914635   17.663823   24.823373 C.2        1 MOL1         0.6132
       2    O1      19.801902   16.457158   24.732762 O.co2      1 MOL1        -0.6749
       3    O2      19.316482   18.335083   25.640956 O.co2      1 MOL1        -0.6749
       4    C2      20.861725   18.370543   23.862554 C.3        1 MOL1        -0.1955
       5    H1      21.760902   17.751652   23.762729 H          1 MOL1         0.0733
       6    H2      21.172901   19.316738   24.321384 H          1 MOL1         0.0733
       7    C3      20.237840   18.606232   22.500216 C.2        1 MOL1        -0.1395
       8    H3      20.048291   17.707699   21.913776 H          1 MOL1         0.0816
       9    C4      19.924725   19.811904   22.015922 C.2        1 MOL1        -0.1394
      10    H4      20.111793   20.709752   22.604083 H          1 MOL1         0.0816
      11    C5      19.299196   20.044719   20.658781 C.3        1 MOL1        -0.1826
      12    H5      18.911165   19.102581   20.247648 H          1 MOL1         0.0736
      13    H6      18.440673   20.722720   20.757708 H          1 MOL1         0.0736
      14    C6      20.319968   20.648545   19.674667 C.3        1 MOL1        -0.2882
      15    H7      21.176786   19.975291   19.539777 H          1 MOL1         0.0749
      16    H8      19.860160   20.815805   18.691974 H          1 MOL1         0.0749
      17    H9      20.696568   21.611863   20.042931 H          1 MOL1         0.0749
@<TRIPOS>BOND
    1     1     2    1
    2     1     3    2
    3     1     4    1
    4     4     5    1
    5     4     6    1
    6     4     7    1
    7     7     8    1
    8     7     9    2
    9     9    10    1
   10     9    11    1
   11    11    12    1
   12    11    13    1
   13    11    14    1
   14    14    15    1
   15    14    16    1
   16    14    17    1
@<TRIPOS>SUBSTRUCTURE
       1 MOL1            1 RESIDUE      1      MOL     
@<SCITEGIC>MOL_PROPERTY
VConf Rank
SciTegic.value.IntegerValue
196

@<SCITEGIC>MOL_PROPERTY
Conf_Id
SciTegic.value.IntegerValue
38

@<SCITEGIC>MOL_PROPERTY
Delta U+W
SciTegic.value.DoubleValue
0.000

@<SCITEGIC>MOL_PROPERTY
U+W
SciTegic.value.DoubleValue
-49.427

@<SCITEGIC>MOL_PROPERTY
Grad RMS
SciTegic.value.DoubleValue
0.000000

@<SCITEGIC>MOL_PROPERTY
U
SciTegic.value.DoubleValue
13.666

@<SCITEGIC>MOL_PROPERTY
W
SciTegic.value.DoubleValue
-63.093

@<SCITEGIC>MOL_PROPERTY
W(PB)
SciTegic.value.DoubleValue
-65.225

@<SCITEGIC>MOL_PROPERTY
W(SA)
SciTegic.value.DoubleValue
2.132

@<SCITEGIC>MOL_PROPERTY
Valence
SciTegic.value.DoubleValue
15.226

@<SCITEGIC>MOL_PROPERTY
Coulomb
SciTegic.value.DoubleValue
-1.822

@<SCITEGIC>MOL_PROPERTY
VdW
SciTegic.value.DoubleValue
0.261

@<SCITEGIC>MOL_PROPERTY
VdW6
SciTegic.value.DoubleValue
-4.165

@<SCITEGIC>MOL_PROPERTY
VdW12
SciTegic.value.DoubleValue
4.426

@<SCITEGIC>MOL_PROPERTY
Bond
SciTegic.value.DoubleValue
0.044

@<SCITEGIC>MOL_PROPERTY
Angle
SciTegic.value.DoubleValue
2.229

@<SCITEGIC>MOL_PROPERTY
Pdih
SciTegic.value.DoubleValue
12.953

@<SCITEGIC>MOL_PROPERTY
Idih
SciTegic.value.DoubleValue
0.000

@<SCITEGIC>MOL_PROPERTY
Tether
SciTegic.value.DoubleValue
0.000

@<TRIPOS>MOLECULE
guest-s20_confgen4.mol2 : confsearch ligand conformer 197
          17          16           1
SMALL
USER_CHARGES
 
@<TRIPOS>ATOM
       1    C1      17.015078   18.825630   21.479906 C.2        1 MOL1         0.6132
       2    O1      16.723063   17.670416   21.718702 O.co2      1 MOL1        -0.6749
       3    O2      16.554403   19.456551   20.548950 O.co2      1 MOL1        -0.6749
       4    C2      18.008104   19.524392   22.399273 C.3        1 MOL1        -0.1955
       5    H1      17.993358   19.015330   23.370499 H          1 MOL1         0.0733
       6    H2      17.647600   20.545837   22.567183 H          1 MOL1         0.0733
       7    C3      19.410820   19.555337   21.822927 C.2        1 MOL1        -0.1395
       8    H3      19.536812   20.180090   20.939180 H          1 MOL1         0.0816
       9    C4      20.445977   18.878325   22.329221 C.2        1 MOL1        -0.1394
      10    H4      20.318564   18.251285   23.211064 H          1 MOL1         0.0816
      11    C5      21.843102   18.907265   21.750841 C.3        1 MOL1        -0.1826
      12    H5      22.224204   17.881939   21.650828 H          1 MOL1         0.0736
      13    H6      21.832101   19.339465   20.740741 H          1 MOL1         0.0736
      14    C6      22.795847   19.724538   22.644933 C.3        1 MOL1        -0.2882
      15    H7      22.855869   19.291453   23.652039 H          1 MOL1         0.0749
      16    H8      23.808119   19.741342   22.220540 H          1 MOL1         0.0749
      17    H9      22.448505   20.761908   22.738830 H          1 MOL1         0.0749
@<TRIPOS>BOND
    1     1     2    1
    2     1     3    2
    3     1     4    1
    4     4     5    1
    5     4     6    1
    6     4     7    1
    7     7     8    1
    8     7     9    2
    9     9    10    1
   10     9    11    1
   11    11    12    1
   12    11    13    1
   13    11    14    1
   14    14    15    1
   15    14    16    1
   16    14    17    1
@<TRIPOS>SUBSTRUCTURE
       1 MOL1            1 RESIDUE      1      MOL     
@<SCITEGIC>MOL_PROPERTY
VConf Rank
SciTegic.value.IntegerValue
197

@<SCITEGIC>MOL_PROPERTY
Conf_Id
SciTegic.value.IntegerValue
35

@<SCITEGIC>MOL_PROPERTY
Delta U+W
SciTegic.value.DoubleValue
-0.102

@<SCITEGIC>MOL_PROPERTY
U+W
SciTegic.value.DoubleValue
-49.529

@<SCITEGIC>MOL_PROPERTY
Grad RMS
SciTegic.value.DoubleValue
0.000000

@<SCITEGIC>MOL_PROPERTY
U
SciTegic.value.DoubleValue
13.666

@<SCITEGIC>MOL_PROPERTY
W
SciTegic.value.DoubleValue
-63.195

@<SCITEGIC>MOL_PROPERTY
W(PB)
SciTegic.value.DoubleValue
-65.299

@<SCITEGIC>MOL_PROPERTY
W(SA)
SciTegic.value.DoubleValue
2.103

@<SCITEGIC>MOL_PROPERTY
Valence
SciTegic.value.DoubleValue
15.226

@<SCITEGIC>MOL_PROPERTY
Coulomb
SciTegic.value.DoubleValue
-1.822

@<SCITEGIC>MOL_PROPERTY
VdW
SciTegic.value.DoubleValue
0.261

@<SCITEGIC>MOL_PROPERTY
VdW6
SciTegic.value.DoubleValue
-4.165

@<SCITEGIC>MOL_PROPERTY
VdW12
SciTegic.value.DoubleValue
4.426

@<SCITEGIC>MOL_PROPERTY
Bond
SciTegic.value.DoubleValue
0.044

@<SCITEGIC>MOL_PROPERTY
Angle
SciTegic.value.DoubleValue
2.229

@<SCITEGIC>MOL_PROPERTY
Pdih
SciTegic.value.DoubleValue
12.953

@<SCITEGIC>MOL_PROPERTY
Idih
SciTegic.value.DoubleValue
0.000

@<SCITEGIC>MOL_PROPERTY
Tether
SciTegic.value.DoubleValue
0.000

@<TRIPOS>MOLECULE
guest-s20_confgen4.mol2 : confsearch ligand conformer 198
          17          16           1
SMALL
USER_CHARGES
 
@<TRIPOS>ATOM
       1    C1      23.010243   19.994028   22.570718 C.2        1 MOL1         0.6132
       2    O1      23.307339   19.947179   23.748220 O.co2      1 MOL1        -0.6749
       3    O2      23.728271   19.584889   21.679714 O.co2      1 MOL1        -0.6749
       4    C2      21.668645   20.607914   22.192626 C.3        1 MOL1        -0.1955
       5    H1      21.734070   20.964180   21.157551 H          1 MOL1         0.0733
       6    H2      21.513557   21.489284   22.825591 H          1 MOL1         0.0733
       7    C3      20.516726   19.635558   22.362957 C.2        1 MOL1        -0.1395
       8    H3      20.298906   19.365595   23.394830 H          1 MOL1         0.0816
       9    C4      19.810099   19.128759   21.344848 C.2        1 MOL1        -0.1394
      10    H4      20.060185   19.418880   20.324862 H          1 MOL1         0.0816
      11    C5      18.650917   18.151329   21.442400 C.3        1 MOL1        -0.1826
      12    H5      17.767944   18.596188   20.963898 H          1 MOL1         0.0736
      13    H6      18.888164   17.257004   20.850439 H          1 MOL1         0.0736
      14    C6      18.280959   17.719761   22.878683 C.3        1 MOL1        -0.2882
      15    H7      17.984916   18.585038   23.486183 H          1 MOL1         0.0749
      16    H8      17.438969   17.015580   22.864112 H          1 MOL1         0.0749
      17    H9      19.126956   17.221957   23.370587 H          1 MOL1         0.0749
@<TRIPOS>BOND
    1     1     2    1
    2     1     3    2
    3     1     4    1
    4     4     5    1
    5     4     6    1
    6     4     7    1
    7     7     8    1
    8     7     9    2
    9     9    10    1
   10     9    11    1
   11    11    12    1
   12    11    13    1
   13    11    14    1
   14    14    15    1
   15    14    16    1
   16    14    17    1
@<TRIPOS>SUBSTRUCTURE
       1 MOL1            1 RESIDUE      1      MOL     
@<SCITEGIC>MOL_PROPERTY
VConf Rank
SciTegic.value.IntegerValue
198

@<SCITEGIC>MOL_PROPERTY
Conf_Id
SciTegic.value.IntegerValue
19

@<SCITEGIC>MOL_PROPERTY
Delta U+W
SciTegic.value.DoubleValue
-0.496

@<SCITEGIC>MOL_PROPERTY
U+W
SciTegic.value.DoubleValue
-49.923

@<SCITEGIC>MOL_PROPERTY
Grad RMS
SciTegic.value.DoubleValue
0.000000

@<SCITEGIC>MOL_PROPERTY
U
SciTegic.value.DoubleValue
13.863

@<SCITEGIC>MOL_PROPERTY
W
SciTegic.value.DoubleValue
-63.786

@<SCITEGIC>MOL_PROPERTY
W(PB)
SciTegic.value.DoubleValue
-65.856

@<SCITEGIC>MOL_PROPERTY
W(SA)
SciTegic.value.DoubleValue
2.070

@<SCITEGIC>MOL_PROPERTY
Valence
SciTegic.value.DoubleValue
14.117

@<SCITEGIC>MOL_PROPERTY
Coulomb
SciTegic.value.DoubleValue
-1.228

@<SCITEGIC>MOL_PROPERTY
VdW
SciTegic.value.DoubleValue
0.974

@<SCITEGIC>MOL_PROPERTY
VdW6
SciTegic.value.DoubleValue
-4.885

@<SCITEGIC>MOL_PROPERTY
VdW12
SciTegic.value.DoubleValue
5.859

@<SCITEGIC>MOL_PROPERTY
Bond
SciTegic.value.DoubleValue
0.094

@<SCITEGIC>MOL_PROPERTY
Angle
SciTegic.value.DoubleValue
2.818

@<SCITEGIC>MOL_PROPERTY
Pdih
SciTegic.value.DoubleValue
11.205

@<SCITEGIC>MOL_PROPERTY
Idih
SciTegic.value.DoubleValue
0.000

@<SCITEGIC>MOL_PROPERTY
Tether
SciTegic.value.DoubleValue
0.000

@<TRIPOS>MOLECULE
guest-s20_confgen4.mol2 : confsearch ligand conformer 199
          17          16           1
SMALL
USER_CHARGES
 
@<TRIPOS>ATOM
       1    C1      17.300921   19.221365   22.870344 C.2        1 MOL1         0.6132
       2    O1      16.950495   20.215007   22.264795 O.co2      1 MOL1        -0.6749
       3    O2      16.683859   18.174424   22.858098 O.co2      1 MOL1        -0.6749
       4    C2      18.576847   19.292847   23.699036 C.3        1 MOL1        -0.1955
       5    H1      18.389712   18.774979   24.646812 H          1 MOL1         0.0733
       6    H2      18.770502   20.344822   23.940902 H          1 MOL1         0.0733
       7    C3      19.764978   18.670173   22.990950 C.2        1 MOL1        -0.1395
       8    H3      19.711428   17.590497   22.854395 H          1 MOL1         0.0816
       9    C4      20.818622   19.359828   22.543262 C.2        1 MOL1        -0.1394
      10    H4      20.869248   20.440110   22.675507 H          1 MOL1         0.0816
      11    C5      22.000994   18.737364   21.834834 C.3        1 MOL1        -0.1826
      12    H5      22.935623   19.106167   22.278654 H          1 MOL1         0.0736
      13    H6      21.997805   17.646646   21.967249 H          1 MOL1         0.0736
      14    C6      21.981182   19.068192   20.329792 C.3        1 MOL1        -0.2882
      15    H7      22.022916   20.153125   20.166681 H          1 MOL1         0.0749
      16    H8      22.840980   18.613743   19.820586 H          1 MOL1         0.0749
      17    H9      21.065464   18.686720   19.859026 H          1 MOL1         0.0749
@<TRIPOS>BOND
    1     1     2    1
    2     1     3    2
    3     1     4    1
    4     4     5    1
    5     4     6    1
    6     4     7    1
    7     7     8    1
    8     7     9    2
    9     9    10    1
   10     9    11    1
   11    11    12    1
   12    11    13    1
   13    11    14    1
   14    14    15    1
   15    14    16    1
   16    14    17    1
@<TRIPOS>SUBSTRUCTURE
       1 MOL1            1 RESIDUE      1      MOL     
@<SCITEGIC>MOL_PROPERTY
VConf Rank
SciTegic.value.IntegerValue
199

@<SCITEGIC>MOL_PROPERTY
Conf_Id
SciTegic.value.IntegerValue
7

@<SCITEGIC>MOL_PROPERTY
Delta U+W
SciTegic.value.DoubleValue
-0.041

@<SCITEGIC>MOL_PROPERTY
U+W
SciTegic.value.DoubleValue
-49.468

@<SCITEGIC>MOL_PROPERTY
Grad RMS
SciTegic.value.DoubleValue
0.000000

@<SCITEGIC>MOL_PROPERTY
U
SciTegic.value.DoubleValue
14.121

@<SCITEGIC>MOL_PROPERTY
W
SciTegic.value.DoubleValue
-63.589

@<SCITEGIC>MOL_PROPERTY
W(PB)
SciTegic.value.DoubleValue
-65.660

@<SCITEGIC>MOL_PROPERTY
W(SA)
SciTegic.value.DoubleValue
2.071

@<SCITEGIC>MOL_PROPERTY
Valence
SciTegic.value.DoubleValue
15.230

@<SCITEGIC>MOL_PROPERTY
Coulomb
SciTegic.value.DoubleValue
-1.333

@<SCITEGIC>MOL_PROPERTY
VdW
SciTegic.value.DoubleValue
0.224

@<SCITEGIC>MOL_PROPERTY
VdW6
SciTegic.value.DoubleValue
-4.212

@<SCITEGIC>MOL_PROPERTY
VdW12
SciTegic.value.DoubleValue
4.436

@<SCITEGIC>MOL_PROPERTY
Bond
SciTegic.value.DoubleValue
0.044

@<SCITEGIC>MOL_PROPERTY
Angle
SciTegic.value.DoubleValue
2.230

@<SCITEGIC>MOL_PROPERTY
Pdih
SciTegic.value.DoubleValue
12.956

@<SCITEGIC>MOL_PROPERTY
Idih
SciTegic.value.DoubleValue
0.000

@<SCITEGIC>MOL_PROPERTY
Tether
SciTegic.value.DoubleValue
0.000

@<TRIPOS>MOLECULE
guest-s20_confgen4.mol2 : confsearch ligand conformer 200
          17          16           1
SMALL
USER_CHARGES
 
@<TRIPOS>ATOM
       1    C1      18.345216   19.094607   24.366230 C.2        1 MOL1         0.6132
       2    O1      19.098994   18.857486   25.289585 O.co2      1 MOL1        -0.6749
       3    O2      17.381996   18.405993   24.092186 O.co2      1 MOL1        -0.6749
       4    C2      18.605880   20.338946   23.522872 C.3        1 MOL1        -0.1955
       5    H1      19.052920   21.099046   24.174156 H          1 MOL1         0.0733
       6    H2      17.635500   20.742336   23.210847 H          1 MOL1         0.0733
       7    C3      19.488968   20.131183   22.300634 C.2        1 MOL1        -0.1395
       8    H3      19.662065   21.031821   21.712896 H          1 MOL1         0.0816
       9    C4      20.042689   18.974596   21.917627 C.2        1 MOL1        -0.1394
      10    H4      19.886278   18.059676   22.487881 H          1 MOL1         0.0816
      11    C5      20.913552   18.821098   20.690444 C.3        1 MOL1        -0.1826
      12    H5      20.580900   17.952285   20.106470 H          1 MOL1         0.0736
      13    H6      20.814207   19.697660   20.035522 H          1 MOL1         0.0736
      14    C6      22.393534   18.641425   21.080837 C.3        1 MOL1        -0.2882
      15    H7      23.020499   18.529145   20.186763 H          1 MOL1         0.0749
      16    H8      22.756237   19.511040   21.644584 H          1 MOL1         0.0749
      17    H9      22.527971   17.748730   21.705721 H          1 MOL1         0.0749
@<TRIPOS>BOND
    1     1     2    1
    2     1     3    2
    3     1     4    1
    4     4     5    1
    5     4     6    1
    6     4     7    1
    7     7     8    1
    8     7     9    2
    9     9    10    1
   10     9    11    1
   11    11    12    1
   12    11    13    1
   13    11    14    1
   14    14    15    1
   15    14    16    1
   16    14    17    1
@<TRIPOS>SUBSTRUCTURE
       1 MOL1            1 RESIDUE      1      MOL     
@<SCITEGIC>MOL_PROPERTY
VConf Rank
SciTegic.value.IntegerValue
200

@<SCITEGIC>MOL_PROPERTY
Conf_Id
SciTegic.value.IntegerValue
39

@<SCITEGIC>MOL_PROPERTY
Delta U+W
SciTegic.value.DoubleValue
-0.422

@<SCITEGIC>MOL_PROPERTY
U+W
SciTegic.value.DoubleValue
-49.849

@<SCITEGIC>MOL_PROPERTY
Grad RMS
SciTegic.value.DoubleValue
0.000000

@<SCITEGIC>MOL_PROPERTY
U
SciTegic.value.DoubleValue
14.465

@<SCITEGIC>MOL_PROPERTY
W
SciTegic.value.DoubleValue
-64.314

@<SCITEGIC>MOL_PROPERTY
W(PB)
SciTegic.value.DoubleValue
-66.406

@<SCITEGIC>MOL_PROPERTY
W(SA)
SciTegic.value.DoubleValue
2.093

@<SCITEGIC>MOL_PROPERTY
Valence
SciTegic.value.DoubleValue
14.072

@<SCITEGIC>MOL_PROPERTY
Coulomb
SciTegic.value.DoubleValue
-0.199

@<SCITEGIC>MOL_PROPERTY
VdW
SciTegic.value.DoubleValue
0.592

@<SCITEGIC>MOL_PROPERTY
VdW6
SciTegic.value.DoubleValue
-5.019

@<SCITEGIC>MOL_PROPERTY
VdW12
SciTegic.value.DoubleValue
5.611

@<SCITEGIC>MOL_PROPERTY
Bond
SciTegic.value.DoubleValue
0.085

@<SCITEGIC>MOL_PROPERTY
Angle
SciTegic.value.DoubleValue
2.748

@<SCITEGIC>MOL_PROPERTY
Pdih
SciTegic.value.DoubleValue
11.238

@<SCITEGIC>MOL_PROPERTY
Idih
SciTegic.value.DoubleValue
0.001

@<SCITEGIC>MOL_PROPERTY
Tether
SciTegic.value.DoubleValue
0.000

@<TRIPOS>MOLECULE
guest-s20_confgen4.mol2 : confsearch ligand conformer 201
          17          16           1
SMALL
USER_CHARGES
 
@<TRIPOS>ATOM
       1    C1      20.289580   21.309951   24.521539 C.2        1 MOL1         0.6132
       2    O1      20.551230   22.463170   24.241208 O.co2      1 MOL1        -0.6749
       3    O2      20.740972   20.735460   25.492633 O.co2      1 MOL1        -0.6749
       4    C2      19.339825   20.546737   23.607715 C.3        1 MOL1        -0.1955
       5    H1      18.530485   21.228288   23.321417 H          1 MOL1         0.0733
       6    H2      18.885077   19.734238   24.187102 H          1 MOL1         0.0733
       7    C3      20.031455   20.010118   22.368993 C.2        1 MOL1        -0.1395
       8    H3      20.369665   20.766036   21.660895 H          1 MOL1         0.0816
       9    C4      20.234559   18.711856   22.125082 C.2        1 MOL1        -0.1394
      10    H4      19.898758   17.956654   22.834989 H          1 MOL1         0.0816
      11    C5      20.927769   18.178798   20.891133 C.3        1 MOL1        -0.1826
      12    H5      21.454562   18.987776   20.366476 H          1 MOL1         0.0736
      13    H6      21.689907   17.443463   21.182618 H          1 MOL1         0.0736
      14    C6      19.919018   17.519827   19.930279 C.3        1 MOL1        -0.2882
      15    H7      19.160694   18.243973   19.604458 H          1 MOL1         0.0749
      16    H8      20.427922   17.134420   19.037215 H          1 MOL1         0.0749
      17    H9      19.404235   16.681344   20.417490 H          1 MOL1         0.0749
@<TRIPOS>BOND
    1     1     2    1
    2     1     3    2
    3     1     4    1
    4     4     5    1
    5     4     6    1
    6     4     7    1
    7     7     8    1
    8     7     9    2
    9     9    10    1
   10     9    11    1
   11    11    12    1
   12    11    13    1
   13    11    14    1
   14    14    15    1
   15    14    16    1
   16    14    17    1
@<TRIPOS>SUBSTRUCTURE
       1 MOL1            1 RESIDUE      1      MOL     
@<SCITEGIC>MOL_PROPERTY
VConf Rank
SciTegic.value.IntegerValue
201

@<SCITEGIC>MOL_PROPERTY
Conf_Id
SciTegic.value.IntegerValue
38

@<SCITEGIC>MOL_PROPERTY
Delta U+W
SciTegic.value.DoubleValue
0.000

@<SCITEGIC>MOL_PROPERTY
U+W
SciTegic.value.DoubleValue
-49.427

@<SCITEGIC>MOL_PROPERTY
Grad RMS
SciTegic.value.DoubleValue
0.000000

@<SCITEGIC>MOL_PROPERTY
U
SciTegic.value.DoubleValue
13.666

@<SCITEGIC>MOL_PROPERTY
W
SciTegic.value.DoubleValue
-63.093

@<SCITEGIC>MOL_PROPERTY
W(PB)
SciTegic.value.DoubleValue
-65.225

@<SCITEGIC>MOL_PROPERTY
W(SA)
SciTegic.value.DoubleValue
2.132

@<SCITEGIC>MOL_PROPERTY
Valence
SciTegic.value.DoubleValue
15.226

@<SCITEGIC>MOL_PROPERTY
Coulomb
SciTegic.value.DoubleValue
-1.822

@<SCITEGIC>MOL_PROPERTY
VdW
SciTegic.value.DoubleValue
0.261

@<SCITEGIC>MOL_PROPERTY
VdW6
SciTegic.value.DoubleValue
-4.165

@<SCITEGIC>MOL_PROPERTY
VdW12
SciTegic.value.DoubleValue
4.426

@<SCITEGIC>MOL_PROPERTY
Bond
SciTegic.value.DoubleValue
0.044

@<SCITEGIC>MOL_PROPERTY
Angle
SciTegic.value.DoubleValue
2.229

@<SCITEGIC>MOL_PROPERTY
Pdih
SciTegic.value.DoubleValue
12.953

@<SCITEGIC>MOL_PROPERTY
Idih
SciTegic.value.DoubleValue
0.000

@<SCITEGIC>MOL_PROPERTY
Tether
SciTegic.value.DoubleValue
0.000

@<TRIPOS>MOLECULE
guest-s20_confgen4.mol2 : confsearch ligand conformer 202
          17          16           1
SMALL
USER_CHARGES
 
@<TRIPOS>ATOM
       1    C1      22.240320   21.367826   21.122735 C.2        1 MOL1         0.6132
       2    O1      22.729641   21.917346   22.089902 O.co2      1 MOL1        -0.6749
       3    O2      22.005841   21.935874   20.074259 O.co2      1 MOL1        -0.6749
       4    C2      21.907027   19.885325   21.226227 C.3        1 MOL1        -0.1955
       5    H1      22.536119   19.446109   22.009790 H          1 MOL1         0.0733
       6    H2      22.194241   19.410660   20.280866 H          1 MOL1         0.0733
       7    C3      20.437024   19.638681   21.507301 C.2        1 MOL1        -0.1395
       8    H3      19.757827   19.904048   20.697688 H          1 MOL1         0.0816
       9    C4      19.965236   19.136436   22.652462 C.2        1 MOL1        -0.1394
      10    H4      20.644693   18.874273   23.462814 H          1 MOL1         0.0816
      11    C5      18.498751   18.894877   22.932449 C.3        1 MOL1        -0.1826
      12    H5      18.234936   19.312695   23.913449 H          1 MOL1         0.0736
      13    H6      17.875354   19.413331   22.190963 H          1 MOL1         0.0736
      14    C6      18.171419   17.389076   22.910529 C.3        1 MOL1        -0.2882
      15    H7      18.753645   16.850555   23.669762 H          1 MOL1         0.0749
      16    H8      17.106194   17.220047   23.115009 H          1 MOL1         0.0749
      17    H9      18.403259   16.953944   21.929453 H          1 MOL1         0.0749
@<TRIPOS>BOND
    1     1     2    1
    2     1     3    2
    3     1     4    1
    4     4     5    1
    5     4     6    1
    6     4     7    1
    7     7     8    1
    8     7     9    2
    9     9    10    1
   10     9    11    1
   11    11    12    1
   12    11    13    1
   13    11    14    1
   14    14    15    1
   15    14    16    1
   16    14    17    1
@<TRIPOS>SUBSTRUCTURE
       1 MOL1            1 RESIDUE      1      MOL     
@<SCITEGIC>MOL_PROPERTY
VConf Rank
SciTegic.value.IntegerValue
202

@<SCITEGIC>MOL_PROPERTY
Conf_Id
SciTegic.value.IntegerValue
35

@<SCITEGIC>MOL_PROPERTY
Delta U+W
SciTegic.value.DoubleValue
-0.102

@<SCITEGIC>MOL_PROPERTY
U+W
SciTegic.value.DoubleValue
-49.529

@<SCITEGIC>MOL_PROPERTY
Grad RMS
SciTegic.value.DoubleValue
0.000000

@<SCITEGIC>MOL_PROPERTY
U
SciTegic.value.DoubleValue
13.666

@<SCITEGIC>MOL_PROPERTY
W
SciTegic.value.DoubleValue
-63.195

@<SCITEGIC>MOL_PROPERTY
W(PB)
SciTegic.value.DoubleValue
-65.299

@<SCITEGIC>MOL_PROPERTY
W(SA)
SciTegic.value.DoubleValue
2.103

@<SCITEGIC>MOL_PROPERTY
Valence
SciTegic.value.DoubleValue
15.226

@<SCITEGIC>MOL_PROPERTY
Coulomb
SciTegic.value.DoubleValue
-1.822

@<SCITEGIC>MOL_PROPERTY
VdW
SciTegic.value.DoubleValue
0.261

@<SCITEGIC>MOL_PROPERTY
VdW6
SciTegic.value.DoubleValue
-4.165

@<SCITEGIC>MOL_PROPERTY
VdW12
SciTegic.value.DoubleValue
4.426

@<SCITEGIC>MOL_PROPERTY
Bond
SciTegic.value.DoubleValue
0.044

@<SCITEGIC>MOL_PROPERTY
Angle
SciTegic.value.DoubleValue
2.229

@<SCITEGIC>MOL_PROPERTY
Pdih
SciTegic.value.DoubleValue
12.953

@<SCITEGIC>MOL_PROPERTY
Idih
SciTegic.value.DoubleValue
0.000

@<SCITEGIC>MOL_PROPERTY
Tether
SciTegic.value.DoubleValue
0.000

@<TRIPOS>MOLECULE
guest-s20_confgen4.mol2 : confsearch ligand conformer 203
          17          16           1
SMALL
USER_CHARGES
 
@<TRIPOS>ATOM
       1    C1      21.515105   21.691502   22.764544 C.2        1 MOL1         0.6132
       2    O1      20.686857   22.580442   22.736956 O.co2      1 MOL1        -0.6749
       3    O2      22.360204   21.587112   23.631584 O.co2      1 MOL1        -0.6749
       4    C2      21.497179   20.658511   21.645480 C.3        1 MOL1        -0.1955
       5    H1      22.500224   20.222595   21.565084 H          1 MOL1         0.0733
       6    H2      21.301209   21.186894   20.705311 H          1 MOL1         0.0733
       7    C3      20.450854   19.582336   21.865608 C.2        1 MOL1        -0.1395
       8    H3      19.421196   19.929129   21.797575 H          1 MOL1         0.0816
       9    C4      20.740117   18.301993   22.129728 C.2        1 MOL1        -0.1394
      10    H4      21.782823   17.992726   22.194553 H          1 MOL1         0.0816
      11    C5      19.746392   17.176697   22.363843 C.3        1 MOL1        -0.1826
      12    H5      19.934637   16.377083   21.634674 H          1 MOL1         0.0736
      13    H6      19.939731   16.729696   23.348389 H          1 MOL1         0.0736
      14    C6      18.260636   17.591497   22.283235 C.3        1 MOL1        -0.2882
      15    H7      18.017193   17.994046   21.291221 H          1 MOL1         0.0749
      16    H8      17.609247   16.726599   22.463988 H          1 MOL1         0.0749
      17    H9      18.023258   18.354263   23.036447 H          1 MOL1         0.0749
@<TRIPOS>BOND
    1     1     2    1
    2     1     3    2
    3     1     4    1
    4     4     5    1
    5     4     6    1
    6     4     7    1
    7     7     8    1
    8     7     9    2
    9     9    10    1
   10     9    11    1
   11    11    12    1
   12    11    13    1
   13    11    14    1
   14    14    15    1
   15    14    16    1
   16    14    17    1
@<TRIPOS>SUBSTRUCTURE
       1 MOL1            1 RESIDUE      1      MOL     
@<SCITEGIC>MOL_PROPERTY
VConf Rank
SciTegic.value.IntegerValue
203

@<SCITEGIC>MOL_PROPERTY
Conf_Id
SciTegic.value.IntegerValue
19

@<SCITEGIC>MOL_PROPERTY
Delta U+W
SciTegic.value.DoubleValue
-0.496

@<SCITEGIC>MOL_PROPERTY
U+W
SciTegic.value.DoubleValue
-49.923

@<SCITEGIC>MOL_PROPERTY
Grad RMS
SciTegic.value.DoubleValue
0.000000

@<SCITEGIC>MOL_PROPERTY
U
SciTegic.value.DoubleValue
13.863

@<SCITEGIC>MOL_PROPERTY
W
SciTegic.value.DoubleValue
-63.786

@<SCITEGIC>MOL_PROPERTY
W(PB)
SciTegic.value.DoubleValue
-65.856

@<SCITEGIC>MOL_PROPERTY
W(SA)
SciTegic.value.DoubleValue
2.070

@<SCITEGIC>MOL_PROPERTY
Valence
SciTegic.value.DoubleValue
14.117

@<SCITEGIC>MOL_PROPERTY
Coulomb
SciTegic.value.DoubleValue
-1.228

@<SCITEGIC>MOL_PROPERTY
VdW
SciTegic.value.DoubleValue
0.974

@<SCITEGIC>MOL_PROPERTY
VdW6
SciTegic.value.DoubleValue
-4.885

@<SCITEGIC>MOL_PROPERTY
VdW12
SciTegic.value.DoubleValue
5.859

@<SCITEGIC>MOL_PROPERTY
Bond
SciTegic.value.DoubleValue
0.094

@<SCITEGIC>MOL_PROPERTY
Angle
SciTegic.value.DoubleValue
2.818

@<SCITEGIC>MOL_PROPERTY
Pdih
SciTegic.value.DoubleValue
11.205

@<SCITEGIC>MOL_PROPERTY
Idih
SciTegic.value.DoubleValue
0.000

@<SCITEGIC>MOL_PROPERTY
Tether
SciTegic.value.DoubleValue
0.000

@<TRIPOS>MOLECULE
guest-s20_confgen4.mol2 : confsearch ligand conformer 204
          17          16           1
SMALL
USER_CHARGES
 
@<TRIPOS>ATOM
       1    C1      18.631135   16.575249   21.906970 C.2        1 MOL1         0.6132
       2    O1      19.141374   15.855384   22.742592 O.co2      1 MOL1        -0.6749
       3    O2      17.429957   16.690642   21.762551 O.co2      1 MOL1        -0.6749
       4    C2      19.544778   17.368801   20.982114 C.3        1 MOL1        -0.1955
       5    H1      19.123575   17.318032   19.971423 H          1 MOL1         0.0733
       6    H2      20.519380   16.867082   20.949221 H          1 MOL1         0.0733
       7    C3      19.692406   18.815670   21.412857 C.2        1 MOL1        -0.1395
       8    H3      18.791535   19.421914   21.322764 H          1 MOL1         0.0816
       9    C4      20.824878   19.347841   21.882449 C.2        1 MOL1        -0.1394
      10    H4      21.724006   18.739846   21.977167 H          1 MOL1         0.0816
      11    C5      20.969166   20.790106   22.314177 C.3        1 MOL1        -0.1826
      12    H5      21.871306   21.224176   21.862238 H          1 MOL1         0.0736
      13    H6      20.118610   21.385772   21.955087 H          1 MOL1         0.0736
      14    C6      21.058265   20.902112   23.848617 C.3        1 MOL1        -0.2882
      15    H7      21.924188   20.346739   24.232236 H          1 MOL1         0.0749
      16    H8      21.162396   21.950680   24.156399 H          1 MOL1         0.0749
      17    H9      20.154620   20.495963   24.322060 H          1 MOL1         0.0749
@<TRIPOS>BOND
    1     1     2    1
    2     1     3    2
    3     1     4    1
    4     4     5    1
    5     4     6    1
    6     4     7    1
    7     7     8    1
    8     7     9    2
    9     9    10    1
   10     9    11    1
   11    11    12    1
   12    11    13    1
   13    11    14    1
   14    14    15    1
   15    14    16    1
   16    14    17    1
@<TRIPOS>SUBSTRUCTURE
       1 MOL1            1 RESIDUE      1      MOL     
@<SCITEGIC>MOL_PROPERTY
VConf Rank
SciTegic.value.IntegerValue
204

@<SCITEGIC>MOL_PROPERTY
Conf_Id
SciTegic.value.IntegerValue
7

@<SCITEGIC>MOL_PROPERTY
Delta U+W
SciTegic.value.DoubleValue
-0.041

@<SCITEGIC>MOL_PROPERTY
U+W
SciTegic.value.DoubleValue
-49.468

@<SCITEGIC>MOL_PROPERTY
Grad RMS
SciTegic.value.DoubleValue
0.000000

@<SCITEGIC>MOL_PROPERTY
U
SciTegic.value.DoubleValue
14.121

@<SCITEGIC>MOL_PROPERTY
W
SciTegic.value.DoubleValue
-63.589

@<SCITEGIC>MOL_PROPERTY
W(PB)
SciTegic.value.DoubleValue
-65.660

@<SCITEGIC>MOL_PROPERTY
W(SA)
SciTegic.value.DoubleValue
2.071

@<SCITEGIC>MOL_PROPERTY
Valence
SciTegic.value.DoubleValue
15.230

@<SCITEGIC>MOL_PROPERTY
Coulomb
SciTegic.value.DoubleValue
-1.333

@<SCITEGIC>MOL_PROPERTY
VdW
SciTegic.value.DoubleValue
0.224

@<SCITEGIC>MOL_PROPERTY
VdW6
SciTegic.value.DoubleValue
-4.212

@<SCITEGIC>MOL_PROPERTY
VdW12
SciTegic.value.DoubleValue
4.436

@<SCITEGIC>MOL_PROPERTY
Bond
SciTegic.value.DoubleValue
0.044

@<SCITEGIC>MOL_PROPERTY
Angle
SciTegic.value.DoubleValue
2.230

@<SCITEGIC>MOL_PROPERTY
Pdih
SciTegic.value.DoubleValue
12.956

@<SCITEGIC>MOL_PROPERTY
Idih
SciTegic.value.DoubleValue
0.000

@<SCITEGIC>MOL_PROPERTY
Tether
SciTegic.value.DoubleValue
0.000

@<TRIPOS>MOLECULE
guest-s20_confgen4.mol2 : confsearch ligand conformer 205
          17          16           1
SMALL
USER_CHARGES
 
@<TRIPOS>ATOM
       1    C1      21.542439   17.394757   20.815513 C.2        1 MOL1         0.6132
       2    O1      21.932893   16.663344   21.704093 O.co2      1 MOL1        -0.6749
       3    O2      22.278891   17.907583   19.995922 O.co2      1 MOL1        -0.6749
       4    C2      20.044268   17.661321   20.705945 C.3        1 MOL1        -0.1955
       5    H1      19.516947   16.765131   21.053140 H          1 MOL1         0.0733
       6    H2      19.798236   17.762771   19.642509 H          1 MOL1         0.0733
       7    C3      19.536171   18.878534   21.465620 C.2        1 MOL1        -0.1395
       8    H3      18.464464   19.050479   21.373833 H          1 MOL1         0.0816
       9    C4      20.278906   19.710963   22.204810 C.2        1 MOL1        -0.1394
      10    H4      21.352406   19.561127   22.313804 H          1 MOL1         0.0816
      11    C5      19.723655   20.910297   22.940497 C.3        1 MOL1        -0.1826
      12    H5      20.346239   21.791641   22.735213 H          1 MOL1         0.0736
      13    H6      18.712780   21.148166   22.581744 H          1 MOL1         0.0736
      14    C6      19.678744   20.655741   24.459780 C.3        1 MOL1        -0.2882
      15    H7      19.276423   21.529564   24.988582 H          1 MOL1         0.0749
      16    H8      19.040260   19.793105   24.691710 H          1 MOL1         0.0749
      17    H9      20.683686   20.452546   24.852541 H          1 MOL1         0.0749
@<TRIPOS>BOND
    1     1     2    1
    2     1     3    2
    3     1     4    1
    4     4     5    1
    5     4     6    1
    6     4     7    1
    7     7     8    1
    8     7     9    2
    9     9    10    1
   10     9    11    1
   11    11    12    1
   12    11    13    1
   13    11    14    1
   14    14    15    1
   15    14    16    1
   16    14    17    1
@<TRIPOS>SUBSTRUCTURE
       1 MOL1            1 RESIDUE      1      MOL     
@<SCITEGIC>MOL_PROPERTY
VConf Rank
SciTegic.value.IntegerValue
205

@<SCITEGIC>MOL_PROPERTY
Conf_Id
SciTegic.value.IntegerValue
39

@<SCITEGIC>MOL_PROPERTY
Delta U+W
SciTegic.value.DoubleValue
-0.422

@<SCITEGIC>MOL_PROPERTY
U+W
SciTegic.value.DoubleValue
-49.849

@<SCITEGIC>MOL_PROPERTY
Grad RMS
SciTegic.value.DoubleValue
0.000000

@<SCITEGIC>MOL_PROPERTY
U
SciTegic.value.DoubleValue
14.465

@<SCITEGIC>MOL_PROPERTY
W
SciTegic.value.DoubleValue
-64.314

@<SCITEGIC>MOL_PROPERTY
W(PB)
SciTegic.value.DoubleValue
-66.406

@<SCITEGIC>MOL_PROPERTY
W(SA)
SciTegic.value.DoubleValue
2.093

@<SCITEGIC>MOL_PROPERTY
Valence
SciTegic.value.DoubleValue
14.072

@<SCITEGIC>MOL_PROPERTY
Coulomb
SciTegic.value.DoubleValue
-0.199

@<SCITEGIC>MOL_PROPERTY
VdW
SciTegic.value.DoubleValue
0.592

@<SCITEGIC>MOL_PROPERTY
VdW6
SciTegic.value.DoubleValue
-5.019

@<SCITEGIC>MOL_PROPERTY
VdW12
SciTegic.value.DoubleValue
5.611

@<SCITEGIC>MOL_PROPERTY
Bond
SciTegic.value.DoubleValue
0.085

@<SCITEGIC>MOL_PROPERTY
Angle
SciTegic.value.DoubleValue
2.748

@<SCITEGIC>MOL_PROPERTY
Pdih
SciTegic.value.DoubleValue
11.238

@<SCITEGIC>MOL_PROPERTY
Idih
SciTegic.value.DoubleValue
0.001

@<SCITEGIC>MOL_PROPERTY
Tether
SciTegic.value.DoubleValue
0.000

@<TRIPOS>MOLECULE
guest-s20_confgen4.mol2 : confsearch ligand conformer 206
          17          16           1
SMALL
USER_CHARGES
 
@<TRIPOS>ATOM
       1    C1      22.560482   17.513591   23.059383 C.2        1 MOL1         0.6132
       2    O1      22.936876   17.681325   24.202691 O.co2      1 MOL1        -0.6749
       3    O2      23.314583   17.341137   22.122148 O.co2      1 MOL1        -0.6749
       4    C2      21.061543   17.514544   22.789596 C.3        1 MOL1        -0.1955
       5    H1      20.574449   16.964552   23.603080 H          1 MOL1         0.0733
       6    H2      20.878656   16.950917   21.866819 H          1 MOL1         0.0733
       7    C3      20.489637   18.916092   22.692992 C.2        1 MOL1        -0.1395
       8    H3      20.490096   19.483695   23.623061 H          1 MOL1         0.0816
       9    C4      20.011429   19.456288   21.567944 C.2        1 MOL1        -0.1394
      10    H4      20.014009   18.889224   20.637626 H          1 MOL1         0.0816
      11    C5      19.445004   20.855362   21.472682 C.3        1 MOL1        -0.1826
      12    H5      19.710649   21.439173   22.364769 H          1 MOL1         0.0736
      13    H6      19.886408   21.376186   20.612195 H          1 MOL1         0.0736
      14    C6      17.911575   20.823013   21.322312 C.3        1 MOL1        -0.2882
      15    H7      17.445580   20.328820   22.184995 H          1 MOL1         0.0749
      16    H8      17.506450   21.840933   21.253037 H          1 MOL1         0.0749
      17    H9      17.618288   20.277256   20.415912 H          1 MOL1         0.0749
@<TRIPOS>BOND
    1     1     2    1
    2     1     3    2
    3     1     4    1
    4     4     5    1
    5     4     6    1
    6     4     7    1
    7     7     8    1
    8     7     9    2
    9     9    10    1
   10     9    11    1
   11    11    12    1
   12    11    13    1
   13    11    14    1
   14    14    15    1
   15    14    16    1
   16    14    17    1
@<TRIPOS>SUBSTRUCTURE
       1 MOL1            1 RESIDUE      1      MOL     
@<SCITEGIC>MOL_PROPERTY
VConf Rank
SciTegic.value.IntegerValue
206

@<SCITEGIC>MOL_PROPERTY
Conf_Id
SciTegic.value.IntegerValue
38

@<SCITEGIC>MOL_PROPERTY
Delta U+W
SciTegic.value.DoubleValue
0.000

@<SCITEGIC>MOL_PROPERTY
U+W
SciTegic.value.DoubleValue
-49.427

@<SCITEGIC>MOL_PROPERTY
Grad RMS
SciTegic.value.DoubleValue
0.000000

@<SCITEGIC>MOL_PROPERTY
U
SciTegic.value.DoubleValue
13.666

@<SCITEGIC>MOL_PROPERTY
W
SciTegic.value.DoubleValue
-63.093

@<SCITEGIC>MOL_PROPERTY
W(PB)
SciTegic.value.DoubleValue
-65.225

@<SCITEGIC>MOL_PROPERTY
W(SA)
SciTegic.value.DoubleValue
2.132

@<SCITEGIC>MOL_PROPERTY
Valence
SciTegic.value.DoubleValue
15.226

@<SCITEGIC>MOL_PROPERTY
Coulomb
SciTegic.value.DoubleValue
-1.822

@<SCITEGIC>MOL_PROPERTY
VdW
SciTegic.value.DoubleValue
0.261

@<SCITEGIC>MOL_PROPERTY
VdW6
SciTegic.value.DoubleValue
-4.165

@<SCITEGIC>MOL_PROPERTY
VdW12
SciTegic.value.DoubleValue
4.426

@<SCITEGIC>MOL_PROPERTY
Bond
SciTegic.value.DoubleValue
0.044

@<SCITEGIC>MOL_PROPERTY
Angle
SciTegic.value.DoubleValue
2.229

@<SCITEGIC>MOL_PROPERTY
Pdih
SciTegic.value.DoubleValue
12.953

@<SCITEGIC>MOL_PROPERTY
Idih
SciTegic.value.DoubleValue
0.000

@<SCITEGIC>MOL_PROPERTY
Tether
SciTegic.value.DoubleValue
0.000

@<TRIPOS>MOLECULE
guest-s20_confgen4.mol2 : confsearch ligand conformer 207
          17          16           1
SMALL
USER_CHARGES
 
@<TRIPOS>ATOM
       1    C1      22.963043   19.302760   20.786763 C.2        1 MOL1         0.6132
       2    O1      23.604905   20.220987   21.257602 O.co2      1 MOL1        -0.6749
       3    O2      23.030351   18.963796   19.621630 O.co2      1 MOL1        -0.6749
       4    C2      22.026761   18.529887   21.706354 C.3        1 MOL1        -0.1955
       5    H1      22.380541   18.651717   22.737197 H          1 MOL1         0.0733
       6    H2      22.118067   17.465773   21.459714 H          1 MOL1         0.0733
       7    C3      20.582659   18.973770   21.571142 C.2        1 MOL1        -0.1395
       8    H3      20.110484   18.736543   20.618265 H          1 MOL1         0.0816
       9    C4      19.901374   19.614725   22.525739 C.2        1 MOL1        -0.1394
      10    H4      20.375122   19.854445   23.477137 H          1 MOL1         0.0816
      11    C5      18.462657   20.060087   22.387658 C.3        1 MOL1        -0.1826
      12    H5      18.367028   21.107824   22.703307 H          1 MOL1         0.0736
      13    H6      18.146265   20.017405   21.336328 H          1 MOL1         0.0736
      14    C6      17.526321   19.179796   23.238200 C.3        1 MOL1        -0.2882
      15    H7      17.796312   19.233759   24.301036 H          1 MOL1         0.0749
      16    H8      16.483967   19.508170   23.134495 H          1 MOL1         0.0749
      17    H9      17.585671   18.129661   22.923091 H          1 MOL1         0.0749
@<TRIPOS>BOND
    1     1     2    1
    2     1     3    2
    3     1     4    1
    4     4     5    1
    5     4     6    1
    6     4     7    1
    7     7     8    1
    8     7     9    2
    9     9    10    1
   10     9    11    1
   11    11    12    1
   12    11    13    1
   13    11    14    1
   14    14    15    1
   15    14    16    1
   16    14    17    1
@<TRIPOS>SUBSTRUCTURE
       1 MOL1            1 RESIDUE      1      MOL     
@<SCITEGIC>MOL_PROPERTY
VConf Rank
SciTegic.value.IntegerValue
207

@<SCITEGIC>MOL_PROPERTY
Conf_Id
SciTegic.value.IntegerValue
35

@<SCITEGIC>MOL_PROPERTY
Delta U+W
SciTegic.value.DoubleValue
-0.102

@<SCITEGIC>MOL_PROPERTY
U+W
SciTegic.value.DoubleValue
-49.529

@<SCITEGIC>MOL_PROPERTY
Grad RMS
SciTegic.value.DoubleValue
0.000000

@<SCITEGIC>MOL_PROPERTY
U
SciTegic.value.DoubleValue
13.666

@<SCITEGIC>MOL_PROPERTY
W
SciTegic.value.DoubleValue
-63.195

@<SCITEGIC>MOL_PROPERTY
W(PB)
SciTegic.value.DoubleValue
-65.299

@<SCITEGIC>MOL_PROPERTY
W(SA)
SciTegic.value.DoubleValue
2.103

@<SCITEGIC>MOL_PROPERTY
Valence
SciTegic.value.DoubleValue
15.226

@<SCITEGIC>MOL_PROPERTY
Coulomb
SciTegic.value.DoubleValue
-1.822

@<SCITEGIC>MOL_PROPERTY
VdW
SciTegic.value.DoubleValue
0.261

@<SCITEGIC>MOL_PROPERTY
VdW6
SciTegic.value.DoubleValue
-4.165

@<SCITEGIC>MOL_PROPERTY
VdW12
SciTegic.value.DoubleValue
4.426

@<SCITEGIC>MOL_PROPERTY
Bond
SciTegic.value.DoubleValue
0.044

@<SCITEGIC>MOL_PROPERTY
Angle
SciTegic.value.DoubleValue
2.229

@<SCITEGIC>MOL_PROPERTY
Pdih
SciTegic.value.DoubleValue
12.953

@<SCITEGIC>MOL_PROPERTY
Idih
SciTegic.value.DoubleValue
0.000

@<SCITEGIC>MOL_PROPERTY
Tether
SciTegic.value.DoubleValue
0.000

@<TRIPOS>MOLECULE
guest-s20_confgen4.mol2 : confsearch ligand conformer 208
          17          16           1
SMALL
USER_CHARGES
 
@<TRIPOS>ATOM
       1    C1      19.563868   18.626057   19.366485 C.2        1 MOL1         0.6132
       2    O1      20.330215   17.809053   18.895116 O.co2      1 MOL1        -0.6749
       3    O2      18.361941   18.600770   19.188775 O.co2      1 MOL1        -0.6749
       4    C2      20.144501   19.747281   20.218198 C.3        1 MOL1        -0.1955
       5    H1      19.444702   20.591337   20.197342 H          1 MOL1         0.0733
       6    H2      21.070105   20.086633   19.739023 H          1 MOL1         0.0733
       7    C3      20.426589   19.307765   21.642507 C.2        1 MOL1        -0.1395
       8    H3      21.230246   18.580317   21.742728 H          1 MOL1         0.0816
       9    C4      19.754219   19.756513   22.709866 C.2        1 MOL1        -0.1394
      10    H4      18.952886   20.481338   22.569942 H          1 MOL1         0.0816
      11    C5      19.980512   19.357884   24.158478 C.3        1 MOL1        -0.1826
      12    H5      20.198776   20.259498   24.746660 H          1 MOL1         0.0736
      13    H6      19.043313   18.957826   24.568517 H          1 MOL1         0.0736
      14    C6      21.107960   18.326009   24.382360 C.3        1 MOL1        -0.2882
      15    H7      22.073240   18.714963   24.032574 H          1 MOL1         0.0749
      16    H8      21.207579   18.090356   25.449868 H          1 MOL1         0.0749
      17    H9      20.896211   17.389521   23.849779 H          1 MOL1         0.0749
@<TRIPOS>BOND
    1     1     2    1
    2     1     3    2
    3     1     4    1
    4     4     5    1
    5     4     6    1
    6     4     7    1
    7     7     8    1
    8     7     9    2
    9     9    10    1
   10     9    11    1
   11    11    12    1
   12    11    13    1
   13    11    14    1
   14    14    15    1
   15    14    16    1
   16    14    17    1
@<TRIPOS>SUBSTRUCTURE
       1 MOL1            1 RESIDUE      1      MOL     
@<SCITEGIC>MOL_PROPERTY
VConf Rank
SciTegic.value.IntegerValue
208

@<SCITEGIC>MOL_PROPERTY
Conf_Id
SciTegic.value.IntegerValue
19

@<SCITEGIC>MOL_PROPERTY
Delta U+W
SciTegic.value.DoubleValue
-0.496

@<SCITEGIC>MOL_PROPERTY
U+W
SciTegic.value.DoubleValue
-49.923

@<SCITEGIC>MOL_PROPERTY
Grad RMS
SciTegic.value.DoubleValue
0.000000

@<SCITEGIC>MOL_PROPERTY
U
SciTegic.value.DoubleValue
13.863

@<SCITEGIC>MOL_PROPERTY
W
SciTegic.value.DoubleValue
-63.786

@<SCITEGIC>MOL_PROPERTY
W(PB)
SciTegic.value.DoubleValue
-65.856

@<SCITEGIC>MOL_PROPERTY
W(SA)
SciTegic.value.DoubleValue
2.070

@<SCITEGIC>MOL_PROPERTY
Valence
SciTegic.value.DoubleValue
14.117

@<SCITEGIC>MOL_PROPERTY
Coulomb
SciTegic.value.DoubleValue
-1.228

@<SCITEGIC>MOL_PROPERTY
VdW
SciTegic.value.DoubleValue
0.974

@<SCITEGIC>MOL_PROPERTY
VdW6
SciTegic.value.DoubleValue
-4.885

@<SCITEGIC>MOL_PROPERTY
VdW12
SciTegic.value.DoubleValue
5.859

@<SCITEGIC>MOL_PROPERTY
Bond
SciTegic.value.DoubleValue
0.094

@<SCITEGIC>MOL_PROPERTY
Angle
SciTegic.value.DoubleValue
2.818

@<SCITEGIC>MOL_PROPERTY
Pdih
SciTegic.value.DoubleValue
11.205

@<SCITEGIC>MOL_PROPERTY
Idih
SciTegic.value.DoubleValue
0.000

@<SCITEGIC>MOL_PROPERTY
Tether
SciTegic.value.DoubleValue
0.000

@<TRIPOS>MOLECULE
guest-s20_confgen4.mol2 : confsearch ligand conformer 209
          17          16           1
SMALL
USER_CHARGES
 
@<TRIPOS>ATOM
       1    C1      17.292711   19.600830   22.563399 C.2        1 MOL1         0.6132
       2    O1      17.066367   20.391752   21.668958 O.co2      1 MOL1        -0.6749
       3    O2      16.587696   18.641140   22.806199 O.co2      1 MOL1        -0.6749
       4    C2      18.520291   19.828666   23.435731 C.3        1 MOL1        -0.1955
       5    H1      18.234238   19.628501   24.474766 H          1 MOL1         0.0733
       6    H2      18.791499   20.889588   23.376204 H          1 MOL1         0.0733
       7    C3      19.687745   18.945907   23.037546 C.2        1 MOL1        -0.1395
       8    H3      19.547385   17.880371   23.216842 H          1 MOL1         0.0816
       9    C4      20.821913   19.399655   22.495336 C.2        1 MOL1        -0.1394
      10    H4      20.959666   20.464687   22.311519 H          1 MOL1         0.0816
      11    C5      21.983678   18.517381   22.096300 C.3        1 MOL1        -0.1826
      12    H5      22.920091   18.937439   22.487714 H          1 MOL1         0.0736
      13    H6      21.876987   17.517598   22.539311 H          1 MOL1         0.0736
      14    C6      22.079473   18.388203   20.563613 C.3        1 MOL1        -0.2882
      15    H7      22.225749   19.370795   20.096129 H          1 MOL1         0.0749
      16    H8      22.923786   17.746672   20.279638 H          1 MOL1         0.0749
      17    H9      21.162299   17.946824   20.151717 H          1 MOL1         0.0749
@<TRIPOS>BOND
    1     1     2    1
    2     1     3    2
    3     1     4    1
    4     4     5    1
    5     4     6    1
    6     4     7    1
    7     7     8    1
    8     7     9    2
    9     9    10    1
   10     9    11    1
   11    11    12    1
   12    11    13    1
   13    11    14    1
   14    14    15    1
   15    14    16    1
   16    14    17    1
@<TRIPOS>SUBSTRUCTURE
       1 MOL1            1 RESIDUE      1      MOL     
@<SCITEGIC>MOL_PROPERTY
VConf Rank
SciTegic.value.IntegerValue
209

@<SCITEGIC>MOL_PROPERTY
Conf_Id
SciTegic.value.IntegerValue
7

@<SCITEGIC>MOL_PROPERTY
Delta U+W
SciTegic.value.DoubleValue
-0.041

@<SCITEGIC>MOL_PROPERTY
U+W
SciTegic.value.DoubleValue
-49.468

@<SCITEGIC>MOL_PROPERTY
Grad RMS
SciTegic.value.DoubleValue
0.000000

@<SCITEGIC>MOL_PROPERTY
U
SciTegic.value.DoubleValue
14.121

@<SCITEGIC>MOL_PROPERTY
W
SciTegic.value.DoubleValue
-63.589

@<SCITEGIC>MOL_PROPERTY
W(PB)
SciTegic.value.DoubleValue
-65.660

@<SCITEGIC>MOL_PROPERTY
W(SA)
SciTegic.value.DoubleValue
2.071

@<SCITEGIC>MOL_PROPERTY
Valence
SciTegic.value.DoubleValue
15.230

@<SCITEGIC>MOL_PROPERTY
Coulomb
SciTegic.value.DoubleValue
-1.333

@<SCITEGIC>MOL_PROPERTY
VdW
SciTegic.value.DoubleValue
0.224

@<SCITEGIC>MOL_PROPERTY
VdW6
SciTegic.value.DoubleValue
-4.212

@<SCITEGIC>MOL_PROPERTY
VdW12
SciTegic.value.DoubleValue
4.436

@<SCITEGIC>MOL_PROPERTY
Bond
SciTegic.value.DoubleValue
0.044

@<SCITEGIC>MOL_PROPERTY
Angle
SciTegic.value.DoubleValue
2.230

@<SCITEGIC>MOL_PROPERTY
Pdih
SciTegic.value.DoubleValue
12.956

@<SCITEGIC>MOL_PROPERTY
Idih
SciTegic.value.DoubleValue
0.000

@<SCITEGIC>MOL_PROPERTY
Tether
SciTegic.value.DoubleValue
0.000

@<TRIPOS>MOLECULE
guest-s20_confgen4.mol2 : confsearch ligand conformer 210
          17          16           1
SMALL
USER_CHARGES
 
@<TRIPOS>ATOM
       1    C1      19.596676   19.785195   24.927011 C.2        1 MOL1         0.6132
       2    O1      19.488203   20.995558   24.911247 O.co2      1 MOL1        -0.6749
       3    O2      20.351895   19.188522   25.669108 O.co2      1 MOL1        -0.6749
       4    C2      18.717470   18.969301   23.984200 C.3        1 MOL1        -0.1955
       5    H1      17.772319   19.509244   23.854124 H          1 MOL1         0.0733
       6    H2      18.461587   18.031583   24.491081 H          1 MOL1         0.0733
       7    C3      19.322265   18.664000   22.621156 C.2        1 MOL1        -0.1395
       8    H3      18.678291   18.080716   21.964176 H          1 MOL1         0.0816
       9    C4      20.531515   19.046046   22.193660 C.2        1 MOL1        -0.1394
      10    H4      21.194690   19.630636   22.830202 H          1 MOL1         0.0816
      11    C5      21.087302   18.714283   20.826555 C.3        1 MOL1        -0.1826
      12    H5      22.109421   18.324733   20.926773 H          1 MOL1         0.0736
      13    H6      20.493240   17.921632   20.351213 H          1 MOL1         0.0736
      14    C6      21.098581   19.958154   19.916779 C.3        1 MOL1        -0.2882
      15    H7      21.504037   19.711983   18.926796 H          1 MOL1         0.0749
      16    H8      20.082263   20.350886   19.780937 H          1 MOL1         0.0749
      17    H9      21.717651   20.754599   20.350238 H          1 MOL1         0.0749
@<TRIPOS>BOND
    1     1     2    1
    2     1     3    2
    3     1     4    1
    4     4     5    1
    5     4     6    1
    6     4     7    1
    7     7     8    1
    8     7     9    2
    9     9    10    1
   10     9    11    1
   11    11    12    1
   12    11    13    1
   13    11    14    1
   14    14    15    1
   15    14    16    1
   16    14    17    1
@<TRIPOS>SUBSTRUCTURE
       1 MOL1            1 RESIDUE      1      MOL     
@<SCITEGIC>MOL_PROPERTY
VConf Rank
SciTegic.value.IntegerValue
210

@<SCITEGIC>MOL_PROPERTY
Conf_Id
SciTegic.value.IntegerValue
39

@<SCITEGIC>MOL_PROPERTY
Delta U+W
SciTegic.value.DoubleValue
-0.422

@<SCITEGIC>MOL_PROPERTY
U+W
SciTegic.value.DoubleValue
-49.849

@<SCITEGIC>MOL_PROPERTY
Grad RMS
SciTegic.value.DoubleValue
0.000000

@<SCITEGIC>MOL_PROPERTY
U
SciTegic.value.DoubleValue
14.465

@<SCITEGIC>MOL_PROPERTY
W
SciTegic.value.DoubleValue
-64.314

@<SCITEGIC>MOL_PROPERTY
W(PB)
SciTegic.value.DoubleValue
-66.406

@<SCITEGIC>MOL_PROPERTY
W(SA)
SciTegic.value.DoubleValue
2.093

@<SCITEGIC>MOL_PROPERTY
Valence
SciTegic.value.DoubleValue
14.072

@<SCITEGIC>MOL_PROPERTY
Coulomb
SciTegic.value.DoubleValue
-0.199

@<SCITEGIC>MOL_PROPERTY
VdW
SciTegic.value.DoubleValue
0.592

@<SCITEGIC>MOL_PROPERTY
VdW6
SciTegic.value.DoubleValue
-5.019

@<SCITEGIC>MOL_PROPERTY
VdW12
SciTegic.value.DoubleValue
5.611

@<SCITEGIC>MOL_PROPERTY
Bond
SciTegic.value.DoubleValue
0.085

@<SCITEGIC>MOL_PROPERTY
Angle
SciTegic.value.DoubleValue
2.748

@<SCITEGIC>MOL_PROPERTY
Pdih
SciTegic.value.DoubleValue
11.238

@<SCITEGIC>MOL_PROPERTY
Idih
SciTegic.value.DoubleValue
0.001

@<SCITEGIC>MOL_PROPERTY
Tether
SciTegic.value.DoubleValue
0.000

@<TRIPOS>MOLECULE
guest-s20_confgen4.mol2 : confsearch ligand conformer 211
          17          16           1
SMALL
USER_CHARGES
 
@<TRIPOS>ATOM
       1    C1      21.074111   16.529211   20.858832 C.2        1 MOL1         0.6132
       2    O1      22.259005   16.276446   20.954206 O.co2      1 MOL1        -0.6749
       3    O2      20.413389   16.288739   19.867652 O.co2      1 MOL1        -0.6749
       4    C2      20.380272   17.177695   22.049487 C.3        1 MOL1        -0.1955
       5    H1      20.756677   16.696289   22.959474 H          1 MOL1         0.0733
       6    H2      19.308906   16.952081   21.986921 H          1 MOL1         0.0733
       7    C3      20.617729   18.674349   22.115713 C.2        1 MOL1        -0.1395
       8    H3      21.641503   18.973383   22.338572 H          1 MOL1         0.0816
       9    C4      19.668930   19.594815   21.918865 C.2        1 MOL1        -0.1394
      10    H4      18.646049   19.295126   21.693115 H          1 MOL1         0.0816
      11    C5      19.908363   21.086814   21.981571 C.3        1 MOL1        -0.1826
      12    H5      20.984896   21.304852   21.954059 H          1 MOL1         0.0736
      13    H6      19.466167   21.570574   21.100109 H          1 MOL1         0.0736
      14    C6      19.297841   21.692461   23.260443 C.3        1 MOL1        -0.2882
      15    H7      19.743942   21.241619   24.156733 H          1 MOL1         0.0749
      16    H8      19.474199   22.775243   23.300013 H          1 MOL1         0.0749
      17    H9      18.213735   21.522413   23.295477 H          1 MOL1         0.0749
@<TRIPOS>BOND
    1     1     2    1
    2     1     3    2
    3     1     4    1
    4     4     5    1
    5     4     6    1
    6     4     7    1
    7     7     8    1
    8     7     9    2
    9     9    10    1
   10     9    11    1
   11    11    12    1
   12    11    13    1
   13    11    14    1
   14    14    15    1
   15    14    16    1
   16    14    17    1
@<TRIPOS>SUBSTRUCTURE
       1 MOL1            1 RESIDUE      1      MOL     
@<SCITEGIC>MOL_PROPERTY
VConf Rank
SciTegic.value.IntegerValue
211

@<SCITEGIC>MOL_PROPERTY
Conf_Id
SciTegic.value.IntegerValue
38

@<SCITEGIC>MOL_PROPERTY
Delta U+W
SciTegic.value.DoubleValue
0.000

@<SCITEGIC>MOL_PROPERTY
U+W
SciTegic.value.DoubleValue
-49.427

@<SCITEGIC>MOL_PROPERTY
Grad RMS
SciTegic.value.DoubleValue
0.000000

@<SCITEGIC>MOL_PROPERTY
U
SciTegic.value.DoubleValue
13.666

@<SCITEGIC>MOL_PROPERTY
W
SciTegic.value.DoubleValue
-63.093

@<SCITEGIC>MOL_PROPERTY
W(PB)
SciTegic.value.DoubleValue
-65.225

@<SCITEGIC>MOL_PROPERTY
W(SA)
SciTegic.value.DoubleValue
2.132

@<SCITEGIC>MOL_PROPERTY
Valence
SciTegic.value.DoubleValue
15.226

@<SCITEGIC>MOL_PROPERTY
Coulomb
SciTegic.value.DoubleValue
-1.822

@<SCITEGIC>MOL_PROPERTY
VdW
SciTegic.value.DoubleValue
0.261

@<SCITEGIC>MOL_PROPERTY
VdW6
SciTegic.value.DoubleValue
-4.165

@<SCITEGIC>MOL_PROPERTY
VdW12
SciTegic.value.DoubleValue
4.426

@<SCITEGIC>MOL_PROPERTY
Bond
SciTegic.value.DoubleValue
0.044

@<SCITEGIC>MOL_PROPERTY
Angle
SciTegic.value.DoubleValue
2.229

@<SCITEGIC>MOL_PROPERTY
Pdih
SciTegic.value.DoubleValue
12.953

@<SCITEGIC>MOL_PROPERTY
Idih
SciTegic.value.DoubleValue
0.000

@<SCITEGIC>MOL_PROPERTY
Tether
SciTegic.value.DoubleValue
0.000

@<TRIPOS>MOLECULE
guest-s20_confgen4.mol2 : confsearch ligand conformer 212
          17          16           1
SMALL
USER_CHARGES
 
@<TRIPOS>ATOM
       1    C1      20.386933   20.303024   19.129443 C.2        1 MOL1         0.6132
       2    O1      21.183306   21.220672   19.106443 O.co2      1 MOL1        -0.6749
       3    O2      19.389147   20.261664   18.436859 O.co2      1 MOL1        -0.6749
       4    C2      20.654782   19.137801   20.072903 C.3        1 MOL1        -0.1955
       5    H1      21.730411   19.107910   20.284489 H          1 MOL1         0.0733
       6    H2      20.406875   18.212137   19.540741 H          1 MOL1         0.0733
       7    C3      19.850805   19.232365   21.355644 C.2        1 MOL1        -0.1395
       8    H3      18.774632   19.106860   21.240312 H          1 MOL1         0.0816
       9    C4      20.383242   19.455131   22.561096 C.2        1 MOL1        -0.1394
      10    H4      21.459112   19.583704   22.675260 H          1 MOL1         0.0816
      11    C5      19.579588   19.553055   23.838544 C.3        1 MOL1        -0.1826
      12    H5      19.883665   20.446709   24.400196 H          1 MOL1         0.0736
      13    H6      18.510934   19.671362   23.612269 H          1 MOL1         0.0736
      14    C6      19.779674   18.302034   24.716025 C.3        1 MOL1        -0.2882
      15    H7      20.835952   18.180393   24.989717 H          1 MOL1         0.0749
      16    H8      19.194694   18.379187   25.641731 H          1 MOL1         0.0749
      17    H9      19.457772   17.397095   24.183988 H          1 MOL1         0.0749
@<TRIPOS>BOND
    1     1     2    1
    2     1     3    2
    3     1     4    1
    4     4     5    1
    5     4     6    1
    6     4     7    1
    7     7     8    1
    8     7     9    2
    9     9    10    1
   10     9    11    1
   11    11    12    1
   12    11    13    1
   13    11    14    1
   14    14    15    1
   15    14    16    1
   16    14    17    1
@<TRIPOS>SUBSTRUCTURE
       1 MOL1            1 RESIDUE      1      MOL     
@<SCITEGIC>MOL_PROPERTY
VConf Rank
SciTegic.value.IntegerValue
212

@<SCITEGIC>MOL_PROPERTY
Conf_Id
SciTegic.value.IntegerValue
35

@<SCITEGIC>MOL_PROPERTY
Delta U+W
SciTegic.value.DoubleValue
-0.102

@<SCITEGIC>MOL_PROPERTY
U+W
SciTegic.value.DoubleValue
-49.529

@<SCITEGIC>MOL_PROPERTY
Grad RMS
SciTegic.value.DoubleValue
0.000000

@<SCITEGIC>MOL_PROPERTY
U
SciTegic.value.DoubleValue
13.666

@<SCITEGIC>MOL_PROPERTY
W
SciTegic.value.DoubleValue
-63.195

@<SCITEGIC>MOL_PROPERTY
W(PB)
SciTegic.value.DoubleValue
-65.299

@<SCITEGIC>MOL_PROPERTY
W(SA)
SciTegic.value.DoubleValue
2.103

@<SCITEGIC>MOL_PROPERTY
Valence
SciTegic.value.DoubleValue
15.226

@<SCITEGIC>MOL_PROPERTY
Coulomb
SciTegic.value.DoubleValue
-1.822

@<SCITEGIC>MOL_PROPERTY
VdW
SciTegic.value.DoubleValue
0.261

@<SCITEGIC>MOL_PROPERTY
VdW6
SciTegic.value.DoubleValue
-4.165

@<SCITEGIC>MOL_PROPERTY
VdW12
SciTegic.value.DoubleValue
4.426

@<SCITEGIC>MOL_PROPERTY
Bond
SciTegic.value.DoubleValue
0.044

@<SCITEGIC>MOL_PROPERTY
Angle
SciTegic.value.DoubleValue
2.229

@<SCITEGIC>MOL_PROPERTY
Pdih
SciTegic.value.DoubleValue
12.953

@<SCITEGIC>MOL_PROPERTY
Idih
SciTegic.value.DoubleValue
0.000

@<SCITEGIC>MOL_PROPERTY
Tether
SciTegic.value.DoubleValue
0.000

@<TRIPOS>MOLECULE
guest-s20_confgen4.mol2 : confsearch ligand conformer 213
          17          16           1
SMALL
USER_CHARGES
 
@<TRIPOS>ATOM
       1    C1      18.471249   18.894379   24.569094 C.2        1 MOL1         0.6132
       2    O1      17.307394   18.867634   24.220244 O.co2      1 MOL1        -0.6749
       3    O2      18.939816   18.146144   25.404222 O.co2      1 MOL1        -0.6749
       4    C2      19.388587   19.928977   23.930509 C.3        1 MOL1        -0.1955
       5    H1      20.223613   20.116614   24.616154 H          1 MOL1         0.0733
       6    H2      18.827333   20.866635   23.845058 H          1 MOL1         0.0733
       7    C3      19.890187   19.496369   22.565718 C.2        1 MOL1        -0.1395
       8    H3      19.123164   19.445838   21.794867 H          1 MOL1         0.0816
       9    C4      21.166420   19.189444   22.301638 C.2        1 MOL1        -0.1394
      10    H4      21.905575   19.247436   23.099993 H          1 MOL1         0.0816
      11    C5      21.735368   18.746931   20.964077 C.3        1 MOL1        -0.1826
      12    H5      22.535086   19.439978   20.669725 H          1 MOL1         0.0736
      13    H6      22.222527   17.770486   21.089587 H          1 MOL1         0.0736
      14    C6      20.705351   18.650947   19.816959 C.3        1 MOL1        -0.2882
      15    H7      20.235849   19.624947   19.626453 H          1 MOL1         0.0749
      16    H8      21.192420   18.325410   18.888617 H          1 MOL1         0.0749
      17    H9      19.916927   17.924952   20.055303 H          1 MOL1         0.0749
@<TRIPOS>BOND
    1     1     2    1
    2     1     3    2
    3     1     4    1
    4     4     5    1
    5     4     6    1
    6     4     7    1
    7     7     8    1
    8     7     9    2
    9     9    10    1
   10     9    11    1
   11    11    12    1
   12    11    13    1
   13    11    14    1
   14    14    15    1
   15    14    16    1
   16    14    17    1
@<TRIPOS>SUBSTRUCTURE
       1 MOL1            1 RESIDUE      1      MOL     
@<SCITEGIC>MOL_PROPERTY
VConf Rank
SciTegic.value.IntegerValue
213

@<SCITEGIC>MOL_PROPERTY
Conf_Id
SciTegic.value.IntegerValue
19

@<SCITEGIC>MOL_PROPERTY
Delta U+W
SciTegic.value.DoubleValue
-0.496

@<SCITEGIC>MOL_PROPERTY
U+W
SciTegic.value.DoubleValue
-49.923

@<SCITEGIC>MOL_PROPERTY
Grad RMS
SciTegic.value.DoubleValue
0.000000

@<SCITEGIC>MOL_PROPERTY
U
SciTegic.value.DoubleValue
13.863

@<SCITEGIC>MOL_PROPERTY
W
SciTegic.value.DoubleValue
-63.786

@<SCITEGIC>MOL_PROPERTY
W(PB)
SciTegic.value.DoubleValue
-65.856

@<SCITEGIC>MOL_PROPERTY
W(SA)
SciTegic.value.DoubleValue
2.070

@<SCITEGIC>MOL_PROPERTY
Valence
SciTegic.value.DoubleValue
14.117

@<SCITEGIC>MOL_PROPERTY
Coulomb
SciTegic.value.DoubleValue
-1.228

@<SCITEGIC>MOL_PROPERTY
VdW
SciTegic.value.DoubleValue
0.974

@<SCITEGIC>MOL_PROPERTY
VdW6
SciTegic.value.DoubleValue
-4.885

@<SCITEGIC>MOL_PROPERTY
VdW12
SciTegic.value.DoubleValue
5.859

@<SCITEGIC>MOL_PROPERTY
Bond
SciTegic.value.DoubleValue
0.094

@<SCITEGIC>MOL_PROPERTY
Angle
SciTegic.value.DoubleValue
2.818

@<SCITEGIC>MOL_PROPERTY
Pdih
SciTegic.value.DoubleValue
11.205

@<SCITEGIC>MOL_PROPERTY
Idih
SciTegic.value.DoubleValue
0.000

@<SCITEGIC>MOL_PROPERTY
Tether
SciTegic.value.DoubleValue
0.000

@<TRIPOS>MOLECULE
guest-s20_confgen4.mol2 : confsearch ligand conformer 214
          17          16           1
SMALL
USER_CHARGES
 
@<TRIPOS>ATOM
       1    C1      19.200756   16.458873   21.255407 C.2        1 MOL1         0.6132
       2    O1      18.001347   16.543733   21.431556 O.co2      1 MOL1        -0.6749
       3    O2      19.701444   16.040986   20.229891 O.co2      1 MOL1        -0.6749
       4    C2      20.128865   16.888982   22.383879 C.3        1 MOL1        -0.1955
       5    H1      20.939293   16.153841   22.449145 H          1 MOL1         0.0733
       6    H2      19.570715   16.835880   23.326377 H          1 MOL1         0.0733
       7    C3      20.700903   18.277163   22.168267 C.2        1 MOL1        -0.1395
       8    H3      21.394671   18.369688   21.333197 H          1 MOL1         0.0816
       9    C4      20.396895   19.339930   22.919479 C.2        1 MOL1        -0.1394
      10    H4      19.699141   19.247950   23.751187 H          1 MOL1         0.0816
      11    C5      20.966185   20.723945   22.700967 C.3        1 MOL1        -0.1826
      12    H5      21.326758   21.131675   23.655045 H          1 MOL1         0.0736
      13    H6      21.833866   20.680887   22.028298 H          1 MOL1         0.0736
      14    C6      19.905987   21.670671   22.105414 C.3        1 MOL1        -0.2882
      15    H7      19.042163   21.763173   22.776739 H          1 MOL1         0.0749
      16    H8      20.324485   22.673319   21.948493 H          1 MOL1         0.0749
      17    H9      19.548101   21.295311   21.137580 H          1 MOL1         0.0749
@<TRIPOS>BOND
    1     1     2    1
    2     1     3    2
    3     1     4    1
    4     4     5    1
    5     4     6    1
    6     4     7    1
    7     7     8    1
    8     7     9    2
    9     9    10    1
   10     9    11    1
   11    11    12    1
   12    11    13    1
   13    11    14    1
   14    14    15    1
   15    14    16    1
   16    14    17    1
@<TRIPOS>SUBSTRUCTURE
       1 MOL1            1 RESIDUE      1      MOL     
@<SCITEGIC>MOL_PROPERTY
VConf Rank
SciTegic.value.IntegerValue
214

@<SCITEGIC>MOL_PROPERTY
Conf_Id
SciTegic.value.IntegerValue
7

@<SCITEGIC>MOL_PROPERTY
Delta U+W
SciTegic.value.DoubleValue
-0.041

@<SCITEGIC>MOL_PROPERTY
U+W
SciTegic.value.DoubleValue
-49.468

@<SCITEGIC>MOL_PROPERTY
Grad RMS
SciTegic.value.DoubleValue
0.000000

@<SCITEGIC>MOL_PROPERTY
U
SciTegic.value.DoubleValue
14.121

@<SCITEGIC>MOL_PROPERTY
W
SciTegic.value.DoubleValue
-63.589

@<SCITEGIC>MOL_PROPERTY
W(PB)
SciTegic.value.DoubleValue
-65.660

@<SCITEGIC>MOL_PROPERTY
W(SA)
SciTegic.value.DoubleValue
2.071

@<SCITEGIC>MOL_PROPERTY
Valence
SciTegic.value.DoubleValue
15.230

@<SCITEGIC>MOL_PROPERTY
Coulomb
SciTegic.value.DoubleValue
-1.333

@<SCITEGIC>MOL_PROPERTY
VdW
SciTegic.value.DoubleValue
0.224

@<SCITEGIC>MOL_PROPERTY
VdW6
SciTegic.value.DoubleValue
-4.212

@<SCITEGIC>MOL_PROPERTY
VdW12
SciTegic.value.DoubleValue
4.436

@<SCITEGIC>MOL_PROPERTY
Bond
SciTegic.value.DoubleValue
0.044

@<SCITEGIC>MOL_PROPERTY
Angle
SciTegic.value.DoubleValue
2.230

@<SCITEGIC>MOL_PROPERTY
Pdih
SciTegic.value.DoubleValue
12.956

@<SCITEGIC>MOL_PROPERTY
Idih
SciTegic.value.DoubleValue
0.000

@<SCITEGIC>MOL_PROPERTY
Tether
SciTegic.value.DoubleValue
0.000

@<TRIPOS>MOLECULE
guest-s20_confgen4.mol2 : confsearch ligand conformer 215
          17          16           1
SMALL
USER_CHARGES
 
@<TRIPOS>ATOM
       1    C1      17.929005   17.695297   21.723341 C.2        1 MOL1         0.6132
       2    O1      17.734407   17.189250   22.811018 O.co2      1 MOL1        -0.6749
       3    O2      18.065409   17.054618   20.699619 O.co2      1 MOL1        -0.6749
       4    C2      17.976898   19.217540   21.633565 C.3        1 MOL1        -0.1955
       5    H1      17.301955   19.620885   22.397458 H          1 MOL1         0.0733
       6    H2      17.548607   19.510516   20.667929 H          1 MOL1         0.0733
       7    C3      19.356162   19.841935   21.790536 C.2        1 MOL1        -0.1395
       8    H3      19.367681   20.929069   21.723060 H          1 MOL1         0.0816
       9    C4      20.500487   19.179736   21.997917 C.2        1 MOL1        -0.1394
      10    H4      20.516606   18.092890   22.070306 H          1 MOL1         0.0816
      11    C5      21.848568   19.849589   22.145958 C.3        1 MOL1        -0.1826
      12    H5      22.585169   19.345051   21.506129 H          1 MOL1         0.0736
      13    H6      21.799286   20.893509   21.806906 H          1 MOL1         0.0736
      14    C6      22.328045   19.811122   23.610081 C.3        1 MOL1        -0.2882
      15    H7      23.307086   20.297208   23.711372 H          1 MOL1         0.0749
      16    H8      21.618882   20.332768   24.266258 H          1 MOL1         0.0749
      17    H9      22.423152   18.776089   23.963802 H          1 MOL1         0.0749
@<TRIPOS>BOND
    1     1     2    1
    2     1     3    2
    3     1     4    1
    4     4     5    1
    5     4     6    1
    6     4     7    1
    7     7     8    1
    8     7     9    2
    9     9    10    1
   10     9    11    1
   11    11    12    1
   12    11    13    1
   13    11    14    1
   14    14    15    1
   15    14    16    1
   16    14    17    1
@<TRIPOS>SUBSTRUCTURE
       1 MOL1            1 RESIDUE      1      MOL     
@<SCITEGIC>MOL_PROPERTY
VConf Rank
SciTegic.value.IntegerValue
215

@<SCITEGIC>MOL_PROPERTY
Conf_Id
SciTegic.value.IntegerValue
39

@<SCITEGIC>MOL_PROPERTY
Delta U+W
SciTegic.value.DoubleValue
-0.422

@<SCITEGIC>MOL_PROPERTY
U+W
SciTegic.value.DoubleValue
-49.849

@<SCITEGIC>MOL_PROPERTY
Grad RMS
SciTegic.value.DoubleValue
0.000000

@<SCITEGIC>MOL_PROPERTY
U
SciTegic.value.DoubleValue
14.465

@<SCITEGIC>MOL_PROPERTY
W
SciTegic.value.DoubleValue
-64.314

@<SCITEGIC>MOL_PROPERTY
W(PB)
SciTegic.value.DoubleValue
-66.406

@<SCITEGIC>MOL_PROPERTY
W(SA)
SciTegic.value.DoubleValue
2.093

@<SCITEGIC>MOL_PROPERTY
Valence
SciTegic.value.DoubleValue
14.072

@<SCITEGIC>MOL_PROPERTY
Coulomb
SciTegic.value.DoubleValue
-0.199

@<SCITEGIC>MOL_PROPERTY
VdW
SciTegic.value.DoubleValue
0.592

@<SCITEGIC>MOL_PROPERTY
VdW6
SciTegic.value.DoubleValue
-5.019

@<SCITEGIC>MOL_PROPERTY
VdW12
SciTegic.value.DoubleValue
5.611

@<SCITEGIC>MOL_PROPERTY
Bond
SciTegic.value.DoubleValue
0.085

@<SCITEGIC>MOL_PROPERTY
Angle
SciTegic.value.DoubleValue
2.748

@<SCITEGIC>MOL_PROPERTY
Pdih
SciTegic.value.DoubleValue
11.238

@<SCITEGIC>MOL_PROPERTY
Idih
SciTegic.value.DoubleValue
0.001

@<SCITEGIC>MOL_PROPERTY
Tether
SciTegic.value.DoubleValue
0.000

@<TRIPOS>MOLECULE
guest-s20_confgen4.mol2 : confsearch ligand conformer 216
          17          16           1
SMALL
USER_CHARGES
 
@<TRIPOS>ATOM
       1    C1      19.225850   19.566841   25.130388 C.2        1 MOL1         0.6132
       2    O1      19.028218   20.697021   25.531130 O.co2      1 MOL1        -0.6749
       3    O2      19.774904   18.706413   25.789950 O.co2      1 MOL1        -0.6749
       4    C2      18.754100   19.210007   23.726919 C.3        1 MOL1        -0.1955
       5    H1      17.770651   19.670285   23.576981 H          1 MOL1         0.0733
       6    H2      18.610566   18.123848   23.678993 H          1 MOL1         0.0733
       7    C3      19.717699   19.678953   22.653462 C.2        1 MOL1        -0.1395
       8    H3      19.790058   20.759475   22.533307 H          1 MOL1         0.0816
       9    C4      20.446942   18.860292   21.889115 C.2        1 MOL1        -0.1394
      10    H4      20.376318   17.780007   22.011823 H          1 MOL1         0.0816
      11    C5      21.410096   19.329806   20.821776 C.3        1 MOL1        -0.1826
      12    H5      21.615452   20.403265   20.934625 H          1 MOL1         0.0736
      13    H6      22.371632   18.811233   20.936088 H          1 MOL1         0.0736
      14    C6      20.847262   19.063652   19.412010 C.3        1 MOL1        -0.2882
      15    H7      19.896968   19.593720   19.265137 H          1 MOL1         0.0749
      16    H8      21.550739   19.405819   18.641862 H          1 MOL1         0.0749
      17    H9      20.668259   17.991473   19.257678 H          1 MOL1         0.0749
@<TRIPOS>BOND
    1     1     2    1
    2     1     3    2
    3     1     4    1
    4     4     5    1
    5     4     6    1
    6     4     7    1
    7     7     8    1
    8     7     9    2
    9     9    10    1
   10     9    11    1
   11    11    12    1
   12    11    13    1
   13    11    14    1
   14    14    15    1
   15    14    16    1
   16    14    17    1
@<TRIPOS>SUBSTRUCTURE
       1 MOL1            1 RESIDUE      1      MOL     
@<SCITEGIC>MOL_PROPERTY
VConf Rank
SciTegic.value.IntegerValue
216

@<SCITEGIC>MOL_PROPERTY
Conf_Id
SciTegic.value.IntegerValue
38

@<SCITEGIC>MOL_PROPERTY
Delta U+W
SciTegic.value.DoubleValue
0.000

@<SCITEGIC>MOL_PROPERTY
U+W
SciTegic.value.DoubleValue
-49.427

@<SCITEGIC>MOL_PROPERTY
Grad RMS
SciTegic.value.DoubleValue
0.000000

@<SCITEGIC>MOL_PROPERTY
U
SciTegic.value.DoubleValue
13.666

@<SCITEGIC>MOL_PROPERTY
W
SciTegic.value.DoubleValue
-63.093

@<SCITEGIC>MOL_PROPERTY
W(PB)
SciTegic.value.DoubleValue
-65.225

@<SCITEGIC>MOL_PROPERTY
W(SA)
SciTegic.value.DoubleValue
2.132

@<SCITEGIC>MOL_PROPERTY
Valence
SciTegic.value.DoubleValue
15.226

@<SCITEGIC>MOL_PROPERTY
Coulomb
SciTegic.value.DoubleValue
-1.822

@<SCITEGIC>MOL_PROPERTY
VdW
SciTegic.value.DoubleValue
0.261

@<SCITEGIC>MOL_PROPERTY
VdW6
SciTegic.value.DoubleValue
-4.165

@<SCITEGIC>MOL_PROPERTY
VdW12
SciTegic.value.DoubleValue
4.426

@<SCITEGIC>MOL_PROPERTY
Bond
SciTegic.value.DoubleValue
0.044

@<SCITEGIC>MOL_PROPERTY
Angle
SciTegic.value.DoubleValue
2.229

@<SCITEGIC>MOL_PROPERTY
Pdih
SciTegic.value.DoubleValue
12.953

@<SCITEGIC>MOL_PROPERTY
Idih
SciTegic.value.DoubleValue
0.000

@<SCITEGIC>MOL_PROPERTY
Tether
SciTegic.value.DoubleValue
0.000

@<TRIPOS>MOLECULE
guest-s20_confgen4.mol2 : confsearch ligand conformer 217
          17          16           1
SMALL
USER_CHARGES
 
@<TRIPOS>ATOM
       1    C1      19.091997   18.405770   19.226552 C.2        1 MOL1         0.6132
       2    O1      18.526207   17.333209   19.306003 O.co2      1 MOL1        -0.6749
       3    O2      19.797869   18.725449   18.290331 O.co2      1 MOL1        -0.6749
       4    C2      18.903208   19.407466   20.358174 C.3        1 MOL1        -0.1955
       5    H1      17.962170   19.173269   20.870266 H          1 MOL1         0.0733
       6    H2      18.785715   20.400873   19.910017 H          1 MOL1         0.0733
       7    C3      20.066140   19.409693   21.331997 C.2        1 MOL1        -0.1395
       8    H3      21.006596   19.787950   20.932417 H          1 MOL1         0.0816
       9    C4      19.987571   18.984749   22.596701 C.2        1 MOL1        -0.1394
      10    H4      19.047644   18.603667   22.994665 H          1 MOL1         0.0816
      11    C5      21.149233   18.984017   23.565134 C.3        1 MOL1        -0.1826
      12    H5      21.217241   18.006613   24.061711 H          1 MOL1         0.0736
      13    H6      22.096786   19.131852   23.028938 H          1 MOL1         0.0736
      14    C6      20.986065   20.089308   24.626628 C.3        1 MOL1        -0.2882
      15    H7      20.064013   19.944183   25.204717 H          1 MOL1         0.0749
      16    H8      21.831523   20.083371   25.326808 H          1 MOL1         0.0749
      17    H9      20.941548   21.079664   24.154598 H          1 MOL1         0.0749
@<TRIPOS>BOND
    1     1     2    1
    2     1     3    2
    3     1     4    1
    4     4     5    1
    5     4     6    1
    6     4     7    1
    7     7     8    1
    8     7     9    2
    9     9    10    1
   10     9    11    1
   11    11    12    1
   12    11    13    1
   13    11    14    1
   14    14    15    1
   15    14    16    1
   16    14    17    1
@<TRIPOS>SUBSTRUCTURE
       1 MOL1            1 RESIDUE      1      MOL     
@<SCITEGIC>MOL_PROPERTY
VConf Rank
SciTegic.value.IntegerValue
217

@<SCITEGIC>MOL_PROPERTY
Conf_Id
SciTegic.value.IntegerValue
35

@<SCITEGIC>MOL_PROPERTY
Delta U+W
SciTegic.value.DoubleValue
-0.102

@<SCITEGIC>MOL_PROPERTY
U+W
SciTegic.value.DoubleValue
-49.529

@<SCITEGIC>MOL_PROPERTY
Grad RMS
SciTegic.value.DoubleValue
0.000000

@<SCITEGIC>MOL_PROPERTY
U
SciTegic.value.DoubleValue
13.666

@<SCITEGIC>MOL_PROPERTY
W
SciTegic.value.DoubleValue
-63.195

@<SCITEGIC>MOL_PROPERTY
W(PB)
SciTegic.value.DoubleValue
-65.299

@<SCITEGIC>MOL_PROPERTY
W(SA)
SciTegic.value.DoubleValue
2.103

@<SCITEGIC>MOL_PROPERTY
Valence
SciTegic.value.DoubleValue
15.226

@<SCITEGIC>MOL_PROPERTY
Coulomb
SciTegic.value.DoubleValue
-1.822

@<SCITEGIC>MOL_PROPERTY
VdW
SciTegic.value.DoubleValue
0.261

@<SCITEGIC>MOL_PROPERTY
VdW6
SciTegic.value.DoubleValue
-4.165

@<SCITEGIC>MOL_PROPERTY
VdW12
SciTegic.value.DoubleValue
4.426

@<SCITEGIC>MOL_PROPERTY
Bond
SciTegic.value.DoubleValue
0.044

@<SCITEGIC>MOL_PROPERTY
Angle
SciTegic.value.DoubleValue
2.229

@<SCITEGIC>MOL_PROPERTY
Pdih
SciTegic.value.DoubleValue
12.953

@<SCITEGIC>MOL_PROPERTY
Idih
SciTegic.value.DoubleValue
0.000

@<SCITEGIC>MOL_PROPERTY
Tether
SciTegic.value.DoubleValue
0.000

@<TRIPOS>MOLECULE
guest-s20_confgen4.mol2 : confsearch ligand conformer 218
          17          16           1
SMALL
USER_CHARGES
 
@<TRIPOS>ATOM
       1    C1      18.645393   16.849841   21.126755 C.2        1 MOL1         0.6132
       2    O1      19.091241   15.797498   21.539992 O.co2      1 MOL1        -0.6749
       3    O2      17.459245   17.112885   21.100106 O.co2      1 MOL1        -0.6749
       4    C2      19.627755   17.890535   20.605589 C.3        1 MOL1        -0.1955
       5    H1      19.094480   18.545517   19.906159 H          1 MOL1         0.0733
       6    H2      20.397515   17.364931   20.028771 H          1 MOL1         0.0733
       7    C3      20.270360   18.692368   21.721622 C.2        1 MOL1        -0.1395
       8    H3      20.943669   18.123308   22.360304 H          1 MOL1         0.0816
       9    C4      20.042623   19.994818   21.932502 C.2        1 MOL1        -0.1394
      10    H4      19.358673   20.530436   21.274922 H          1 MOL1         0.0816
      11    C5      20.646789   20.855914   23.028899 C.3        1 MOL1        -0.1826
      12    H5      21.173413   21.702585   22.568115 H          1 MOL1         0.0736
      13    H6      19.835240   21.300155   23.620981 H          1 MOL1         0.0736
      14    C6      21.615684   20.117478   23.978627 C.3        1 MOL1        -0.2882
      15    H7      22.470701   19.705377   23.426792 H          1 MOL1         0.0749
      16    H8      22.006864   20.804820   24.739921 H          1 MOL1         0.0749
      17    H9      21.107218   19.294656   24.498161 H          1 MOL1         0.0749
@<TRIPOS>BOND
    1     1     2    1
    2     1     3    2
    3     1     4    1
    4     4     5    1
    5     4     6    1
    6     4     7    1
    7     7     8    1
    8     7     9    2
    9     9    10    1
   10     9    11    1
   11    11    12    1
   12    11    13    1
   13    11    14    1
   14    14    15    1
   15    14    16    1
   16    14    17    1
@<TRIPOS>SUBSTRUCTURE
       1 MOL1            1 RESIDUE      1      MOL     
@<SCITEGIC>MOL_PROPERTY
VConf Rank
SciTegic.value.IntegerValue
218

@<SCITEGIC>MOL_PROPERTY
Conf_Id
SciTegic.value.IntegerValue
19

@<SCITEGIC>MOL_PROPERTY
Delta U+W
SciTegic.value.DoubleValue
-0.496

@<SCITEGIC>MOL_PROPERTY
U+W
SciTegic.value.DoubleValue
-49.923

@<SCITEGIC>MOL_PROPERTY
Grad RMS
SciTegic.value.DoubleValue
0.000000

@<SCITEGIC>MOL_PROPERTY
U
SciTegic.value.DoubleValue
13.863

@<SCITEGIC>MOL_PROPERTY
W
SciTegic.value.DoubleValue
-63.786

@<SCITEGIC>MOL_PROPERTY
W(PB)
SciTegic.value.DoubleValue
-65.856

@<SCITEGIC>MOL_PROPERTY
W(SA)
SciTegic.value.DoubleValue
2.070

@<SCITEGIC>MOL_PROPERTY
Valence
SciTegic.value.DoubleValue
14.117

@<SCITEGIC>MOL_PROPERTY
Coulomb
SciTegic.value.DoubleValue
-1.228

@<SCITEGIC>MOL_PROPERTY
VdW
SciTegic.value.DoubleValue
0.974

@<SCITEGIC>MOL_PROPERTY
VdW6
SciTegic.value.DoubleValue
-4.885

@<SCITEGIC>MOL_PROPERTY
VdW12
SciTegic.value.DoubleValue
5.859

@<SCITEGIC>MOL_PROPERTY
Bond
SciTegic.value.DoubleValue
0.094

@<SCITEGIC>MOL_PROPERTY
Angle
SciTegic.value.DoubleValue
2.818

@<SCITEGIC>MOL_PROPERTY
Pdih
SciTegic.value.DoubleValue
11.205

@<SCITEGIC>MOL_PROPERTY
Idih
SciTegic.value.DoubleValue
0.000

@<SCITEGIC>MOL_PROPERTY
Tether
SciTegic.value.DoubleValue
0.000

@<TRIPOS>MOLECULE
guest-s20_confgen4.mol2 : confsearch ligand conformer 219
          17          16           1
SMALL
USER_CHARGES
 
@<TRIPOS>ATOM
       1    C1      23.067289   19.444395   22.112510 C.2        1 MOL1         0.6132
       2    O1      23.354916   18.956394   21.037365 O.co2      1 MOL1        -0.6749
       3    O2      23.486833   20.518291   22.496871 O.co2      1 MOL1        -0.6749
       4    C2      22.139199   18.664626   23.034701 C.3        1 MOL1        -0.1955
       5    H1      22.533526   18.747311   24.054091 H          1 MOL1         0.0733
       6    H2      22.189362   17.605127   22.756136 H          1 MOL1         0.0733
       7    C3      20.710774   19.172549   22.985932 C.2        1 MOL1        -0.1395
       8    H3      20.557881   20.170600   23.395485 H          1 MOL1         0.0816
       9    C4      19.684922   18.482188   22.478738 C.2        1 MOL1        -0.1394
      10    H4      19.839303   17.486316   22.064654 H          1 MOL1         0.0816
      11    C5      18.261824   18.991695   22.428412 C.3        1 MOL1        -0.1826
      12    H5      17.578116   18.220897   22.809117 H          1 MOL1         0.0736
      13    H6      18.143958   19.867931   23.080735 H          1 MOL1         0.0736
      14    C6      17.860001   19.369722   20.989446 C.3        1 MOL1        -0.2882
      15    H7      17.931260   18.500996   20.321866 H          1 MOL1         0.0749
      16    H8      16.826740   19.739179   20.958768 H          1 MOL1         0.0749
      17    H9      18.515672   20.157791   20.596097 H          1 MOL1         0.0749
@<TRIPOS>BOND
    1     1     2    1
    2     1     3    2
    3     1     4    1
    4     4     5    1
    5     4     6    1
    6     4     7    1
    7     7     8    1
    8     7     9    2
    9     9    10    1
   10     9    11    1
   11    11    12    1
   12    11    13    1
   13    11    14    1
   14    14    15    1
   15    14    16    1
   16    14    17    1
@<TRIPOS>SUBSTRUCTURE
       1 MOL1            1 RESIDUE      1      MOL     
@<SCITEGIC>MOL_PROPERTY
VConf Rank
SciTegic.value.IntegerValue
219

@<SCITEGIC>MOL_PROPERTY
Conf_Id
SciTegic.value.IntegerValue
7

@<SCITEGIC>MOL_PROPERTY
Delta U+W
SciTegic.value.DoubleValue
-0.041

@<SCITEGIC>MOL_PROPERTY
U+W
SciTegic.value.DoubleValue
-49.468

@<SCITEGIC>MOL_PROPERTY
Grad RMS
SciTegic.value.DoubleValue
0.000000

@<SCITEGIC>MOL_PROPERTY
U
SciTegic.value.DoubleValue
14.121

@<SCITEGIC>MOL_PROPERTY
W
SciTegic.value.DoubleValue
-63.589

@<SCITEGIC>MOL_PROPERTY
W(PB)
SciTegic.value.DoubleValue
-65.660

@<SCITEGIC>MOL_PROPERTY
W(SA)
SciTegic.value.DoubleValue
2.071

@<SCITEGIC>MOL_PROPERTY
Valence
SciTegic.value.DoubleValue
15.230

@<SCITEGIC>MOL_PROPERTY
Coulomb
SciTegic.value.DoubleValue
-1.333

@<SCITEGIC>MOL_PROPERTY
VdW
SciTegic.value.DoubleValue
0.224

@<SCITEGIC>MOL_PROPERTY
VdW6
SciTegic.value.DoubleValue
-4.212

@<SCITEGIC>MOL_PROPERTY
VdW12
SciTegic.value.DoubleValue
4.436

@<SCITEGIC>MOL_PROPERTY
Bond
SciTegic.value.DoubleValue
0.044

@<SCITEGIC>MOL_PROPERTY
Angle
SciTegic.value.DoubleValue
2.230

@<SCITEGIC>MOL_PROPERTY
Pdih
SciTegic.value.DoubleValue
12.956

@<SCITEGIC>MOL_PROPERTY
Idih
SciTegic.value.DoubleValue
0.000

@<SCITEGIC>MOL_PROPERTY
Tether
SciTegic.value.DoubleValue
0.000

@<TRIPOS>MOLECULE
guest-s20_confgen4.mol2 : confsearch ligand conformer 220
          17          16           1
SMALL
USER_CHARGES
 
@<TRIPOS>ATOM
       1    C1      17.504457   20.007803   22.706491 C.2        1 MOL1         0.6132
       2    O1      17.083254   19.023885   23.282238 O.co2      1 MOL1        -0.6749
       3    O2      16.986644   20.476644   21.711936 O.co2      1 MOL1        -0.6749
       4    C2      18.732857   20.708509   23.278874 C.3        1 MOL1        -0.1955
       5    H1      18.714810   20.582912   24.367758 H          1 MOL1         0.0733
       6    H2      18.620858   21.783834   23.097621 H          1 MOL1         0.0733
       7    C3      20.072846   20.235882   22.733044 C.2        1 MOL1        -0.1395
       8    H3      20.936165   20.749083   23.154767 H          1 MOL1         0.0816
       9    C4      20.255212   19.277961   21.816461 C.2        1 MOL1        -0.1394
      10    H4      19.409205   18.748668   21.379591 H          1 MOL1         0.0816
      11    C5      21.611685   18.845747   21.305468 C.3        1 MOL1        -0.1826
      12    H5      21.597699   18.803017   20.207972 H          1 MOL1         0.0736
      13    H6      22.379780   19.580937   21.582377 H          1 MOL1         0.0736
      14    C6      22.001065   17.464953   21.868342 C.3        1 MOL1        -0.2882
      15    H7      22.985331   17.155779   21.493252 H          1 MOL1         0.0749
      16    H8      22.046610   17.489899   22.965109 H          1 MOL1         0.0749
      17    H9      21.268929   16.701559   21.573954 H          1 MOL1         0.0749
@<TRIPOS>BOND
    1     1     2    1
    2     1     3    2
    3     1     4    1
    4     4     5    1
    5     4     6    1
    6     4     7    1
    7     7     8    1
    8     7     9    2
    9     9    10    1
   10     9    11    1
   11    11    12    1
   12    11    13    1
   13    11    14    1
   14    14    15    1
   15    14    16    1
   16    14    17    1
@<TRIPOS>SUBSTRUCTURE
       1 MOL1            1 RESIDUE      1      MOL     
@<SCITEGIC>MOL_PROPERTY
VConf Rank
SciTegic.value.IntegerValue
220

@<SCITEGIC>MOL_PROPERTY
Conf_Id
SciTegic.value.IntegerValue
39

@<SCITEGIC>MOL_PROPERTY
Delta U+W
SciTegic.value.DoubleValue
-0.422

@<SCITEGIC>MOL_PROPERTY
U+W
SciTegic.value.DoubleValue
-49.849

@<SCITEGIC>MOL_PROPERTY
Grad RMS
SciTegic.value.DoubleValue
0.000000

@<SCITEGIC>MOL_PROPERTY
U
SciTegic.value.DoubleValue
14.465

@<SCITEGIC>MOL_PROPERTY
W
SciTegic.value.DoubleValue
-64.314

@<SCITEGIC>MOL_PROPERTY
W(PB)
SciTegic.value.DoubleValue
-66.406

@<SCITEGIC>MOL_PROPERTY
W(SA)
SciTegic.value.DoubleValue
2.093

@<SCITEGIC>MOL_PROPERTY
Valence
SciTegic.value.DoubleValue
14.072

@<SCITEGIC>MOL_PROPERTY
Coulomb
SciTegic.value.DoubleValue
-0.199

@<SCITEGIC>MOL_PROPERTY
VdW
SciTegic.value.DoubleValue
0.592

@<SCITEGIC>MOL_PROPERTY
VdW6
SciTegic.value.DoubleValue
-5.019

@<SCITEGIC>MOL_PROPERTY
VdW12
SciTegic.value.DoubleValue
5.611

@<SCITEGIC>MOL_PROPERTY
Bond
SciTegic.value.DoubleValue
0.085

@<SCITEGIC>MOL_PROPERTY
Angle
SciTegic.value.DoubleValue
2.748

@<SCITEGIC>MOL_PROPERTY
Pdih
SciTegic.value.DoubleValue
11.238

@<SCITEGIC>MOL_PROPERTY
Idih
SciTegic.value.DoubleValue
0.001

@<SCITEGIC>MOL_PROPERTY
Tether
SciTegic.value.DoubleValue
0.000

@<TRIPOS>MOLECULE
guest-s20_confgen4.mol2 : confsearch ligand conformer 221
          17          16           1
SMALL
USER_CHARGES
 
@<TRIPOS>ATOM
       1    C1      17.258893   17.932750   22.413434 C.2        1 MOL1         0.6132
       2    O1      16.825703   17.832039   23.544436 O.co2      1 MOL1        -0.6749
       3    O2      17.131164   17.071379   21.565765 O.co2      1 MOL1        -0.6749
       4    C2      17.996982   19.211142   22.038544 C.3        1 MOL1        -0.1955
       5    H1      17.455979   20.053460   22.485002 H          1 MOL1         0.0733
       6    H2      17.939762   19.333800   20.950279 H          1 MOL1         0.0733
       7    C3      19.438545   19.209216   22.510387 C.2        1 MOL1        -0.1395
       8    H3      19.574351   19.251207   23.590662 H          1 MOL1         0.0816
       9    C4      20.495848   19.158043   21.694470 C.2        1 MOL1        -0.1394
      10    H4      20.359281   19.113064   20.614476 H          1 MOL1         0.0816
      11    C5      21.932536   19.152401   22.166929 C.3        1 MOL1        -0.1826
      12    H5      21.982201   18.940232   23.243840 H          1 MOL1         0.0736
      13    H6      22.485779   18.349221   21.661598 H          1 MOL1         0.0736
      14    C6      22.614745   20.504504   21.881498 C.3        1 MOL1        -0.2882
      15    H7      22.093304   21.321043   22.398184 H          1 MOL1         0.0749
      16    H8      23.657035   20.494121   22.225896 H          1 MOL1         0.0749
      17    H9      22.613602   20.724487   20.805842 H          1 MOL1         0.0749
@<TRIPOS>BOND
    1     1     2    1
    2     1     3    2
    3     1     4    1
    4     4     5    1
    5     4     6    1
    6     4     7    1
    7     7     8    1
    8     7     9    2
    9     9    10    1
   10     9    11    1
   11    11    12    1
   12    11    13    1
   13    11    14    1
   14    14    15    1
   15    14    16    1
   16    14    17    1
@<TRIPOS>SUBSTRUCTURE
       1 MOL1            1 RESIDUE      1      MOL     
@<SCITEGIC>MOL_PROPERTY
VConf Rank
SciTegic.value.IntegerValue
221

@<SCITEGIC>MOL_PROPERTY
Conf_Id
SciTegic.value.IntegerValue
38

@<SCITEGIC>MOL_PROPERTY
Delta U+W
SciTegic.value.DoubleValue
0.000

@<SCITEGIC>MOL_PROPERTY
U+W
SciTegic.value.DoubleValue
-49.427

@<SCITEGIC>MOL_PROPERTY
Grad RMS
SciTegic.value.DoubleValue
0.000000

@<SCITEGIC>MOL_PROPERTY
U
SciTegic.value.DoubleValue
13.666

@<SCITEGIC>MOL_PROPERTY
W
SciTegic.value.DoubleValue
-63.093

@<SCITEGIC>MOL_PROPERTY
W(PB)
SciTegic.value.DoubleValue
-65.225

@<SCITEGIC>MOL_PROPERTY
W(SA)
SciTegic.value.DoubleValue
2.132

@<SCITEGIC>MOL_PROPERTY
Valence
SciTegic.value.DoubleValue
15.226

@<SCITEGIC>MOL_PROPERTY
Coulomb
SciTegic.value.DoubleValue
-1.822

@<SCITEGIC>MOL_PROPERTY
VdW
SciTegic.value.DoubleValue
0.261

@<SCITEGIC>MOL_PROPERTY
VdW6
SciTegic.value.DoubleValue
-4.165

@<SCITEGIC>MOL_PROPERTY
VdW12
SciTegic.value.DoubleValue
4.426

@<SCITEGIC>MOL_PROPERTY
Bond
SciTegic.value.DoubleValue
0.044

@<SCITEGIC>MOL_PROPERTY
Angle
SciTegic.value.DoubleValue
2.229

@<SCITEGIC>MOL_PROPERTY
Pdih
SciTegic.value.DoubleValue
12.953

@<SCITEGIC>MOL_PROPERTY
Idih
SciTegic.value.DoubleValue
0.000

@<SCITEGIC>MOL_PROPERTY
Tether
SciTegic.value.DoubleValue
0.000

@<TRIPOS>MOLECULE
guest-s20_confgen4.mol2 : confsearch ligand conformer 222
          17          16           1
SMALL
USER_CHARGES
 
@<TRIPOS>ATOM
       1    C1      17.076166   18.384194   22.525849 C.2        1 MOL1         0.6132
       2    O1      16.678975   18.819444   23.588683 O.co2      1 MOL1        -0.6749
       3    O2      16.763869   17.294808   22.086909 O.co2      1 MOL1        -0.6749
       4    C2      18.012032   19.251763   21.694535 C.3        1 MOL1        -0.1955
       5    H1      17.857188   20.298207   21.983705 H          1 MOL1         0.0733
       6    H2      17.709036   19.160963   20.645032 H          1 MOL1         0.0733
       7    C3      19.467072   18.853587   21.852832 C.2        1 MOL1        -0.1395
       8    H3      19.731078   17.881548   21.437327 H          1 MOL1         0.0816
       9    C4      20.391323   19.608846   22.454140 C.2        1 MOL1        -0.1394
      10    H4      20.125951   20.579336   22.872216 H          1 MOL1         0.0816
      11    C5      21.840895   19.208438   22.614566 C.3        1 MOL1        -0.1826
      12    H5      22.156766   19.368441   23.654353 H          1 MOL1         0.0736
      13    H6      21.968915   18.137015   22.407483 H          1 MOL1         0.0736
      14    C6      22.747936   20.022192   21.671093 C.3        1 MOL1        -0.2882
      15    H7      22.668787   21.096758   21.881973 H          1 MOL1         0.0749
      16    H8      23.798483   19.727760   21.792528 H          1 MOL1         0.0749
      17    H9      22.467054   19.857805   20.622435 H          1 MOL1         0.0749
@<TRIPOS>BOND
    1     1     2    1
    2     1     3    2
    3     1     4    1
    4     4     5    1
    5     4     6    1
    6     4     7    1
    7     7     8    1
    8     7     9    2
    9     9    10    1
   10     9    11    1
   11    11    12    1
   12    11    13    1
   13    11    14    1
   14    14    15    1
   15    14    16    1
   16    14    17    1
@<TRIPOS>SUBSTRUCTURE
       1 MOL1            1 RESIDUE      1      MOL     
@<SCITEGIC>MOL_PROPERTY
VConf Rank
SciTegic.value.IntegerValue
222

@<SCITEGIC>MOL_PROPERTY
Conf_Id
SciTegic.value.IntegerValue
35

@<SCITEGIC>MOL_PROPERTY
Delta U+W
SciTegic.value.DoubleValue
-0.102

@<SCITEGIC>MOL_PROPERTY
U+W
SciTegic.value.DoubleValue
-49.529

@<SCITEGIC>MOL_PROPERTY
Grad RMS
SciTegic.value.DoubleValue
0.000000

@<SCITEGIC>MOL_PROPERTY
U
SciTegic.value.DoubleValue
13.666

@<SCITEGIC>MOL_PROPERTY
W
SciTegic.value.DoubleValue
-63.195

@<SCITEGIC>MOL_PROPERTY
W(PB)
SciTegic.value.DoubleValue
-65.299

@<SCITEGIC>MOL_PROPERTY
W(SA)
SciTegic.value.DoubleValue
2.103

@<SCITEGIC>MOL_PROPERTY
Valence
SciTegic.value.DoubleValue
15.226

@<SCITEGIC>MOL_PROPERTY
Coulomb
SciTegic.value.DoubleValue
-1.822

@<SCITEGIC>MOL_PROPERTY
VdW
SciTegic.value.DoubleValue
0.261

@<SCITEGIC>MOL_PROPERTY
VdW6
SciTegic.value.DoubleValue
-4.165

@<SCITEGIC>MOL_PROPERTY
VdW12
SciTegic.value.DoubleValue
4.426

@<SCITEGIC>MOL_PROPERTY
Bond
SciTegic.value.DoubleValue
0.044

@<SCITEGIC>MOL_PROPERTY
Angle
SciTegic.value.DoubleValue
2.229

@<SCITEGIC>MOL_PROPERTY
Pdih
SciTegic.value.DoubleValue
12.953

@<SCITEGIC>MOL_PROPERTY
Idih
SciTegic.value.DoubleValue
0.000

@<SCITEGIC>MOL_PROPERTY
Tether
SciTegic.value.DoubleValue
0.000

@<TRIPOS>MOLECULE
guest-s20_confgen4.mol2 : confsearch ligand conformer 223
          17          16           1
SMALL
USER_CHARGES
 
@<TRIPOS>ATOM
       1    C1      18.715890   21.195984   23.631040 C.2        1 MOL1         0.6132
       2    O1      18.227891   20.736367   24.644736 O.co2      1 MOL1        -0.6749
       3    O2      19.293596   22.264273   23.587888 O.co2      1 MOL1        -0.6749
       4    C2      18.587052   20.392171   22.343802 C.3        1 MOL1        -0.1955
       5    H1      18.668613   21.084710   21.497443 H          1 MOL1         0.0733
       6    H2      17.576970   19.967485   22.314047 H          1 MOL1         0.0733
       7    C3      19.620067   19.285627   22.244572 C.2        1 MOL1        -0.1395
       8    H3      19.493174   18.479718   22.965334 H          1 MOL1         0.0816
       9    C4      20.621875   19.276296   21.356313 C.2        1 MOL1        -0.1394
      10    H4      20.719511   20.102788   20.653133 H          1 MOL1         0.0816
      11    C5      21.689954   18.206414   21.204152 C.3        1 MOL1        -0.1826
      12    H5      21.660357   17.816209   20.177814 H          1 MOL1         0.0736
      13    H6      22.678756   18.671845   21.314445 H          1 MOL1         0.0736
      14    C6      21.576650   17.026384   22.194465 C.3        1 MOL1        -0.2882
      15    H7      20.619428   16.502145   22.074871 H          1 MOL1         0.0749
      16    H8      22.381403   16.300119   22.021431 H          1 MOL1         0.0749
      17    H9      21.655678   17.374586   23.232732 H          1 MOL1         0.0749
@<TRIPOS>BOND
    1     1     2    1
    2     1     3    2
    3     1     4    1
    4     4     5    1
    5     4     6    1
    6     4     7    1
    7     7     8    1
    8     7     9    2
    9     9    10    1
   10     9    11    1
   11    11    12    1
   12    11    13    1
   13    11    14    1
   14    14    15    1
   15    14    16    1
   16    14    17    1
@<TRIPOS>SUBSTRUCTURE
       1 MOL1            1 RESIDUE      1      MOL     
@<SCITEGIC>MOL_PROPERTY
VConf Rank
SciTegic.value.IntegerValue
223

@<SCITEGIC>MOL_PROPERTY
Conf_Id
SciTegic.value.IntegerValue
19

@<SCITEGIC>MOL_PROPERTY
Delta U+W
SciTegic.value.DoubleValue
-0.496

@<SCITEGIC>MOL_PROPERTY
U+W
SciTegic.value.DoubleValue
-49.923

@<SCITEGIC>MOL_PROPERTY
Grad RMS
SciTegic.value.DoubleValue
0.000000

@<SCITEGIC>MOL_PROPERTY
U
SciTegic.value.DoubleValue
13.863

@<SCITEGIC>MOL_PROPERTY
W
SciTegic.value.DoubleValue
-63.786

@<SCITEGIC>MOL_PROPERTY
W(PB)
SciTegic.value.DoubleValue
-65.856

@<SCITEGIC>MOL_PROPERTY
W(SA)
SciTegic.value.DoubleValue
2.070

@<SCITEGIC>MOL_PROPERTY
Valence
SciTegic.value.DoubleValue
14.117

@<SCITEGIC>MOL_PROPERTY
Coulomb
SciTegic.value.DoubleValue
-1.228

@<SCITEGIC>MOL_PROPERTY
VdW
SciTegic.value.DoubleValue
0.974

@<SCITEGIC>MOL_PROPERTY
VdW6
SciTegic.value.DoubleValue
-4.885

@<SCITEGIC>MOL_PROPERTY
VdW12
SciTegic.value.DoubleValue
5.859

@<SCITEGIC>MOL_PROPERTY
Bond
SciTegic.value.DoubleValue
0.094

@<SCITEGIC>MOL_PROPERTY
Angle
SciTegic.value.DoubleValue
2.818

@<SCITEGIC>MOL_PROPERTY
Pdih
SciTegic.value.DoubleValue
11.205

@<SCITEGIC>MOL_PROPERTY
Idih
SciTegic.value.DoubleValue
0.000

@<SCITEGIC>MOL_PROPERTY
Tether
SciTegic.value.DoubleValue
0.000

@<TRIPOS>MOLECULE
guest-s20_confgen4.mol2 : confsearch ligand conformer 224
          17          16           1
SMALL
USER_CHARGES
 
@<TRIPOS>ATOM
       1    C1      18.234730   21.219218   22.739816 C.2        1 MOL1         0.6132
       2    O1      18.541407   22.048975   21.906590 O.co2      1 MOL1        -0.6749
       3    O2      17.088679   20.880436   22.960717 O.co2      1 MOL1        -0.6749
       4    C2      19.344440   20.575267   23.560608 C.3        1 MOL1        -0.1955
       5    H1      18.999344   20.512866   24.599116 H          1 MOL1         0.0733
       6    H2      20.212109   21.245865   23.550483 H          1 MOL1         0.0733
       7    C3      19.717475   19.195849   23.051869 C.2        1 MOL1        -0.1395
       8    H3      18.950355   18.431839   23.174470 H          1 MOL1         0.0816
       9    C4      20.888216   18.897107   22.480612 C.2        1 MOL1        -0.1394
      10    H4      21.652958   19.662678   22.353606 H          1 MOL1         0.0816
      11    C5      21.257070   17.521633   21.971343 C.3        1 MOL1        -0.1826
      12    H5      22.254542   17.245101   22.338905 H          1 MOL1         0.0736
      13    H6      20.557903   16.767936   22.359046 H          1 MOL1         0.0736
      14    C6      21.247596   17.481061   20.430806 C.3        1 MOL1        -0.2882
      15    H7      21.967233   18.198843   20.015672 H          1 MOL1         0.0749
      16    H8      21.515473   16.480700   20.066681 H          1 MOL1         0.0749
      17    H9      20.252046   17.730633   20.040580 H          1 MOL1         0.0749
@<TRIPOS>BOND
    1     1     2    1
    2     1     3    2
    3     1     4    1
    4     4     5    1
    5     4     6    1
    6     4     7    1
    7     7     8    1
    8     7     9    2
    9     9    10    1
   10     9    11    1
   11    11    12    1
   12    11    13    1
   13    11    14    1
   14    14    15    1
   15    14    16    1
   16    14    17    1
@<TRIPOS>SUBSTRUCTURE
       1 MOL1            1 RESIDUE      1      MOL     
@<SCITEGIC>MOL_PROPERTY
VConf Rank
SciTegic.value.IntegerValue
224

@<SCITEGIC>MOL_PROPERTY
Conf_Id
SciTegic.value.IntegerValue
7

@<SCITEGIC>MOL_PROPERTY
Delta U+W
SciTegic.value.DoubleValue
-0.041

@<SCITEGIC>MOL_PROPERTY
U+W
SciTegic.value.DoubleValue
-49.468

@<SCITEGIC>MOL_PROPERTY
Grad RMS
SciTegic.value.DoubleValue
0.000000

@<SCITEGIC>MOL_PROPERTY
U
SciTegic.value.DoubleValue
14.121

@<SCITEGIC>MOL_PROPERTY
W
SciTegic.value.DoubleValue
-63.589

@<SCITEGIC>MOL_PROPERTY
W(PB)
SciTegic.value.DoubleValue
-65.660

@<SCITEGIC>MOL_PROPERTY
W(SA)
SciTegic.value.DoubleValue
2.071

@<SCITEGIC>MOL_PROPERTY
Valence
SciTegic.value.DoubleValue
15.230

@<SCITEGIC>MOL_PROPERTY
Coulomb
SciTegic.value.DoubleValue
-1.333

@<SCITEGIC>MOL_PROPERTY
VdW
SciTegic.value.DoubleValue
0.224

@<SCITEGIC>MOL_PROPERTY
VdW6
SciTegic.value.DoubleValue
-4.212

@<SCITEGIC>MOL_PROPERTY
VdW12
SciTegic.value.DoubleValue
4.436

@<SCITEGIC>MOL_PROPERTY
Bond
SciTegic.value.DoubleValue
0.044

@<SCITEGIC>MOL_PROPERTY
Angle
SciTegic.value.DoubleValue
2.230

@<SCITEGIC>MOL_PROPERTY
Pdih
SciTegic.value.DoubleValue
12.956

@<SCITEGIC>MOL_PROPERTY
Idih
SciTegic.value.DoubleValue
0.000

@<SCITEGIC>MOL_PROPERTY
Tether
SciTegic.value.DoubleValue
0.000

@<TRIPOS>MOLECULE
guest-s20_confgen4.mol2 : confsearch ligand conformer 225
          17          16           1
SMALL
USER_CHARGES
 
@<TRIPOS>ATOM
       1    C1      20.200171   22.032117   22.177507 C.2        1 MOL1         0.6132
       2    O1      21.217176   22.256855   22.803753 O.co2      1 MOL1        -0.6749
       3    O2      19.123178   22.527068   22.446194 O.co2      1 MOL1        -0.6749
       4    C2      20.285498   21.100433   20.972409 C.3        1 MOL1        -0.1955
       5    H1      21.279787   21.218210   20.525994 H          1 MOL1         0.0733
       6    H2      19.573035   21.458497   20.220141 H          1 MOL1         0.0733
       7    C3      20.026769   19.628350   21.260346 C.2        1 MOL1        -0.1395
       8    H3      20.092490   18.981185   20.386616 H          1 MOL1         0.0816
       9    C4      19.740021   19.099135   22.455630 C.2        1 MOL1        -0.1394
      10    H4      19.669269   19.723766   23.345328 H          1 MOL1         0.0816
      11    C5      19.489397   17.625711   22.688331 C.3        1 MOL1        -0.1826
      12    H5      18.576593   17.494957   23.285165 H          1 MOL1         0.0736
      13    H6      19.318652   17.108611   21.734074 H          1 MOL1         0.0736
      14    C6      20.678302   16.970378   23.417770 C.3        1 MOL1        -0.2882
      15    H7      20.490455   15.901855   23.585194 H          1 MOL1         0.0749
      16    H8      21.598822   17.066249   22.826969 H          1 MOL1         0.0749
      17    H9      20.847793   17.443696   24.393834 H          1 MOL1         0.0749
@<TRIPOS>BOND
    1     1     2    1
    2     1     3    2
    3     1     4    1
    4     4     5    1
    5     4     6    1
    6     4     7    1
    7     7     8    1
    8     7     9    2
    9     9    10    1
   10     9    11    1
   11    11    12    1
   12    11    13    1
   13    11    14    1
   14    14    15    1
   15    14    16    1
   16    14    17    1
@<TRIPOS>SUBSTRUCTURE
       1 MOL1            1 RESIDUE      1      MOL     
@<SCITEGIC>MOL_PROPERTY
VConf Rank
SciTegic.value.IntegerValue
225

@<SCITEGIC>MOL_PROPERTY
Conf_Id
SciTegic.value.IntegerValue
39

@<SCITEGIC>MOL_PROPERTY
Delta U+W
SciTegic.value.DoubleValue
-0.422

@<SCITEGIC>MOL_PROPERTY
U+W
SciTegic.value.DoubleValue
-49.849

@<SCITEGIC>MOL_PROPERTY
Grad RMS
SciTegic.value.DoubleValue
0.000000

@<SCITEGIC>MOL_PROPERTY
U
SciTegic.value.DoubleValue
14.465

@<SCITEGIC>MOL_PROPERTY
W
SciTegic.value.DoubleValue
-64.314

@<SCITEGIC>MOL_PROPERTY
W(PB)
SciTegic.value.DoubleValue
-66.406

@<SCITEGIC>MOL_PROPERTY
W(SA)
SciTegic.value.DoubleValue
2.093

@<SCITEGIC>MOL_PROPERTY
Valence
SciTegic.value.DoubleValue
14.072

@<SCITEGIC>MOL_PROPERTY
Coulomb
SciTegic.value.DoubleValue
-0.199

@<SCITEGIC>MOL_PROPERTY
VdW
SciTegic.value.DoubleValue
0.592

@<SCITEGIC>MOL_PROPERTY
VdW6
SciTegic.value.DoubleValue
-5.019

@<SCITEGIC>MOL_PROPERTY
VdW12
SciTegic.value.DoubleValue
5.611

@<SCITEGIC>MOL_PROPERTY
Bond
SciTegic.value.DoubleValue
0.085

@<SCITEGIC>MOL_PROPERTY
Angle
SciTegic.value.DoubleValue
2.748

@<SCITEGIC>MOL_PROPERTY
Pdih
SciTegic.value.DoubleValue
11.238

@<SCITEGIC>MOL_PROPERTY
Idih
SciTegic.value.DoubleValue
0.001

@<SCITEGIC>MOL_PROPERTY
Tether
SciTegic.value.DoubleValue
0.000

@<TRIPOS>MOLECULE
guest-s20_confgen4.mol2 : confsearch ligand conformer 226
          17          16           1
SMALL
USER_CHARGES
 
@<TRIPOS>ATOM
       1    C1      21.936072   20.778350   20.004124 C.2        1 MOL1         0.6132
       2    O1      21.605387   20.692995   18.837795 O.co2      1 MOL1        -0.6749
       3    O2      23.091018   20.736821   20.379882 O.co2      1 MOL1        -0.6749
       4    C2      20.842272   20.952203   21.049580 C.3        1 MOL1        -0.1955
       5    H1      20.102459   21.653636   20.646865 H          1 MOL1         0.0733
       6    H2      21.285137   21.425825   21.933997 H          1 MOL1         0.0733
       7    C3      20.172530   19.640711   21.413147 C.2        1 MOL1        -0.1395
       8    H3      19.574387   19.189060   20.622300 H          1 MOL1         0.0816
       9    C4      20.283539   19.045647   22.604702 C.2        1 MOL1        -0.1394
      10    H4      20.884229   19.496322   23.394084 H          1 MOL1         0.0816
      11    C5      19.618046   17.735991   22.964201 C.3        1 MOL1        -0.1826
      12    H5      19.256365   17.227623   22.059784 H          1 MOL1         0.0736
      13    H6      20.350457   17.064128   23.431865 H          1 MOL1         0.0736
      14    C6      18.437784   17.961061   23.929284 C.3        1 MOL1        -0.2882
      15    H7      17.679156   18.610351   23.472658 H          1 MOL1         0.0749
      16    H8      17.959345   17.007243   24.186994 H          1 MOL1         0.0749
      17    H9      18.777530   18.434140   24.859981 H          1 MOL1         0.0749
@<TRIPOS>BOND
    1     1     2    1
    2     1     3    2
    3     1     4    1
    4     4     5    1
    5     4     6    1
    6     4     7    1
    7     7     8    1
    8     7     9    2
    9     9    10    1
   10     9    11    1
   11    11    12    1
   12    11    13    1
   13    11    14    1
   14    14    15    1
   15    14    16    1
   16    14    17    1
@<TRIPOS>SUBSTRUCTURE
       1 MOL1            1 RESIDUE      1      MOL     
@<SCITEGIC>MOL_PROPERTY
VConf Rank
SciTegic.value.IntegerValue
226

@<SCITEGIC>MOL_PROPERTY
Conf_Id
SciTegic.value.IntegerValue
38

@<SCITEGIC>MOL_PROPERTY
Delta U+W
SciTegic.value.DoubleValue
0.000

@<SCITEGIC>MOL_PROPERTY
U+W
SciTegic.value.DoubleValue
-49.427

@<SCITEGIC>MOL_PROPERTY
Grad RMS
SciTegic.value.DoubleValue
0.000000

@<SCITEGIC>MOL_PROPERTY
U
SciTegic.value.DoubleValue
13.666

@<SCITEGIC>MOL_PROPERTY
W
SciTegic.value.DoubleValue
-63.093

@<SCITEGIC>MOL_PROPERTY
W(PB)
SciTegic.value.DoubleValue
-65.225

@<SCITEGIC>MOL_PROPERTY
W(SA)
SciTegic.value.DoubleValue
2.132

@<SCITEGIC>MOL_PROPERTY
Valence
SciTegic.value.DoubleValue
15.226

@<SCITEGIC>MOL_PROPERTY
Coulomb
SciTegic.value.DoubleValue
-1.822

@<SCITEGIC>MOL_PROPERTY
VdW
SciTegic.value.DoubleValue
0.261

@<SCITEGIC>MOL_PROPERTY
VdW6
SciTegic.value.DoubleValue
-4.165

@<SCITEGIC>MOL_PROPERTY
VdW12
SciTegic.value.DoubleValue
4.426

@<SCITEGIC>MOL_PROPERTY
Bond
SciTegic.value.DoubleValue
0.044

@<SCITEGIC>MOL_PROPERTY
Angle
SciTegic.value.DoubleValue
2.229

@<SCITEGIC>MOL_PROPERTY
Pdih
SciTegic.value.DoubleValue
12.953

@<SCITEGIC>MOL_PROPERTY
Idih
SciTegic.value.DoubleValue
0.000

@<SCITEGIC>MOL_PROPERTY
Tether
SciTegic.value.DoubleValue
0.000

@<TRIPOS>MOLECULE
guest-s20_confgen4.mol2 : confsearch ligand conformer 227
          17          16           1
SMALL
USER_CHARGES
 
@<TRIPOS>ATOM
       1    C1      21.086686   22.204224   21.478873 C.2        1 MOL1         0.6132
       2    O1      22.253961   22.303783   21.801944 O.co2      1 MOL1        -0.6749
       3    O2      20.272745   23.096044   21.617142 O.co2      1 MOL1        -0.6749
       4    C2      20.617373   20.893222   20.861927 C.3        1 MOL1        -0.1955
       5    H1      21.487538   20.388793   20.424887 H          1 MOL1         0.0733
       6    H2      19.938985   21.135727   20.035798 H          1 MOL1         0.0733
       7    C3      19.916661   19.997088   21.865266 C.2        1 MOL1        -0.1395
       8    H3      18.955417   20.363548   22.224318 H          1 MOL1         0.0816
       9    C4      20.408299   18.835219   22.306380 C.2        1 MOL1        -0.1394
      10    H4      21.371033   18.470912   21.949332 H          1 MOL1         0.0816
      11    C5      19.710016   17.944871   23.309876 C.3        1 MOL1        -0.1826
      12    H5      20.416114   17.649338   24.097670 H          1 MOL1         0.0736
      13    H6      18.894753   18.489840   23.805431 H          1 MOL1         0.0736
      14    C6      19.141404   16.683997   22.630215 C.3        1 MOL1        -0.2882
      15    H7      19.941550   16.098737   22.158340 H          1 MOL1         0.0749
      16    H8      18.636582   16.041593   23.363397 H          1 MOL1         0.0749
      17    H9      18.412410   16.954170   21.854861 H          1 MOL1         0.0749
@<TRIPOS>BOND
    1     1     2    1
    2     1     3    2
    3     1     4    1
    4     4     5    1
    5     4     6    1
    6     4     7    1
    7     7     8    1
    8     7     9    2
    9     9    10    1
   10     9    11    1
   11    11    12    1
   12    11    13    1
   13    11    14    1
   14    14    15    1
   15    14    16    1
   16    14    17    1
@<TRIPOS>SUBSTRUCTURE
       1 MOL1            1 RESIDUE      1      MOL     
@<SCITEGIC>MOL_PROPERTY
VConf Rank
SciTegic.value.IntegerValue
227

@<SCITEGIC>MOL_PROPERTY
Conf_Id
SciTegic.value.IntegerValue
35

@<SCITEGIC>MOL_PROPERTY
Delta U+W
SciTegic.value.DoubleValue
-0.102

@<SCITEGIC>MOL_PROPERTY
U+W
SciTegic.value.DoubleValue
-49.529

@<SCITEGIC>MOL_PROPERTY
Grad RMS
SciTegic.value.DoubleValue
0.000000

@<SCITEGIC>MOL_PROPERTY
U
SciTegic.value.DoubleValue
13.666

@<SCITEGIC>MOL_PROPERTY
W
SciTegic.value.DoubleValue
-63.195

@<SCITEGIC>MOL_PROPERTY
W(PB)
SciTegic.value.DoubleValue
-65.299

@<SCITEGIC>MOL_PROPERTY
W(SA)
SciTegic.value.DoubleValue
2.103

@<SCITEGIC>MOL_PROPERTY
Valence
SciTegic.value.DoubleValue
15.226

@<SCITEGIC>MOL_PROPERTY
Coulomb
SciTegic.value.DoubleValue
-1.822

@<SCITEGIC>MOL_PROPERTY
VdW
SciTegic.value.DoubleValue
0.261

@<SCITEGIC>MOL_PROPERTY
VdW6
SciTegic.value.DoubleValue
-4.165

@<SCITEGIC>MOL_PROPERTY
VdW12
SciTegic.value.DoubleValue
4.426

@<SCITEGIC>MOL_PROPERTY
Bond
SciTegic.value.DoubleValue
0.044

@<SCITEGIC>MOL_PROPERTY
Angle
SciTegic.value.DoubleValue
2.229

@<SCITEGIC>MOL_PROPERTY
Pdih
SciTegic.value.DoubleValue
12.953

@<SCITEGIC>MOL_PROPERTY
Idih
SciTegic.value.DoubleValue
0.000

@<SCITEGIC>MOL_PROPERTY
Tether
SciTegic.value.DoubleValue
0.000

@<TRIPOS>MOLECULE
guest-s20_confgen4.mol2 : confsearch ligand conformer 228
          17          16           1
SMALL
USER_CHARGES
 
@<TRIPOS>ATOM
       1    C1      22.424138   18.335967   24.013877 C.2        1 MOL1         0.6132
       2    O1      23.487376   18.689435   23.543180 O.co2      1 MOL1        -0.6749
       3    O2      22.117260   18.499293   25.178351 O.co2      1 MOL1        -0.6749
       4    C2      21.427242   17.642254   23.094825 C.3        1 MOL1        -0.1955
       5    H1      20.761227   17.027981   23.712625 H          1 MOL1         0.0733
       6    H2      21.988156   16.956662   22.449187 H          1 MOL1         0.0733
       7    C3      20.636651   18.623310   22.249899 C.2        1 MOL1        -0.1395
       8    H3      21.222777   19.153177   21.501042 H          1 MOL1         0.0816
       9    C4      19.324156   18.845187   22.394256 C.2        1 MOL1        -0.1394
      10    H4      18.771275   18.299027   23.157876 H          1 MOL1         0.0816
      11    C5      18.473145   19.812109   21.588382 C.3        1 MOL1        -0.1826
      12    H5      17.652356   19.256112   21.115434 H          1 MOL1         0.0736
      13    H6      17.991786   20.521066   22.275546 H          1 MOL1         0.0736
      14    C6      19.235833   20.603384   20.502924 C.3        1 MOL1        -0.2882
      15    H7      19.686219   19.926423   19.765172 H          1 MOL1         0.0749
      16    H8      18.554503   21.277808   19.968161 H          1 MOL1         0.0749
      17    H9      20.032764   21.213924   20.947481 H          1 MOL1         0.0749
@<TRIPOS>BOND
    1     1     2    1
    2     1     3    2
    3     1     4    1
    4     4     5    1
    5     4     6    1
    6     4     7    1
    7     7     8    1
    8     7     9    2
    9     9    10    1
   10     9    11    1
   11    11    12    1
   12    11    13    1
   13    11    14    1
   14    14    15    1
   15    14    16    1
   16    14    17    1
@<TRIPOS>SUBSTRUCTURE
       1 MOL1            1 RESIDUE      1      MOL     
@<SCITEGIC>MOL_PROPERTY
VConf Rank
SciTegic.value.IntegerValue
228

@<SCITEGIC>MOL_PROPERTY
Conf_Id
SciTegic.value.IntegerValue
19

@<SCITEGIC>MOL_PROPERTY
Delta U+W
SciTegic.value.DoubleValue
-0.496

@<SCITEGIC>MOL_PROPERTY
U+W
SciTegic.value.DoubleValue
-49.923

@<SCITEGIC>MOL_PROPERTY
Grad RMS
SciTegic.value.DoubleValue
0.000000

@<SCITEGIC>MOL_PROPERTY
U
SciTegic.value.DoubleValue
13.863

@<SCITEGIC>MOL_PROPERTY
W
SciTegic.value.DoubleValue
-63.786

@<SCITEGIC>MOL_PROPERTY
W(PB)
SciTegic.value.DoubleValue
-65.856

@<SCITEGIC>MOL_PROPERTY
W(SA)
SciTegic.value.DoubleValue
2.070

@<SCITEGIC>MOL_PROPERTY
Valence
SciTegic.value.DoubleValue
14.117

@<SCITEGIC>MOL_PROPERTY
Coulomb
SciTegic.value.DoubleValue
-1.228

@<SCITEGIC>MOL_PROPERTY
VdW
SciTegic.value.DoubleValue
0.974

@<SCITEGIC>MOL_PROPERTY
VdW6
SciTegic.value.DoubleValue
-4.885

@<SCITEGIC>MOL_PROPERTY
VdW12
SciTegic.value.DoubleValue
5.859

@<SCITEGIC>MOL_PROPERTY
Bond
SciTegic.value.DoubleValue
0.094

@<SCITEGIC>MOL_PROPERTY
Angle
SciTegic.value.DoubleValue
2.818

@<SCITEGIC>MOL_PROPERTY
Pdih
SciTegic.value.DoubleValue
11.205

@<SCITEGIC>MOL_PROPERTY
Idih
SciTegic.value.DoubleValue
0.000

@<SCITEGIC>MOL_PROPERTY
Tether
SciTegic.value.DoubleValue
0.000

@<TRIPOS>MOLECULE
guest-s20_confgen4.mol2 : confsearch ligand conformer 229
          17          16           1
SMALL
USER_CHARGES
 
@<TRIPOS>ATOM
       1    C1      22.877962   18.638024   23.230747 C.2        1 MOL1         0.6132
       2    O1      22.945596   19.448641   24.133597 O.co2      1 MOL1        -0.6749
       3    O2      23.242359   17.483374   23.335636 O.co2      1 MOL1        -0.6749
       4    C2      22.316240   19.094488   21.890622 C.3        1 MOL1        -0.1955
       5    H1      22.940055   18.660104   21.100907 H          1 MOL1         0.0733
       6    H2      22.427431   20.183511   21.824900 H          1 MOL1         0.0733
       7    C3      20.869187   18.683068   21.696889 C.2        1 MOL1        -0.1395
       8    H3      20.699952   17.611451   21.595833 H          1 MOL1         0.0816
       9    C4      19.843890   19.539365   21.655195 C.2        1 MOL1        -0.1394
      10    H4      20.013144   20.610402   21.761462 H          1 MOL1         0.0816
      11    C5      18.401362   19.126791   21.464854 C.3        1 MOL1        -0.1826
      12    H5      17.937273   19.748263   20.687091 H          1 MOL1         0.0736
      13    H6      18.341920   18.086971   21.114927 H          1 MOL1         0.0736
      14    C6      17.607317   19.268901   22.777976 C.3        1 MOL1        -0.2882
      15    H7      17.617253   20.308420   23.131144 H          1 MOL1         0.0749
      16    H8      16.561479   18.967824   22.634304 H          1 MOL1         0.0749
      17    H9      18.039156   18.636410   23.564838 H          1 MOL1         0.0749
@<TRIPOS>BOND
    1     1     2    1
    2     1     3    2
    3     1     4    1
    4     4     5    1
    5     4     6    1
    6     4     7    1
    7     7     8    1
    8     7     9    2
    9     9    10    1
   10     9    11    1
   11    11    12    1
   12    11    13    1
   13    11    14    1
   14    14    15    1
   15    14    16    1
   16    14    17    1
@<TRIPOS>SUBSTRUCTURE
       1 MOL1            1 RESIDUE      1      MOL     
@<SCITEGIC>MOL_PROPERTY
VConf Rank
SciTegic.value.IntegerValue
229

@<SCITEGIC>MOL_PROPERTY
Conf_Id
SciTegic.value.IntegerValue
7

@<SCITEGIC>MOL_PROPERTY
Delta U+W
SciTegic.value.DoubleValue
-0.041

@<SCITEGIC>MOL_PROPERTY
U+W
SciTegic.value.DoubleValue
-49.468

@<SCITEGIC>MOL_PROPERTY
Grad RMS
SciTegic.value.DoubleValue
0.000000

@<SCITEGIC>MOL_PROPERTY
U
SciTegic.value.DoubleValue
14.121

@<SCITEGIC>MOL_PROPERTY
W
SciTegic.value.DoubleValue
-63.589

@<SCITEGIC>MOL_PROPERTY
W(PB)
SciTegic.value.DoubleValue
-65.660

@<SCITEGIC>MOL_PROPERTY
W(SA)
SciTegic.value.DoubleValue
2.071

@<SCITEGIC>MOL_PROPERTY
Valence
SciTegic.value.DoubleValue
15.230

@<SCITEGIC>MOL_PROPERTY
Coulomb
SciTegic.value.DoubleValue
-1.333

@<SCITEGIC>MOL_PROPERTY
VdW
SciTegic.value.DoubleValue
0.224

@<SCITEGIC>MOL_PROPERTY
VdW6
SciTegic.value.DoubleValue
-4.212

@<SCITEGIC>MOL_PROPERTY
VdW12
SciTegic.value.DoubleValue
4.436

@<SCITEGIC>MOL_PROPERTY
Bond
SciTegic.value.DoubleValue
0.044

@<SCITEGIC>MOL_PROPERTY
Angle
SciTegic.value.DoubleValue
2.230

@<SCITEGIC>MOL_PROPERTY
Pdih
SciTegic.value.DoubleValue
12.956

@<SCITEGIC>MOL_PROPERTY
Idih
SciTegic.value.DoubleValue
0.000

@<SCITEGIC>MOL_PROPERTY
Tether
SciTegic.value.DoubleValue
0.000

@<TRIPOS>MOLECULE
guest-s20_confgen4.mol2 : confsearch ligand conformer 230
          17          16           1
SMALL
USER_CHARGES
 
@<TRIPOS>ATOM
       1    C1      22.338059   17.651510   21.916716 C.2        1 MOL1         0.6132
       2    O1      21.985507   16.984319   20.964059 O.co2      1 MOL1        -0.6749
       3    O2      22.726100   17.173206   22.964444 O.co2      1 MOL1        -0.6749
       4    C2      22.318965   19.170941   21.780545 C.3        1 MOL1        -0.1955
       5    H1      22.531040   19.417464   20.733636 H          1 MOL1         0.0733
       6    H2      23.159076   19.570540   22.360420 H          1 MOL1         0.0733
       7    C3      21.029298   19.853340   22.214096 C.2        1 MOL1        -0.1395
       8    H3      21.037110   20.937497   22.108791 H          1 MOL1         0.0816
       9    C4      19.938008   19.242741   22.690805 C.2        1 MOL1        -0.1394
      10    H4      19.903661   18.159933   22.805174 H          1 MOL1         0.0816
      11    C5      18.679297   19.969323   23.109930 C.3        1 MOL1        -0.1826
      12    H5      18.354368   19.609110   24.095418 H          1 MOL1         0.0736
      13    H6      18.873013   21.045599   23.216039 H          1 MOL1         0.0736
      14    C6      17.548309   19.753376   22.085591 C.3        1 MOL1        -0.2882
      15    H7      16.637208   20.281552   22.395405 H          1 MOL1         0.0749
      16    H8      17.841080   20.129909   21.096601 H          1 MOL1         0.0749
      17    H9      17.307307   18.686713   21.987583 H          1 MOL1         0.0749
@<TRIPOS>BOND
    1     1     2    1
    2     1     3    2
    3     1     4    1
    4     4     5    1
    5     4     6    1
    6     4     7    1
    7     7     8    1
    8     7     9    2
    9     9    10    1
   10     9    11    1
   11    11    12    1
   12    11    13    1
   13    11    14    1
   14    14    15    1
   15    14    16    1
   16    14    17    1
@<TRIPOS>SUBSTRUCTURE
       1 MOL1            1 RESIDUE      1      MOL     
@<SCITEGIC>MOL_PROPERTY
VConf Rank
SciTegic.value.IntegerValue
230

@<SCITEGIC>MOL_PROPERTY
Conf_Id
SciTegic.value.IntegerValue
39

@<SCITEGIC>MOL_PROPERTY
Delta U+W
SciTegic.value.DoubleValue
-0.422

@<SCITEGIC>MOL_PROPERTY
U+W
SciTegic.value.DoubleValue
-49.849

@<SCITEGIC>MOL_PROPERTY
Grad RMS
SciTegic.value.DoubleValue
0.000000

@<SCITEGIC>MOL_PROPERTY
U
SciTegic.value.DoubleValue
14.465

@<SCITEGIC>MOL_PROPERTY
W
SciTegic.value.DoubleValue
-64.314

@<SCITEGIC>MOL_PROPERTY
W(PB)
SciTegic.value.DoubleValue
-66.406

@<SCITEGIC>MOL_PROPERTY
W(SA)
SciTegic.value.DoubleValue
2.093

@<SCITEGIC>MOL_PROPERTY
Valence
SciTegic.value.DoubleValue
14.072

@<SCITEGIC>MOL_PROPERTY
Coulomb
SciTegic.value.DoubleValue
-0.199

@<SCITEGIC>MOL_PROPERTY
VdW
SciTegic.value.DoubleValue
0.592

@<SCITEGIC>MOL_PROPERTY
VdW6
SciTegic.value.DoubleValue
-5.019

@<SCITEGIC>MOL_PROPERTY
VdW12
SciTegic.value.DoubleValue
5.611

@<SCITEGIC>MOL_PROPERTY
Bond
SciTegic.value.DoubleValue
0.085

@<SCITEGIC>MOL_PROPERTY
Angle
SciTegic.value.DoubleValue
2.748

@<SCITEGIC>MOL_PROPERTY
Pdih
SciTegic.value.DoubleValue
11.238

@<SCITEGIC>MOL_PROPERTY
Idih
SciTegic.value.DoubleValue
0.001

@<SCITEGIC>MOL_PROPERTY
Tether
SciTegic.value.DoubleValue
0.000

@<TRIPOS>MOLECULE
guest-s20_confgen4.mol2 : confsearch ligand conformer 231
          17          16           1
SMALL
USER_CHARGES
 
@<TRIPOS>ATOM
       1    C1      19.512865   16.260360   21.342842 C.2        1 MOL1         0.6132
       2    O1      20.475866   15.563832   21.088996 O.co2      1 MOL1        -0.6749
       3    O2      18.463831   16.205099   20.731867 O.co2      1 MOL1        -0.6749
       4    C2      19.627313   17.251989   22.493137 C.3        1 MOL1        -0.1955
       5    H1      20.163936   16.756430   23.310429 H          1 MOL1         0.0733
       6    H2      18.617004   17.471024   22.859113 H          1 MOL1         0.0733
       7    C3      20.348495   18.525000   22.093030 C.2        1 MOL1        -0.1395
       8    H3      21.408579   18.408412   21.869799 H          1 MOL1         0.0816
       9    C4      19.763825   19.723626   22.005370 C.2        1 MOL1        -0.1394
      10    H4      18.703095   19.838960   22.225844 H          1 MOL1         0.0816
      11    C5      20.483705   20.991244   21.602582 C.3        1 MOL1        -0.1826
      12    H5      21.458786   20.753958   21.155218 H          1 MOL1         0.0736
      13    H6      19.903713   21.518335   20.832959 H          1 MOL1         0.0736
      14    C6      20.691224   21.919492   22.815163 C.3        1 MOL1        -0.2882
      15    H7      21.291471   21.422307   23.588540 H          1 MOL1         0.0749
      16    H8      21.213417   22.837780   22.516589 H          1 MOL1         0.0749
      17    H9      19.728589   22.204259   23.259765 H          1 MOL1         0.0749
@<TRIPOS>BOND
    1     1     2    1
    2     1     3    2
    3     1     4    1
    4     4     5    1
    5     4     6    1
    6     4     7    1
    7     7     8    1
    8     7     9    2
    9     9    10    1
   10     9    11    1
   11    11    12    1
   12    11    13    1
   13    11    14    1
   14    14    15    1
   15    14    16    1
   16    14    17    1
@<TRIPOS>SUBSTRUCTURE
       1 MOL1            1 RESIDUE      1      MOL     
@<SCITEGIC>MOL_PROPERTY
VConf Rank
SciTegic.value.IntegerValue
231

@<SCITEGIC>MOL_PROPERTY
Conf_Id
SciTegic.value.IntegerValue
38

@<SCITEGIC>MOL_PROPERTY
Delta U+W
SciTegic.value.DoubleValue
0.000

@<SCITEGIC>MOL_PROPERTY
U+W
SciTegic.value.DoubleValue
-49.427

@<SCITEGIC>MOL_PROPERTY
Grad RMS
SciTegic.value.DoubleValue
0.000000

@<SCITEGIC>MOL_PROPERTY
U
SciTegic.value.DoubleValue
13.666

@<SCITEGIC>MOL_PROPERTY
W
SciTegic.value.DoubleValue
-63.093

@<SCITEGIC>MOL_PROPERTY
W(PB)
SciTegic.value.DoubleValue
-65.225

@<SCITEGIC>MOL_PROPERTY
W(SA)
SciTegic.value.DoubleValue
2.132

@<SCITEGIC>MOL_PROPERTY
Valence
SciTegic.value.DoubleValue
15.226

@<SCITEGIC>MOL_PROPERTY
Coulomb
SciTegic.value.DoubleValue
-1.822

@<SCITEGIC>MOL_PROPERTY
VdW
SciTegic.value.DoubleValue
0.261

@<SCITEGIC>MOL_PROPERTY
VdW6
SciTegic.value.DoubleValue
-4.165

@<SCITEGIC>MOL_PROPERTY
VdW12
SciTegic.value.DoubleValue
4.426

@<SCITEGIC>MOL_PROPERTY
Bond
SciTegic.value.DoubleValue
0.044

@<SCITEGIC>MOL_PROPERTY
Angle
SciTegic.value.DoubleValue
2.229

@<SCITEGIC>MOL_PROPERTY
Pdih
SciTegic.value.DoubleValue
12.953

@<SCITEGIC>MOL_PROPERTY
Idih
SciTegic.value.DoubleValue
0.000

@<SCITEGIC>MOL_PROPERTY
Tether
SciTegic.value.DoubleValue
0.000

@<TRIPOS>MOLECULE
guest-s20_confgen4.mol2 : confsearch ligand conformer 232
          17          16           1
SMALL
USER_CHARGES
 
@<TRIPOS>ATOM
       1    C1      21.187140   16.578183   23.358226 C.2        1 MOL1         0.6132
       2    O1      21.148805   16.659380   24.570148 O.co2      1 MOL1        -0.6749
       3    O2      22.079985   16.021624   22.749924 O.co2      1 MOL1        -0.6749
       4    C2      20.052753   17.202469   22.556330 C.3        1 MOL1        -0.1955
       5    H1      19.170366   17.268291   23.204174 H          1 MOL1         0.0733
       6    H2      19.801101   16.514717   21.740747 H          1 MOL1         0.0733
       7    C3      20.418305   18.563628   21.995650 C.2        1 MOL1        -0.1395
       8    H3      21.183807   18.556910   21.220303 H          1 MOL1         0.0816
       9    C4      19.868115   19.713647   22.396866 C.2        1 MOL1        -0.1394
      10    H4      19.104987   19.719946   23.174463 H          1 MOL1         0.0816
      11    C5      20.236712   21.070382   21.839436 C.3        1 MOL1        -0.1826
      12    H5      20.419400   21.772732   22.663973 H          1 MOL1         0.0736
      13    H6      21.171155   21.008897   21.264758 H          1 MOL1         0.0736
      14    C6      19.116821   21.620316   20.934739 C.3        1 MOL1        -0.2882
      15    H7      18.178593   21.728482   21.494612 H          1 MOL1         0.0749
      16    H8      19.389676   22.605158   20.533838 H          1 MOL1         0.0749
      17    H9      18.933805   20.946343   20.087470 H          1 MOL1         0.0749
@<TRIPOS>BOND
    1     1     2    1
    2     1     3    2
    3     1     4    1
    4     4     5    1
    5     4     6    1
    6     4     7    1
    7     7     8    1
    8     7     9    2
    9     9    10    1
   10     9    11    1
   11    11    12    1
   12    11    13    1
   13    11    14    1
   14    14    15    1
   15    14    16    1
   16    14    17    1
@<TRIPOS>SUBSTRUCTURE
       1 MOL1            1 RESIDUE      1      MOL     
@<SCITEGIC>MOL_PROPERTY
VConf Rank
SciTegic.value.IntegerValue
232

@<SCITEGIC>MOL_PROPERTY
Conf_Id
SciTegic.value.IntegerValue
35

@<SCITEGIC>MOL_PROPERTY
Delta U+W
SciTegic.value.DoubleValue
-0.102

@<SCITEGIC>MOL_PROPERTY
U+W
SciTegic.value.DoubleValue
-49.529

@<SCITEGIC>MOL_PROPERTY
Grad RMS
SciTegic.value.DoubleValue
0.000000

@<SCITEGIC>MOL_PROPERTY
U
SciTegic.value.DoubleValue
13.666

@<SCITEGIC>MOL_PROPERTY
W
SciTegic.value.DoubleValue
-63.195

@<SCITEGIC>MOL_PROPERTY
W(PB)
SciTegic.value.DoubleValue
-65.299

@<SCITEGIC>MOL_PROPERTY
W(SA)
SciTegic.value.DoubleValue
2.103

@<SCITEGIC>MOL_PROPERTY
Valence
SciTegic.value.DoubleValue
15.226

@<SCITEGIC>MOL_PROPERTY
Coulomb
SciTegic.value.DoubleValue
-1.822

@<SCITEGIC>MOL_PROPERTY
VdW
SciTegic.value.DoubleValue
0.261

@<SCITEGIC>MOL_PROPERTY
VdW6
SciTegic.value.DoubleValue
-4.165

@<SCITEGIC>MOL_PROPERTY
VdW12
SciTegic.value.DoubleValue
4.426

@<SCITEGIC>MOL_PROPERTY
Bond
SciTegic.value.DoubleValue
0.044

@<SCITEGIC>MOL_PROPERTY
Angle
SciTegic.value.DoubleValue
2.229

@<SCITEGIC>MOL_PROPERTY
Pdih
SciTegic.value.DoubleValue
12.953

@<SCITEGIC>MOL_PROPERTY
Idih
SciTegic.value.DoubleValue
0.000

@<SCITEGIC>MOL_PROPERTY
Tether
SciTegic.value.DoubleValue
0.000

@<TRIPOS>MOLECULE
guest-s20_confgen4.mol2 : confsearch ligand conformer 233
          17          16           1
SMALL
USER_CHARGES
 
@<TRIPOS>ATOM
       1    C1      17.377789   19.867483   22.056300 C.2        1 MOL1         0.6132
       2    O1      17.003094   20.273451   23.138781 O.co2      1 MOL1        -0.6749
       3    O2      17.122076   20.421761   21.005474 O.co2      1 MOL1        -0.6749
       4    C2      18.204746   18.589124   22.015912 C.3        1 MOL1        -0.1955
       5    H1      18.091997   18.139020   21.022292 H          1 MOL1         0.0733
       6    H2      17.770703   17.886769   22.736894 H          1 MOL1         0.0733
       7    C3      19.666242   18.832672   22.341672 C.2        1 MOL1        -0.1395
       8    H3      19.858709   19.130898   23.370801 H          1 MOL1         0.0816
       9    C4      20.660797   18.704741   21.454425 C.2        1 MOL1        -0.1394
      10    H4      20.429067   18.408607   20.431835 H          1 MOL1         0.0816
      11    C5      22.140593   18.935623   21.710329 C.3        1 MOL1        -0.1826
      12    H5      22.692670   18.018761   21.463183 H          1 MOL1         0.0736
      13    H6      22.508247   19.698911   21.011228 H          1 MOL1         0.0736
      14    C6      22.494192   19.362597   23.152095 C.3        1 MOL1        -0.2882
      15    H7      22.189036   18.595790   23.876172 H          1 MOL1         0.0749
      16    H8      23.577087   19.510061   23.255164 H          1 MOL1         0.0749
      17    H9      21.999820   20.306852   23.415663 H          1 MOL1         0.0749
@<TRIPOS>BOND
    1     1     2    1
    2     1     3    2
    3     1     4    1
    4     4     5    1
    5     4     6    1
    6     4     7    1
    7     7     8    1
    8     7     9    2
    9     9    10    1
   10     9    11    1
   11    11    12    1
   12    11    13    1
   13    11    14    1
   14    14    15    1
   15    14    16    1
   16    14    17    1
@<TRIPOS>SUBSTRUCTURE
       1 MOL1            1 RESIDUE      1      MOL     
@<SCITEGIC>MOL_PROPERTY
VConf Rank
SciTegic.value.IntegerValue
233

@<SCITEGIC>MOL_PROPERTY
Conf_Id
SciTegic.value.IntegerValue
19

@<SCITEGIC>MOL_PROPERTY
Delta U+W
SciTegic.value.DoubleValue
-0.496

@<SCITEGIC>MOL_PROPERTY
U+W
SciTegic.value.DoubleValue
-49.923

@<SCITEGIC>MOL_PROPERTY
Grad RMS
SciTegic.value.DoubleValue
0.000000

@<SCITEGIC>MOL_PROPERTY
U
SciTegic.value.DoubleValue
13.863

@<SCITEGIC>MOL_PROPERTY
W
SciTegic.value.DoubleValue
-63.786

@<SCITEGIC>MOL_PROPERTY
W(PB)
SciTegic.value.DoubleValue
-65.856

@<SCITEGIC>MOL_PROPERTY
W(SA)
SciTegic.value.DoubleValue
2.070

@<SCITEGIC>MOL_PROPERTY
Valence
SciTegic.value.DoubleValue
14.117

@<SCITEGIC>MOL_PROPERTY
Coulomb
SciTegic.value.DoubleValue
-1.228

@<SCITEGIC>MOL_PROPERTY
VdW
SciTegic.value.DoubleValue
0.974

@<SCITEGIC>MOL_PROPERTY
VdW6
SciTegic.value.DoubleValue
-4.885

@<SCITEGIC>MOL_PROPERTY
VdW12
SciTegic.value.DoubleValue
5.859

@<SCITEGIC>MOL_PROPERTY
Bond
SciTegic.value.DoubleValue
0.094

@<SCITEGIC>MOL_PROPERTY
Angle
SciTegic.value.DoubleValue
2.818

@<SCITEGIC>MOL_PROPERTY
Pdih
SciTegic.value.DoubleValue
11.205

@<SCITEGIC>MOL_PROPERTY
Idih
SciTegic.value.DoubleValue
0.000

@<SCITEGIC>MOL_PROPERTY
Tether
SciTegic.value.DoubleValue
0.000

@<TRIPOS>MOLECULE
guest-s20_confgen4.mol2 : confsearch ligand conformer 234
          17          16           1
SMALL
USER_CHARGES
 
@<TRIPOS>ATOM
       1    C1      21.115110   19.313164   19.447533 C.2        1 MOL1         0.6132
       2    O1      20.325060   20.103935   18.970758 O.co2      1 MOL1        -0.6749
       3    O2      22.318405   19.391246   19.295923 O.co2      1 MOL1        -0.6749
       4    C2      20.569176   18.154242   20.271356 C.3        1 MOL1        -0.1955
       5    H1      21.129640   17.253795   19.994663 H          1 MOL1         0.0733
       6    H2      19.526055   17.985877   19.977750 H          1 MOL1         0.0733
       7    C3      20.681036   18.399293   21.764072 C.2        1 MOL1        -0.1395
       8    H3      21.697201   18.422826   22.156591 H          1 MOL1         0.0816
       9    C4      19.635302   18.586005   22.575117 C.2        1 MOL1        -0.1394
      10    H4      18.619652   18.567500   22.181199 H          1 MOL1         0.0816
      11    C5      19.749172   18.833127   24.062834 C.3        1 MOL1        -0.1826
      12    H5      19.055217   18.174558   24.602496 H          1 MOL1         0.0736
      13    H6      20.759198   18.585501   24.417429 H          1 MOL1         0.0736
      14    C6      19.434625   20.302386   24.405367 C.3        1 MOL1        -0.2882
      15    H7      18.414829   20.566908   24.096384 H          1 MOL1         0.0749
      16    H8      19.519162   20.476248   25.485965 H          1 MOL1         0.0749
      17    H9      20.132735   20.979396   23.895484 H          1 MOL1         0.0749
@<TRIPOS>BOND
    1     1     2    1
    2     1     3    2
    3     1     4    1
    4     4     5    1
    5     4     6    1
    6     4     7    1
    7     7     8    1
    8     7     9    2
    9     9    10    1
   10     9    11    1
   11    11    12    1
   12    11    13    1
   13    11    14    1
   14    14    15    1
   15    14    16    1
   16    14    17    1
@<TRIPOS>SUBSTRUCTURE
       1 MOL1            1 RESIDUE      1      MOL     
@<SCITEGIC>MOL_PROPERTY
VConf Rank
SciTegic.value.IntegerValue
234

@<SCITEGIC>MOL_PROPERTY
Conf_Id
SciTegic.value.IntegerValue
7

@<SCITEGIC>MOL_PROPERTY
Delta U+W
SciTegic.value.DoubleValue
-0.041

@<SCITEGIC>MOL_PROPERTY
U+W
SciTegic.value.DoubleValue
-49.468

@<SCITEGIC>MOL_PROPERTY
Grad RMS
SciTegic.value.DoubleValue
0.000000

@<SCITEGIC>MOL_PROPERTY
U
SciTegic.value.DoubleValue
14.121

@<SCITEGIC>MOL_PROPERTY
W
SciTegic.value.DoubleValue
-63.589

@<SCITEGIC>MOL_PROPERTY
W(PB)
SciTegic.value.DoubleValue
-65.660

@<SCITEGIC>MOL_PROPERTY
W(SA)
SciTegic.value.DoubleValue
2.071

@<SCITEGIC>MOL_PROPERTY
Valence
SciTegic.value.DoubleValue
15.230

@<SCITEGIC>MOL_PROPERTY
Coulomb
SciTegic.value.DoubleValue
-1.333

@<SCITEGIC>MOL_PROPERTY
VdW
SciTegic.value.DoubleValue
0.224

@<SCITEGIC>MOL_PROPERTY
VdW6
SciTegic.value.DoubleValue
-4.212

@<SCITEGIC>MOL_PROPERTY
VdW12
SciTegic.value.DoubleValue
4.436

@<SCITEGIC>MOL_PROPERTY
Bond
SciTegic.value.DoubleValue
0.044

@<SCITEGIC>MOL_PROPERTY
Angle
SciTegic.value.DoubleValue
2.230

@<SCITEGIC>MOL_PROPERTY
Pdih
SciTegic.value.DoubleValue
12.956

@<SCITEGIC>MOL_PROPERTY
Idih
SciTegic.value.DoubleValue
0.000

@<SCITEGIC>MOL_PROPERTY
Tether
SciTegic.value.DoubleValue
0.000

@<TRIPOS>MOLECULE
guest-s20_confgen4.mol2 : confsearch ligand conformer 235
          17          16           1
SMALL
USER_CHARGES
 
@<TRIPOS>ATOM
       1    C1      22.730832   18.404263   22.593895 C.2        1 MOL1         0.6132
       2    O1      22.665608   17.891540   23.693828 O.co2      1 MOL1        -0.6749
       3    O2      23.540857   19.261230   22.299704 O.co2      1 MOL1        -0.6749
       4    C2      21.762148   17.926775   21.516289 C.3        1 MOL1        -0.1955
       5    H1      21.552137   16.866417   21.698785 H          1 MOL1         0.0733
       6    H2      22.283935   17.969259   20.553142 H          1 MOL1         0.0733
       7    C3      20.452784   18.697161   21.421694 C.2        1 MOL1        -0.1395
       8    H3      19.776259   18.340098   20.646216 H          1 MOL1         0.0816
       9    C4      20.091538   19.731792   22.189832 C.2        1 MOL1        -0.1394
      10    H4      20.748881   20.107901   22.972887 H          1 MOL1         0.0816
      11    C5      18.775872   20.465547   22.053560 C.3        1 MOL1        -0.1826
      12    H5      18.955826   21.549016   22.038386 H          1 MOL1         0.0736
      13    H6      18.291075   20.213315   21.100406 H          1 MOL1         0.0736
      14    C6      17.825670   20.118919   23.216316 C.3        1 MOL1        -0.2882
      15    H7      16.873339   20.655080   23.113089 H          1 MOL1         0.0749
      16    H8      17.610456   19.042403   23.236082 H          1 MOL1         0.0749
      17    H9      18.270189   20.396358   24.181142 H          1 MOL1         0.0749
@<TRIPOS>BOND
    1     1     2    1
    2     1     3    2
    3     1     4    1
    4     4     5    1
    5     4     6    1
    6     4     7    1
    7     7     8    1
    8     7     9    2
    9     9    10    1
   10     9    11    1
   11    11    12    1
   12    11    13    1
   13    11    14    1
   14    14    15    1
   15    14    16    1
   16    14    17    1
@<TRIPOS>SUBSTRUCTURE
       1 MOL1            1 RESIDUE      1      MOL     
@<SCITEGIC>MOL_PROPERTY
VConf Rank
SciTegic.value.IntegerValue
235

@<SCITEGIC>MOL_PROPERTY
Conf_Id
SciTegic.value.IntegerValue
39

@<SCITEGIC>MOL_PROPERTY
Delta U+W
SciTegic.value.DoubleValue
-0.422

@<SCITEGIC>MOL_PROPERTY
U+W
SciTegic.value.DoubleValue
-49.849

@<SCITEGIC>MOL_PROPERTY
Grad RMS
SciTegic.value.DoubleValue
0.000000

@<SCITEGIC>MOL_PROPERTY
U
SciTegic.value.DoubleValue
14.465

@<SCITEGIC>MOL_PROPERTY
W
SciTegic.value.DoubleValue
-64.314

@<SCITEGIC>MOL_PROPERTY
W(PB)
SciTegic.value.DoubleValue
-66.406

@<SCITEGIC>MOL_PROPERTY
W(SA)
SciTegic.value.DoubleValue
2.093

@<SCITEGIC>MOL_PROPERTY
Valence
SciTegic.value.DoubleValue
14.072

@<SCITEGIC>MOL_PROPERTY
Coulomb
SciTegic.value.DoubleValue
-0.199

@<SCITEGIC>MOL_PROPERTY
VdW
SciTegic.value.DoubleValue
0.592

@<SCITEGIC>MOL_PROPERTY
VdW6
SciTegic.value.DoubleValue
-5.019

@<SCITEGIC>MOL_PROPERTY
VdW12
SciTegic.value.DoubleValue
5.611

@<SCITEGIC>MOL_PROPERTY
Bond
SciTegic.value.DoubleValue
0.085

@<SCITEGIC>MOL_PROPERTY
Angle
SciTegic.value.DoubleValue
2.748

@<SCITEGIC>MOL_PROPERTY
Pdih
SciTegic.value.DoubleValue
11.238

@<SCITEGIC>MOL_PROPERTY
Idih
SciTegic.value.DoubleValue
0.001

@<SCITEGIC>MOL_PROPERTY
Tether
SciTegic.value.DoubleValue
0.000

@<TRIPOS>MOLECULE
guest-s20_confgen4.mol2 : confsearch ligand conformer 236
          17          16           1
SMALL
USER_CHARGES
 
@<TRIPOS>ATOM
       1    C1      18.296628   16.835789   21.217398 C.2        1 MOL1         0.6132
       2    O1      18.319968   16.543207   20.038071 O.co2      1 MOL1        -0.6749
       3    O2      17.286215   16.825120   21.892506 O.co2      1 MOL1        -0.6749
       4    C2      19.607046   17.231856   21.884885 C.3        1 MOL1        -0.1955
       5    H1      20.389196   16.560530   21.511961 H          1 MOL1         0.0733
       6    H2      19.512915   17.047656   22.961848 H          1 MOL1         0.0733
       7    C3      19.985366   18.675014   21.611179 C.2        1 MOL1        -0.1395
       8    H3      20.252341   18.897989   20.578606 H          1 MOL1         0.0816
       9    C4      20.000974   19.636414   22.539453 C.2        1 MOL1        -0.1394
      10    H4      19.731023   19.413393   23.571174 H          1 MOL1         0.0816
      11    C5      20.374843   21.075727   22.263915 C.3        1 MOL1        -0.1826
      12    H5      20.379271   21.271511   21.182772 H          1 MOL1         0.0736
      13    H6      19.621975   21.744717   22.702296 H          1 MOL1         0.0736
      14    C6      21.761250   21.409455   22.848347 C.3        1 MOL1        -0.2882
      15    H7      22.535525   20.769400   22.405143 H          1 MOL1         0.0749
      16    H8      22.026739   22.455205   22.645840 H          1 MOL1         0.0749
      17    H9      21.774438   21.259127   23.935847 H          1 MOL1         0.0749
@<TRIPOS>BOND
    1     1     2    1
    2     1     3    2
    3     1     4    1
    4     4     5    1
    5     4     6    1
    6     4     7    1
    7     7     8    1
    8     7     9    2
    9     9    10    1
   10     9    11    1
   11    11    12    1
   12    11    13    1
   13    11    14    1
   14    14    15    1
   15    14    16    1
   16    14    17    1
@<TRIPOS>SUBSTRUCTURE
       1 MOL1            1 RESIDUE      1      MOL     
@<SCITEGIC>MOL_PROPERTY
VConf Rank
SciTegic.value.IntegerValue
236

@<SCITEGIC>MOL_PROPERTY
Conf_Id
SciTegic.value.IntegerValue
38

@<SCITEGIC>MOL_PROPERTY
Delta U+W
SciTegic.value.DoubleValue
0.000

@<SCITEGIC>MOL_PROPERTY
U+W
SciTegic.value.DoubleValue
-49.427

@<SCITEGIC>MOL_PROPERTY
Grad RMS
SciTegic.value.DoubleValue
0.000000

@<SCITEGIC>MOL_PROPERTY
U
SciTegic.value.DoubleValue
13.666

@<SCITEGIC>MOL_PROPERTY
W
SciTegic.value.DoubleValue
-63.093

@<SCITEGIC>MOL_PROPERTY
W(PB)
SciTegic.value.DoubleValue
-65.225

@<SCITEGIC>MOL_PROPERTY
W(SA)
SciTegic.value.DoubleValue
2.132

@<SCITEGIC>MOL_PROPERTY
Valence
SciTegic.value.DoubleValue
15.226

@<SCITEGIC>MOL_PROPERTY
Coulomb
SciTegic.value.DoubleValue
-1.822

@<SCITEGIC>MOL_PROPERTY
VdW
SciTegic.value.DoubleValue
0.261

@<SCITEGIC>MOL_PROPERTY
VdW6
SciTegic.value.DoubleValue
-4.165

@<SCITEGIC>MOL_PROPERTY
VdW12
SciTegic.value.DoubleValue
4.426

@<SCITEGIC>MOL_PROPERTY
Bond
SciTegic.value.DoubleValue
0.044

@<SCITEGIC>MOL_PROPERTY
Angle
SciTegic.value.DoubleValue
2.229

@<SCITEGIC>MOL_PROPERTY
Pdih
SciTegic.value.DoubleValue
12.953

@<SCITEGIC>MOL_PROPERTY
Idih
SciTegic.value.DoubleValue
0.000

@<SCITEGIC>MOL_PROPERTY
Tether
SciTegic.value.DoubleValue
0.000

@<TRIPOS>MOLECULE
guest-s20_confgen4.mol2 : confsearch ligand conformer 237
          17          16           1
SMALL
USER_CHARGES
 
@<TRIPOS>ATOM
       1    C1      17.084800   19.758273   22.981927 C.2        1 MOL1         0.6132
       2    O1      16.987745   19.585946   24.180969 O.co2      1 MOL1        -0.6749
       3    O2      16.226573   19.434213   22.184812 O.co2      1 MOL1        -0.6749
       4    C2      18.347520   20.421202   22.447448 C.3        1 MOL1        -0.1955
       5    H1      18.792785   21.013264   23.256052 H          1 MOL1         0.0733
       6    H2      18.049472   21.124819   21.661575 H          1 MOL1         0.0733
       7    C3      19.342503   19.417078   21.897458 C.2        1 MOL1        -0.1395
       8    H3      19.029920   18.902123   20.989540 H          1 MOL1         0.0816
       9    C4      20.527027   19.150290   22.455989 C.2        1 MOL1        -0.1394
      10    H4      20.837606   19.663276   23.365631 H          1 MOL1         0.0816
      11    C5      21.516206   18.145822   21.908368 C.3        1 MOL1        -0.1826
      12    H5      21.863136   17.488444   22.717087 H          1 MOL1         0.0736
      13    H6      21.034415   17.499709   21.161619 H          1 MOL1         0.0736
      14    C6      22.725768   18.852984   21.266539 C.3        1 MOL1        -0.2882
      15    H7      23.250075   19.477289   22.001913 H          1 MOL1         0.0749
      16    H8      23.440295   18.119086   20.871661 H          1 MOL1         0.0749
      17    H9      22.405681   19.497286   20.437070 H          1 MOL1         0.0749
@<TRIPOS>BOND
    1     1     2    1
    2     1     3    2
    3     1     4    1
    4     4     5    1
    5     4     6    1
    6     4     7    1
    7     7     8    1
    8     7     9    2
    9     9    10    1
   10     9    11    1
   11    11    12    1
   12    11    13    1
   13    11    14    1
   14    14    15    1
   15    14    16    1
   16    14    17    1
@<TRIPOS>SUBSTRUCTURE
       1 MOL1            1 RESIDUE      1      MOL     
@<SCITEGIC>MOL_PROPERTY
VConf Rank
SciTegic.value.IntegerValue
237

@<SCITEGIC>MOL_PROPERTY
Conf_Id
SciTegic.value.IntegerValue
35

@<SCITEGIC>MOL_PROPERTY
Delta U+W
SciTegic.value.DoubleValue
-0.102

@<SCITEGIC>MOL_PROPERTY
U+W
SciTegic.value.DoubleValue
-49.529

@<SCITEGIC>MOL_PROPERTY
Grad RMS
SciTegic.value.DoubleValue
0.000000

@<SCITEGIC>MOL_PROPERTY
U
SciTegic.value.DoubleValue
13.666

@<SCITEGIC>MOL_PROPERTY
W
SciTegic.value.DoubleValue
-63.195

@<SCITEGIC>MOL_PROPERTY
W(PB)
SciTegic.value.DoubleValue
-65.299

@<SCITEGIC>MOL_PROPERTY
W(SA)
SciTegic.value.DoubleValue
2.103

@<SCITEGIC>MOL_PROPERTY
Valence
SciTegic.value.DoubleValue
15.226

@<SCITEGIC>MOL_PROPERTY
Coulomb
SciTegic.value.DoubleValue
-1.822

@<SCITEGIC>MOL_PROPERTY
VdW
SciTegic.value.DoubleValue
0.261

@<SCITEGIC>MOL_PROPERTY
VdW6
SciTegic.value.DoubleValue
-4.165

@<SCITEGIC>MOL_PROPERTY
VdW12
SciTegic.value.DoubleValue
4.426

@<SCITEGIC>MOL_PROPERTY
Bond
SciTegic.value.DoubleValue
0.044

@<SCITEGIC>MOL_PROPERTY
Angle
SciTegic.value.DoubleValue
2.229

@<SCITEGIC>MOL_PROPERTY
Pdih
SciTegic.value.DoubleValue
12.953

@<SCITEGIC>MOL_PROPERTY
Idih
SciTegic.value.DoubleValue
0.000

@<SCITEGIC>MOL_PROPERTY
Tether
SciTegic.value.DoubleValue
0.000

@<TRIPOS>MOLECULE
guest-s20_confgen4.mol2 : confsearch ligand conformer 238
          17          16           1
SMALL
USER_CHARGES
 
@<TRIPOS>ATOM
       1    C1      19.917371   21.752610   20.949959 C.2        1 MOL1         0.6132
       2    O1      19.731186   21.626305   19.755658 O.co2      1 MOL1        -0.6749
       3    O2      19.273055   22.504292   21.654713 O.co2      1 MOL1        -0.6749
       4    C2      21.025259   20.930154   21.594819 C.3        1 MOL1        -0.1955
       5    H1      21.346565   21.444371   22.508563 H          1 MOL1         0.0733
       6    H2      21.881678   20.927521   20.910678 H          1 MOL1         0.0733
       7    C3      20.593039   19.506930   21.893190 C.2        1 MOL1        -0.1395
       8    H3      20.411941   18.893079   21.012577 H          1 MOL1         0.0816
       9    C4      20.433070   19.018368   23.129487 C.2        1 MOL1        -0.1394
      10    H4      20.619450   19.664223   23.986936 H          1 MOL1         0.0816
      11    C5      20.000608   17.609649   23.499725 C.3        1 MOL1        -0.1826
      12    H5      20.771873   17.155440   24.136397 H          1 MOL1         0.0736
      13    H6      19.098542   17.666310   24.123894 H          1 MOL1         0.0736
      14    C6      19.724197   16.676019   22.300575 C.3        1 MOL1        -0.2882
      15    H7      20.622913   16.552293   21.682187 H          1 MOL1         0.0749
      16    H8      19.417128   15.681646   22.649804 H          1 MOL1         0.0749
      17    H9      18.918991   17.073911   21.669058 H          1 MOL1         0.0749
@<TRIPOS>BOND
    1     1     2    1
    2     1     3    2
    3     1     4    1
    4     4     5    1
    5     4     6    1
    6     4     7    1
    7     7     8    1
    8     7     9    2
    9     9    10    1
   10     9    11    1
   11    11    12    1
   12    11    13    1
   13    11    14    1
   14    14    15    1
   15    14    16    1
   16    14    17    1
@<TRIPOS>SUBSTRUCTURE
       1 MOL1            1 RESIDUE      1      MOL     
@<SCITEGIC>MOL_PROPERTY
VConf Rank
SciTegic.value.IntegerValue
238

@<SCITEGIC>MOL_PROPERTY
Conf_Id
SciTegic.value.IntegerValue
19

@<SCITEGIC>MOL_PROPERTY
Delta U+W
SciTegic.value.DoubleValue
-0.496

@<SCITEGIC>MOL_PROPERTY
U+W
SciTegic.value.DoubleValue
-49.923

@<SCITEGIC>MOL_PROPERTY
Grad RMS
SciTegic.value.DoubleValue
0.000000

@<SCITEGIC>MOL_PROPERTY
U
SciTegic.value.DoubleValue
13.863

@<SCITEGIC>MOL_PROPERTY
W
SciTegic.value.DoubleValue
-63.786

@<SCITEGIC>MOL_PROPERTY
W(PB)
SciTegic.value.DoubleValue
-65.856

@<SCITEGIC>MOL_PROPERTY
W(SA)
SciTegic.value.DoubleValue
2.070

@<SCITEGIC>MOL_PROPERTY
Valence
SciTegic.value.DoubleValue
14.117

@<SCITEGIC>MOL_PROPERTY
Coulomb
SciTegic.value.DoubleValue
-1.228

@<SCITEGIC>MOL_PROPERTY
VdW
SciTegic.value.DoubleValue
0.974

@<SCITEGIC>MOL_PROPERTY
VdW6
SciTegic.value.DoubleValue
-4.885

@<SCITEGIC>MOL_PROPERTY
VdW12
SciTegic.value.DoubleValue
5.859

@<SCITEGIC>MOL_PROPERTY
Bond
SciTegic.value.DoubleValue
0.094

@<SCITEGIC>MOL_PROPERTY
Angle
SciTegic.value.DoubleValue
2.818

@<SCITEGIC>MOL_PROPERTY
Pdih
SciTegic.value.DoubleValue
11.205

@<SCITEGIC>MOL_PROPERTY
Idih
SciTegic.value.DoubleValue
0.000

@<SCITEGIC>MOL_PROPERTY
Tether
SciTegic.value.DoubleValue
0.000

@<TRIPOS>MOLECULE
guest-s20_confgen4.mol2 : confsearch ligand conformer 239
          17          16           1
SMALL
USER_CHARGES
 
@<TRIPOS>ATOM
       1    C1      19.062160   16.577551   23.322950 C.2        1 MOL1         0.6132
       2    O1      20.047969   15.870590   23.395049 O.co2      1 MOL1        -0.6749
       3    O2      18.253052   16.696127   24.221997 O.co2      1 MOL1        -0.6749
       4    C2      18.819676   17.349633   22.032633 C.3        1 MOL1        -0.1955
       5    H1      17.751000   17.282468   21.798313 H          1 MOL1         0.0733
       6    H2      19.358252   16.842663   21.222959 H          1 MOL1         0.0733
       7    C3      19.239500   18.803390   22.137994 C.2        1 MOL1        -0.1395
       8    H3      18.641277   19.412261   22.815209 H          1 MOL1         0.0816
       9    C4      20.267541   19.338532   21.472434 C.2        1 MOL1        -0.1394
      10    H4      20.868572   18.728003   20.799325 H          1 MOL1         0.0816
      11    C5      20.686310   20.787721   21.581162 C.3        1 MOL1        -0.1826
      12    H5      20.828809   21.209075   20.576833 H          1 MOL1         0.0736
      13    H6      19.896847   21.380860   22.062973 H          1 MOL1         0.0736
      14    C6      21.992452   20.927290   22.387079 C.3        1 MOL1        -0.2882
      15    H7      22.810330   20.374810   21.906177 H          1 MOL1         0.0749
      16    H8      22.291475   21.980784   22.463260 H          1 MOL1         0.0749
      17    H9      21.866356   20.534251   23.404576 H          1 MOL1         0.0749
@<TRIPOS>BOND
    1     1     2    1
    2     1     3    2
    3     1     4    1
    4     4     5    1
    5     4     6    1
    6     4     7    1
    7     7     8    1
    8     7     9    2
    9     9    10    1
   10     9    11    1
   11    11    12    1
   12    11    13    1
   13    11    14    1
   14    14    15    1
   15    14    16    1
   16    14    17    1
@<TRIPOS>SUBSTRUCTURE
       1 MOL1            1 RESIDUE      1      MOL     
@<SCITEGIC>MOL_PROPERTY
VConf Rank
SciTegic.value.IntegerValue
239

@<SCITEGIC>MOL_PROPERTY
Conf_Id
SciTegic.value.IntegerValue
7

@<SCITEGIC>MOL_PROPERTY
Delta U+W
SciTegic.value.DoubleValue
-0.041

@<SCITEGIC>MOL_PROPERTY
U+W
SciTegic.value.DoubleValue
-49.468

@<SCITEGIC>MOL_PROPERTY
Grad RMS
SciTegic.value.DoubleValue
0.000000

@<SCITEGIC>MOL_PROPERTY
U
SciTegic.value.DoubleValue
14.121

@<SCITEGIC>MOL_PROPERTY
W
SciTegic.value.DoubleValue
-63.589

@<SCITEGIC>MOL_PROPERTY
W(PB)
SciTegic.value.DoubleValue
-65.660

@<SCITEGIC>MOL_PROPERTY
W(SA)
SciTegic.value.DoubleValue
2.071

@<SCITEGIC>MOL_PROPERTY
Valence
SciTegic.value.DoubleValue
15.230

@<SCITEGIC>MOL_PROPERTY
Coulomb
SciTegic.value.DoubleValue
-1.333

@<SCITEGIC>MOL_PROPERTY
VdW
SciTegic.value.DoubleValue
0.224

@<SCITEGIC>MOL_PROPERTY
VdW6
SciTegic.value.DoubleValue
-4.212

@<SCITEGIC>MOL_PROPERTY
VdW12
SciTegic.value.DoubleValue
4.436

@<SCITEGIC>MOL_PROPERTY
Bond
SciTegic.value.DoubleValue
0.044

@<SCITEGIC>MOL_PROPERTY
Angle
SciTegic.value.DoubleValue
2.230

@<SCITEGIC>MOL_PROPERTY
Pdih
SciTegic.value.DoubleValue
12.956

@<SCITEGIC>MOL_PROPERTY
Idih
SciTegic.value.DoubleValue
0.000

@<SCITEGIC>MOL_PROPERTY
Tether
SciTegic.value.DoubleValue
0.000

@<TRIPOS>MOLECULE
guest-s20_confgen4.mol2 : confsearch ligand conformer 240
          17          16           1
SMALL
USER_CHARGES
 
@<TRIPOS>ATOM
       1    C1      19.881292   18.530223   19.617860 C.2        1 MOL1         0.6132
       2    O1      21.020748   18.190918   19.365861 O.co2      1 MOL1        -0.6749
       3    O2      19.266086   19.351890   18.967116 O.co2      1 MOL1        -0.6749
       4    C2      19.175364   17.868913   20.797653 C.3        1 MOL1        -0.1955
       5    H1      19.554924   16.844205   20.885275 H          1 MOL1         0.0733
       6    H2      18.112919   17.776121   20.544038 H          1 MOL1         0.0733
       7    C3      19.320472   18.582636   22.134223 C.2        1 MOL1        -0.1395
       8    H3      18.808957   18.093967   22.962534 H          1 MOL1         0.0816
       9    C4      20.002055   19.713530   22.352211 C.2        1 MOL1        -0.1394
      10    H4      20.523150   20.221697   21.541680 H          1 MOL1         0.0816
      11    C5      20.114235   20.384514   23.703188 C.3        1 MOL1        -0.1826
      12    H5      19.898988   21.456979   23.603149 H          1 MOL1         0.0736
      13    H6      19.367874   19.976930   24.398871 H          1 MOL1         0.0736
      14    C6      21.522947   20.196774   24.299275 C.3        1 MOL1        -0.2882
      15    H7      21.599055   20.686734   25.278666 H          1 MOL1         0.0749
      16    H8      21.750867   19.131001   24.432591 H          1 MOL1         0.0749
      17    H9      22.287473   20.630041   23.641067 H          1 MOL1         0.0749
@<TRIPOS>BOND
    1     1     2    1
    2     1     3    2
    3     1     4    1
    4     4     5    1
    5     4     6    1
    6     4     7    1
    7     7     8    1
    8     7     9    2
    9     9    10    1
   10     9    11    1
   11    11    12    1
   12    11    13    1
   13    11    14    1
   14    14    15    1
   15    14    16    1
   16    14    17    1
@<TRIPOS>SUBSTRUCTURE
       1 MOL1            1 RESIDUE      1      MOL     
@<SCITEGIC>MOL_PROPERTY
VConf Rank
SciTegic.value.IntegerValue
240

@<SCITEGIC>MOL_PROPERTY
Conf_Id
SciTegic.value.IntegerValue
39

@<SCITEGIC>MOL_PROPERTY
Delta U+W
SciTegic.value.DoubleValue
-0.422

@<SCITEGIC>MOL_PROPERTY
U+W
SciTegic.value.DoubleValue
-49.849

@<SCITEGIC>MOL_PROPERTY
Grad RMS
SciTegic.value.DoubleValue
0.000000

@<SCITEGIC>MOL_PROPERTY
U
SciTegic.value.DoubleValue
14.465

@<SCITEGIC>MOL_PROPERTY
W
SciTegic.value.DoubleValue
-64.314

@<SCITEGIC>MOL_PROPERTY
W(PB)
SciTegic.value.DoubleValue
-66.406

@<SCITEGIC>MOL_PROPERTY
W(SA)
SciTegic.value.DoubleValue
2.093

@<SCITEGIC>MOL_PROPERTY
Valence
SciTegic.value.DoubleValue
14.072

@<SCITEGIC>MOL_PROPERTY
Coulomb
SciTegic.value.DoubleValue
-0.199

@<SCITEGIC>MOL_PROPERTY
VdW
SciTegic.value.DoubleValue
0.592

@<SCITEGIC>MOL_PROPERTY
VdW6
SciTegic.value.DoubleValue
-5.019

@<SCITEGIC>MOL_PROPERTY
VdW12
SciTegic.value.DoubleValue
5.611

@<SCITEGIC>MOL_PROPERTY
Bond
SciTegic.value.DoubleValue
0.085

@<SCITEGIC>MOL_PROPERTY
Angle
SciTegic.value.DoubleValue
2.748

@<SCITEGIC>MOL_PROPERTY
Pdih
SciTegic.value.DoubleValue
11.238

@<SCITEGIC>MOL_PROPERTY
Idih
SciTegic.value.DoubleValue
0.001

@<SCITEGIC>MOL_PROPERTY
Tether
SciTegic.value.DoubleValue
0.000

@<TRIPOS>MOLECULE
guest-s20_confgen4.mol2 : confsearch ligand conformer 241
          17          16           1
SMALL
USER_CHARGES
 
@<TRIPOS>ATOM
       1    C1      18.202582   20.246072   19.773777 C.2        1 MOL1         0.6132
       2    O1      17.130324   20.710706   20.107449 O.co2      1 MOL1        -0.6749
       3    O2      18.349665   19.519384   18.810912 O.co2      1 MOL1        -0.6749
       4    C2      19.428306   20.599397   20.605863 C.3        1 MOL1        -0.1955
       5    H1      19.359912   21.661336   20.868764 H          1 MOL1         0.0733
       6    H2      20.317173   20.481890   19.974398 H          1 MOL1         0.0733
       7    C3      19.539305   19.757790   21.862893 C.2        1 MOL1        -0.1395
       8    H3      18.771700   19.940626   22.614261 H          1 MOL1         0.0816
       9    C4      20.492218   18.844705   22.073749 C.2        1 MOL1        -0.1394
      10    H4      21.257737   18.660277   21.320737 H          1 MOL1         0.0816
      11    C5      20.599117   18.003756   23.326226 C.3        1 MOL1        -0.1826
      12    H5      19.668098   18.059162   23.907047 H          1 MOL1         0.0736
      13    H6      20.738257   16.948826   23.053650 H          1 MOL1         0.0736
      14    C6      21.777070   18.466884   24.205430 C.3        1 MOL1        -0.2882
      15    H7      21.646899   19.513118   24.512105 H          1 MOL1         0.0749
      16    H8      21.849954   17.852625   25.112326 H          1 MOL1         0.0749
      17    H9      22.727398   18.385556   23.661654 H          1 MOL1         0.0749
@<TRIPOS>BOND
    1     1     2    1
    2     1     3    2
    3     1     4    1
    4     4     5    1
    5     4     6    1
    6     4     7    1
    7     7     8    1
    8     7     9    2
    9     9    10    1
   10     9    11    1
   11    11    12    1
   12    11    13    1
   13    11    14    1
   14    14    15    1
   15    14    16    1
   16    14    17    1
@<TRIPOS>SUBSTRUCTURE
       1 MOL1            1 RESIDUE      1      MOL     
@<SCITEGIC>MOL_PROPERTY
VConf Rank
SciTegic.value.IntegerValue
241

@<SCITEGIC>MOL_PROPERTY
Conf_Id
SciTegic.value.IntegerValue
38

@<SCITEGIC>MOL_PROPERTY
Delta U+W
SciTegic.value.DoubleValue
0.000

@<SCITEGIC>MOL_PROPERTY
U+W
SciTegic.value.DoubleValue
-49.427

@<SCITEGIC>MOL_PROPERTY
Grad RMS
SciTegic.value.DoubleValue
0.000000

@<SCITEGIC>MOL_PROPERTY
U
SciTegic.value.DoubleValue
13.666

@<SCITEGIC>MOL_PROPERTY
W
SciTegic.value.DoubleValue
-63.093

@<SCITEGIC>MOL_PROPERTY
W(PB)
SciTegic.value.DoubleValue
-65.225

@<SCITEGIC>MOL_PROPERTY
W(SA)
SciTegic.value.DoubleValue
2.132

@<SCITEGIC>MOL_PROPERTY
Valence
SciTegic.value.DoubleValue
15.226

@<SCITEGIC>MOL_PROPERTY
Coulomb
SciTegic.value.DoubleValue
-1.822

@<SCITEGIC>MOL_PROPERTY
VdW
SciTegic.value.DoubleValue
0.261

@<SCITEGIC>MOL_PROPERTY
VdW6
SciTegic.value.DoubleValue
-4.165

@<SCITEGIC>MOL_PROPERTY
VdW12
SciTegic.value.DoubleValue
4.426

@<SCITEGIC>MOL_PROPERTY
Bond
SciTegic.value.DoubleValue
0.044

@<SCITEGIC>MOL_PROPERTY
Angle
SciTegic.value.DoubleValue
2.229

@<SCITEGIC>MOL_PROPERTY
Pdih
SciTegic.value.DoubleValue
12.953

@<SCITEGIC>MOL_PROPERTY
Idih
SciTegic.value.DoubleValue
0.000

@<SCITEGIC>MOL_PROPERTY
Tether
SciTegic.value.DoubleValue
0.000

@<TRIPOS>MOLECULE
guest-s20_confgen4.mol2 : confsearch ligand conformer 242
          17          16           1
SMALL
USER_CHARGES
 
@<TRIPOS>ATOM
       1    C1      22.476681   18.283679   20.279441 C.2        1 MOL1         0.6132
       2    O1      22.061387   18.081474   19.155403 O.co2      1 MOL1        -0.6749
       3    O2      23.322820   17.596582   20.816942 O.co2      1 MOL1        -0.6749
       4    C2      21.911287   19.465187   21.056600 C.3        1 MOL1        -0.1955
       5    H1      21.520554   20.194158   20.336482 H          1 MOL1         0.0733
       6    H2      22.742466   19.948431   21.583024 H          1 MOL1         0.0733
       7    C3      20.839169   19.050088   22.046043 C.2        1 MOL1        -0.1395
       8    H3      21.188876   18.451997   22.886991 H          1 MOL1         0.0816
       9    C4      19.546725   19.370549   21.931485 C.2        1 MOL1        -0.1394
      10    H4      19.197205   19.965951   21.088638 H          1 MOL1         0.0816
      11    C5      18.478425   18.952404   22.916986 C.3        1 MOL1        -0.1826
      12    H5      17.619173   18.532884   22.376408 H          1 MOL1         0.0736
      13    H6      18.853927   18.158318   23.577020 H          1 MOL1         0.0736
      14    C6      18.014032   20.148295   23.770944 C.3        1 MOL1        -0.2882
      15    H7      17.597757   20.943208   23.138286 H          1 MOL1         0.0749
      16    H8      17.238446   19.838902   24.483564 H          1 MOL1         0.0749
      17    H9      18.852596   20.568998   24.341400 H          1 MOL1         0.0749
@<TRIPOS>BOND
    1     1     2    1
    2     1     3    2
    3     1     4    1
    4     4     5    1
    5     4     6    1
    6     4     7    1
    7     7     8    1
    8     7     9    2
    9     9    10    1
   10     9    11    1
   11    11    12    1
   12    11    13    1
   13    11    14    1
   14    14    15    1
   15    14    16    1
   16    14    17    1
@<TRIPOS>SUBSTRUCTURE
       1 MOL1            1 RESIDUE      1      MOL     
@<SCITEGIC>MOL_PROPERTY
VConf Rank
SciTegic.value.IntegerValue
242

@<SCITEGIC>MOL_PROPERTY
Conf_Id
SciTegic.value.IntegerValue
35

@<SCITEGIC>MOL_PROPERTY
Delta U+W
SciTegic.value.DoubleValue
-0.102

@<SCITEGIC>MOL_PROPERTY
U+W
SciTegic.value.DoubleValue
-49.529

@<SCITEGIC>MOL_PROPERTY
Grad RMS
SciTegic.value.DoubleValue
0.000000

@<SCITEGIC>MOL_PROPERTY
U
SciTegic.value.DoubleValue
13.666

@<SCITEGIC>MOL_PROPERTY
W
SciTegic.value.DoubleValue
-63.195

@<SCITEGIC>MOL_PROPERTY
W(PB)
SciTegic.value.DoubleValue
-65.299

@<SCITEGIC>MOL_PROPERTY
W(SA)
SciTegic.value.DoubleValue
2.103

@<SCITEGIC>MOL_PROPERTY
Valence
SciTegic.value.DoubleValue
15.226

@<SCITEGIC>MOL_PROPERTY
Coulomb
SciTegic.value.DoubleValue
-1.822

@<SCITEGIC>MOL_PROPERTY
VdW
SciTegic.value.DoubleValue
0.261

@<SCITEGIC>MOL_PROPERTY
VdW6
SciTegic.value.DoubleValue
-4.165

@<SCITEGIC>MOL_PROPERTY
VdW12
SciTegic.value.DoubleValue
4.426

@<SCITEGIC>MOL_PROPERTY
Bond
SciTegic.value.DoubleValue
0.044

@<SCITEGIC>MOL_PROPERTY
Angle
SciTegic.value.DoubleValue
2.229

@<SCITEGIC>MOL_PROPERTY
Pdih
SciTegic.value.DoubleValue
12.953

@<SCITEGIC>MOL_PROPERTY
Idih
SciTegic.value.DoubleValue
0.000

@<SCITEGIC>MOL_PROPERTY
Tether
SciTegic.value.DoubleValue
0.000

@<TRIPOS>MOLECULE
guest-s20_confgen4.mol2 : confsearch ligand conformer 243
          17          16           1
SMALL
USER_CHARGES
 
@<TRIPOS>ATOM
       1    C1      20.635849   20.206113   19.499776 C.2        1 MOL1         0.6132
       2    O1      21.100389   21.326356   19.578712 O.co2      1 MOL1        -0.6749
       3    O2      21.049870   19.359480   18.732542 O.co2      1 MOL1        -0.6749
       4    C2      19.464973   19.848905   20.405947 C.3        1 MOL1        -0.1955
       5    H1      18.908755   19.026890   19.939582 H          1 MOL1         0.0733
       6    H2      18.791555   20.713150   20.439089 H          1 MOL1         0.0733
       7    C3      19.908320   19.480387   21.809173 C.2        1 MOL1        -0.1395
       8    H3      20.327256   20.304276   22.384316 H          1 MOL1         0.0816
       9    C4      19.810146   18.248443   22.324331 C.2        1 MOL1        -0.1394
      10    H4      19.389345   17.447814   21.716873 H          1 MOL1         0.0816
      11    C5      20.236202   17.809750   23.715235 C.3        1 MOL1        -0.1826
      12    H5      19.370069   17.376653   24.233642 H          1 MOL1         0.0736
      13    H6      20.964259   16.992397   23.623654 H          1 MOL1         0.0736
      14    C6      20.841969   18.926249   24.594157 C.3        1 MOL1        -0.2882
      15    H7      20.120193   19.738239   24.752626 H          1 MOL1         0.0749
      16    H8      21.124185   18.530693   25.578494 H          1 MOL1         0.0749
      17    H9      21.743528   19.347324   24.130069 H          1 MOL1         0.0749
@<TRIPOS>BOND
    1     1     2    1
    2     1     3    2
    3     1     4    1
    4     4     5    1
    5     4     6    1
    6     4     7    1
    7     7     8    1
    8     7     9    2
    9     9    10    1
   10     9    11    1
   11    11    12    1
   12    11    13    1
   13    11    14    1
   14    14    15    1
   15    14    16    1
   16    14    17    1
@<TRIPOS>SUBSTRUCTURE
       1 MOL1            1 RESIDUE      1      MOL     
@<SCITEGIC>MOL_PROPERTY
VConf Rank
SciTegic.value.IntegerValue
243

@<SCITEGIC>MOL_PROPERTY
Conf_Id
SciTegic.value.IntegerValue
19

@<SCITEGIC>MOL_PROPERTY
Delta U+W
SciTegic.value.DoubleValue
-0.496

@<SCITEGIC>MOL_PROPERTY
U+W
SciTegic.value.DoubleValue
-49.923

@<SCITEGIC>MOL_PROPERTY
Grad RMS
SciTegic.value.DoubleValue
0.000000

@<SCITEGIC>MOL_PROPERTY
U
SciTegic.value.DoubleValue
13.863

@<SCITEGIC>MOL_PROPERTY
W
SciTegic.value.DoubleValue
-63.786

@<SCITEGIC>MOL_PROPERTY
W(PB)
SciTegic.value.DoubleValue
-65.856

@<SCITEGIC>MOL_PROPERTY
W(SA)
SciTegic.value.DoubleValue
2.070

@<SCITEGIC>MOL_PROPERTY
Valence
SciTegic.value.DoubleValue
14.117

@<SCITEGIC>MOL_PROPERTY
Coulomb
SciTegic.value.DoubleValue
-1.228

@<SCITEGIC>MOL_PROPERTY
VdW
SciTegic.value.DoubleValue
0.974

@<SCITEGIC>MOL_PROPERTY
VdW6
SciTegic.value.DoubleValue
-4.885

@<SCITEGIC>MOL_PROPERTY
VdW12
SciTegic.value.DoubleValue
5.859

@<SCITEGIC>MOL_PROPERTY
Bond
SciTegic.value.DoubleValue
0.094

@<SCITEGIC>MOL_PROPERTY
Angle
SciTegic.value.DoubleValue
2.818

@<SCITEGIC>MOL_PROPERTY
Pdih
SciTegic.value.DoubleValue
11.205

@<SCITEGIC>MOL_PROPERTY
Idih
SciTegic.value.DoubleValue
0.000

@<SCITEGIC>MOL_PROPERTY
Tether
SciTegic.value.DoubleValue
0.000

@<TRIPOS>MOLECULE
guest-s20_confgen4.mol2 : confsearch ligand conformer 244
          17          16           1
SMALL
USER_CHARGES
 
@<TRIPOS>ATOM
       1    C1      22.061802   17.527618   23.834258 C.2        1 MOL1         0.6132
       2    O1      22.594342   16.817648   23.004104 O.co2      1 MOL1        -0.6749
       3    O2      22.674679   18.146661   24.681708 O.co2      1 MOL1        -0.6749
       4    C2      20.542983   17.640881   23.820598 C.3        1 MOL1        -0.1955
       5    H1      20.195507   17.606147   24.859607 H          1 MOL1         0.0733
       6    H2      20.137315   16.755320   23.316744 H          1 MOL1         0.0733
       7    C3      20.061515   18.914755   23.152618 C.2        1 MOL1        -0.1395
       8    H3      20.295744   19.836141   23.684972 H          1 MOL1         0.0816
       9    C4      19.401302   18.950644   21.991133 C.2        1 MOL1        -0.1394
      10    H4      19.171879   18.029348   21.456683 H          1 MOL1         0.0816
      11    C5      18.924655   20.222187   21.325309 C.3        1 MOL1        -0.1826
      12    H5      17.874448   20.111525   21.023082 H          1 MOL1         0.0736
      13    H6      18.962797   21.063312   22.031187 H          1 MOL1         0.0736
      14    C6      19.782823   20.554759   20.089212 C.3        1 MOL1        -0.2882
      15    H7      19.732070   19.746258   19.348148 H          1 MOL1         0.0749
      16    H8      19.432936   21.478463   19.610237 H          1 MOL1         0.0749
      17    H9      20.834779   20.694341   20.371320 H          1 MOL1         0.0749
@<TRIPOS>BOND
    1     1     2    1
    2     1     3    2
    3     1     4    1
    4     4     5    1
    5     4     6    1
    6     4     7    1
    7     7     8    1
    8     7     9    2
    9     9    10    1
   10     9    11    1
   11    11    12    1
   12    11    13    1
   13    11    14    1
   14    14    15    1
   15    14    16    1
   16    14    17    1
@<TRIPOS>SUBSTRUCTURE
       1 MOL1            1 RESIDUE      1      MOL     
@<SCITEGIC>MOL_PROPERTY
VConf Rank
SciTegic.value.IntegerValue
244

@<SCITEGIC>MOL_PROPERTY
Conf_Id
SciTegic.value.IntegerValue
7

@<SCITEGIC>MOL_PROPERTY
Delta U+W
SciTegic.value.DoubleValue
-0.041

@<SCITEGIC>MOL_PROPERTY
U+W
SciTegic.value.DoubleValue
-49.468

@<SCITEGIC>MOL_PROPERTY
Grad RMS
SciTegic.value.DoubleValue
0.000000

@<SCITEGIC>MOL_PROPERTY
U
SciTegic.value.DoubleValue
14.121

@<SCITEGIC>MOL_PROPERTY
W
SciTegic.value.DoubleValue
-63.589

@<SCITEGIC>MOL_PROPERTY
W(PB)
SciTegic.value.DoubleValue
-65.660

@<SCITEGIC>MOL_PROPERTY
W(SA)
SciTegic.value.DoubleValue
2.071

@<SCITEGIC>MOL_PROPERTY
Valence
SciTegic.value.DoubleValue
15.230

@<SCITEGIC>MOL_PROPERTY
Coulomb
SciTegic.value.DoubleValue
-1.333

@<SCITEGIC>MOL_PROPERTY
VdW
SciTegic.value.DoubleValue
0.224

@<SCITEGIC>MOL_PROPERTY
VdW6
SciTegic.value.DoubleValue
-4.212

@<SCITEGIC>MOL_PROPERTY
VdW12
SciTegic.value.DoubleValue
4.436

@<SCITEGIC>MOL_PROPERTY
Bond
SciTegic.value.DoubleValue
0.044

@<SCITEGIC>MOL_PROPERTY
Angle
SciTegic.value.DoubleValue
2.230

@<SCITEGIC>MOL_PROPERTY
Pdih
SciTegic.value.DoubleValue
12.956

@<SCITEGIC>MOL_PROPERTY
Idih
SciTegic.value.DoubleValue
0.000

@<SCITEGIC>MOL_PROPERTY
Tether
SciTegic.value.DoubleValue
0.000

@<TRIPOS>MOLECULE
guest-s20_confgen4.mol2 : confsearch ligand conformer 245
          17          16           1
SMALL
USER_CHARGES
 
@<TRIPOS>ATOM
       1    C1      20.598413   17.539106   20.168175 C.2        1 MOL1         0.6132
       2    O1      20.060048   16.529848   20.578727 O.co2      1 MOL1        -0.6749
       3    O2      21.752920   17.577926   19.790431 O.co2      1 MOL1        -0.6749
       4    C2      19.772551   18.819908   20.096926 C.3        1 MOL1        -0.1955
       5    H1      18.733340   18.538904   19.889934 H          1 MOL1         0.0733
       6    H2      20.110593   19.389148   19.223191 H          1 MOL1         0.0733
       7    C3      19.824841   19.705117   21.334079 C.2        1 MOL1        -0.1395
       8    H3      19.228603   20.613880   21.262001 H          1 MOL1         0.0816
       9    C4      20.517639   19.455218   22.451476 C.2        1 MOL1        -0.1394
      10    H4      21.120970   18.553519   22.549781 H          1 MOL1         0.0816
      11    C5      20.537013   20.370836   23.655308 C.3        1 MOL1        -0.1826
      12    H5      21.573252   20.529980   23.983028 H          1 MOL1         0.0736
      13    H6      20.133868   21.358993   23.394207 H          1 MOL1         0.0736
      14    C6      19.716665   19.776053   24.816471 C.3        1 MOL1        -0.2882
      15    H7      19.735345   20.443784   25.687589 H          1 MOL1         0.0749
      16    H8      18.669374   19.631730   24.519912 H          1 MOL1         0.0749
      17    H9      20.121972   18.803121   25.124021 H          1 MOL1         0.0749
@<TRIPOS>BOND
    1     1     2    1
    2     1     3    2
    3     1     4    1
    4     4     5    1
    5     4     6    1
    6     4     7    1
    7     7     8    1
    8     7     9    2
    9     9    10    1
   10     9    11    1
   11    11    12    1
   12    11    13    1
   13    11    14    1
   14    14    15    1
   15    14    16    1
   16    14    17    1
@<TRIPOS>SUBSTRUCTURE
       1 MOL1            1 RESIDUE      1      MOL     
@<SCITEGIC>MOL_PROPERTY
VConf Rank
SciTegic.value.IntegerValue
245

@<SCITEGIC>MOL_PROPERTY
Conf_Id
SciTegic.value.IntegerValue
39

@<SCITEGIC>MOL_PROPERTY
Delta U+W
SciTegic.value.DoubleValue
-0.422

@<SCITEGIC>MOL_PROPERTY
U+W
SciTegic.value.DoubleValue
-49.849

@<SCITEGIC>MOL_PROPERTY
Grad RMS
SciTegic.value.DoubleValue
0.000000

@<SCITEGIC>MOL_PROPERTY
U
SciTegic.value.DoubleValue
14.465

@<SCITEGIC>MOL_PROPERTY
W
SciTegic.value.DoubleValue
-64.314

@<SCITEGIC>MOL_PROPERTY
W(PB)
SciTegic.value.DoubleValue
-66.406

@<SCITEGIC>MOL_PROPERTY
W(SA)
SciTegic.value.DoubleValue
2.093

@<SCITEGIC>MOL_PROPERTY
Valence
SciTegic.value.DoubleValue
14.072

@<SCITEGIC>MOL_PROPERTY
Coulomb
SciTegic.value.DoubleValue
-0.199

@<SCITEGIC>MOL_PROPERTY
VdW
SciTegic.value.DoubleValue
0.592

@<SCITEGIC>MOL_PROPERTY
VdW6
SciTegic.value.DoubleValue
-5.019

@<SCITEGIC>MOL_PROPERTY
VdW12
SciTegic.value.DoubleValue
5.611

@<SCITEGIC>MOL_PROPERTY
Bond
SciTegic.value.DoubleValue
0.085

@<SCITEGIC>MOL_PROPERTY
Angle
SciTegic.value.DoubleValue
2.748

@<SCITEGIC>MOL_PROPERTY
Pdih
SciTegic.value.DoubleValue
11.238

@<SCITEGIC>MOL_PROPERTY
Idih
SciTegic.value.DoubleValue
0.001

@<SCITEGIC>MOL_PROPERTY
Tether
SciTegic.value.DoubleValue
0.000

@<TRIPOS>MOLECULE
guest-s20_confgen4.mol2 : confsearch ligand conformer 246
          17          16           1
SMALL
USER_CHARGES
 
@<TRIPOS>ATOM
       1    C1      21.841430   16.635482   21.868224 C.2        1 MOL1         0.6132
       2    O1      21.956146   16.159517   20.755903 O.co2      1 MOL1        -0.6749
       3    O2      21.688607   15.968065   22.872225 O.co2      1 MOL1        -0.6749
       4    C2      21.897975   18.150838   22.010011 C.3        1 MOL1        -0.1955
       5    H1      22.687091   18.520264   21.344932 H          1 MOL1         0.0733
       6    H2      22.205589   18.388245   23.035511 H          1 MOL1         0.0733
       7    C3      20.577468   18.815639   21.670826 C.2        1 MOL1        -0.1395
       8    H3      20.283853   18.758947   20.623077 H          1 MOL1         0.0816
       9    C4      19.797589   19.435011   22.562114 C.2        1 MOL1        -0.1394
      10    H4      20.090356   19.488743   23.610189 H          1 MOL1         0.0816
      11    C5      18.479340   20.094082   22.222753 C.3        1 MOL1        -0.1826
      12    H5      18.136904   19.778759   21.227499 H          1 MOL1         0.0736
      13    H6      17.709492   19.772847   22.937370 H          1 MOL1         0.0736
      14    C6      18.603017   21.629860   22.256673 C.3        1 MOL1        -0.2882
      15    H7      19.350052   21.976961   21.530684 H          1 MOL1         0.0749
      16    H8      17.643305   22.102435   22.010275 H          1 MOL1         0.0749
      17    H9      18.907499   21.976416   23.252976 H          1 MOL1         0.0749
@<TRIPOS>BOND
    1     1     2    1
    2     1     3    2
    3     1     4    1
    4     4     5    1
    5     4     6    1
    6     4     7    1
    7     7     8    1
    8     7     9    2
    9     9    10    1
   10     9    11    1
   11    11    12    1
   12    11    13    1
   13    11    14    1
   14    14    15    1
   15    14    16    1
   16    14    17    1
@<TRIPOS>SUBSTRUCTURE
       1 MOL1            1 RESIDUE      1      MOL     
@<SCITEGIC>MOL_PROPERTY
VConf Rank
SciTegic.value.IntegerValue
246

@<SCITEGIC>MOL_PROPERTY
Conf_Id
SciTegic.value.IntegerValue
38

@<SCITEGIC>MOL_PROPERTY
Delta U+W
SciTegic.value.DoubleValue
0.000

@<SCITEGIC>MOL_PROPERTY
U+W
SciTegic.value.DoubleValue
-49.427

@<SCITEGIC>MOL_PROPERTY
Grad RMS
SciTegic.value.DoubleValue
0.000000

@<SCITEGIC>MOL_PROPERTY
U
SciTegic.value.DoubleValue
13.666

@<SCITEGIC>MOL_PROPERTY
W
SciTegic.value.DoubleValue
-63.093

@<SCITEGIC>MOL_PROPERTY
W(PB)
SciTegic.value.DoubleValue
-65.225

@<SCITEGIC>MOL_PROPERTY
W(SA)
SciTegic.value.DoubleValue
2.132

@<SCITEGIC>MOL_PROPERTY
Valence
SciTegic.value.DoubleValue
15.226

@<SCITEGIC>MOL_PROPERTY
Coulomb
SciTegic.value.DoubleValue
-1.822

@<SCITEGIC>MOL_PROPERTY
VdW
SciTegic.value.DoubleValue
0.261

@<SCITEGIC>MOL_PROPERTY
VdW6
SciTegic.value.DoubleValue
-4.165

@<SCITEGIC>MOL_PROPERTY
VdW12
SciTegic.value.DoubleValue
4.426

@<SCITEGIC>MOL_PROPERTY
Bond
SciTegic.value.DoubleValue
0.044

@<SCITEGIC>MOL_PROPERTY
Angle
SciTegic.value.DoubleValue
2.229

@<SCITEGIC>MOL_PROPERTY
Pdih
SciTegic.value.DoubleValue
12.953

@<SCITEGIC>MOL_PROPERTY
Idih
SciTegic.value.DoubleValue
0.000

@<SCITEGIC>MOL_PROPERTY
Tether
SciTegic.value.DoubleValue
0.000

@<TRIPOS>MOLECULE
guest-s20_confgen4.mol2 : confsearch ligand conformer 247
          17          16           1
SMALL
USER_CHARGES
 
@<TRIPOS>ATOM
       1    C1      21.756096   16.713790   21.265523 C.2        1 MOL1         0.6132
       2    O1      21.465566   16.405580   20.126481 O.co2      1 MOL1        -0.6749
       3    O2      21.988110   15.904746   22.142209 O.co2      1 MOL1        -0.6749
       4    C2      21.839877   18.194008   21.614147 C.3        1 MOL1        -0.1955
       5    H1      22.029966   18.753816   20.690501 H          1 MOL1         0.0733
       6    H2      22.713133   18.336844   22.261085 H          1 MOL1         0.0733
       7    C3      20.589319   18.698970   22.308311 C.2        1 MOL1        -0.1395
       8    H3      20.421182   18.303241   23.309475 H          1 MOL1         0.0816
       9    C4      19.727159   19.564672   21.766585 C.2        1 MOL1        -0.1394
      10    H4      19.894224   19.957538   20.764185 H          1 MOL1         0.0816
      11    C5      18.478595   20.064039   22.458714 C.3        1 MOL1        -0.1826
      12    H5      17.619910   19.982344   21.778626 H          1 MOL1         0.0736
      13    H6      18.248426   19.440313   23.333475 H          1 MOL1         0.0736
      14    C6      18.641948   21.529707   22.906146 C.3        1 MOL1        -0.2882
      15    H7      18.835286   22.182896   22.045104 H          1 MOL1         0.0749
      16    H8      17.732659   21.886644   23.407021 H          1 MOL1         0.0749
      17    H9      19.480070   21.631958   23.608069 H          1 MOL1         0.0749
@<TRIPOS>BOND
    1     1     2    1
    2     1     3    2
    3     1     4    1
    4     4     5    1
    5     4     6    1
    6     4     7    1
    7     7     8    1
    8     7     9    2
    9     9    10    1
   10     9    11    1
   11    11    12    1
   12    11    13    1
   13    11    14    1
   14    14    15    1
   15    14    16    1
   16    14    17    1
@<TRIPOS>SUBSTRUCTURE
       1 MOL1            1 RESIDUE      1      MOL     
@<SCITEGIC>MOL_PROPERTY
VConf Rank
SciTegic.value.IntegerValue
247

@<SCITEGIC>MOL_PROPERTY
Conf_Id
SciTegic.value.IntegerValue
35

@<SCITEGIC>MOL_PROPERTY
Delta U+W
SciTegic.value.DoubleValue
-0.102

@<SCITEGIC>MOL_PROPERTY
U+W
SciTegic.value.DoubleValue
-49.529

@<SCITEGIC>MOL_PROPERTY
Grad RMS
SciTegic.value.DoubleValue
0.000000

@<SCITEGIC>MOL_PROPERTY
U
SciTegic.value.DoubleValue
13.666

@<SCITEGIC>MOL_PROPERTY
W
SciTegic.value.DoubleValue
-63.195

@<SCITEGIC>MOL_PROPERTY
W(PB)
SciTegic.value.DoubleValue
-65.299

@<SCITEGIC>MOL_PROPERTY
W(SA)
SciTegic.value.DoubleValue
2.103

@<SCITEGIC>MOL_PROPERTY
Valence
SciTegic.value.DoubleValue
15.226

@<SCITEGIC>MOL_PROPERTY
Coulomb
SciTegic.value.DoubleValue
-1.822

@<SCITEGIC>MOL_PROPERTY
VdW
SciTegic.value.DoubleValue
0.261

@<SCITEGIC>MOL_PROPERTY
VdW6
SciTegic.value.DoubleValue
-4.165

@<SCITEGIC>MOL_PROPERTY
VdW12
SciTegic.value.DoubleValue
4.426

@<SCITEGIC>MOL_PROPERTY
Bond
SciTegic.value.DoubleValue
0.044

@<SCITEGIC>MOL_PROPERTY
Angle
SciTegic.value.DoubleValue
2.229

@<SCITEGIC>MOL_PROPERTY
Pdih
SciTegic.value.DoubleValue
12.953

@<SCITEGIC>MOL_PROPERTY
Idih
SciTegic.value.DoubleValue
0.000

@<SCITEGIC>MOL_PROPERTY
Tether
SciTegic.value.DoubleValue
0.000

@<TRIPOS>MOLECULE
guest-s20_confgen4.mol2 : confsearch ligand conformer 248
          17          16           1
SMALL
USER_CHARGES
 
@<TRIPOS>ATOM
       1    C1      20.009401   21.220781   20.164160 C.2        1 MOL1         0.6132
       2    O1      19.860609   20.723885   19.065104 O.co2      1 MOL1        -0.6749
       3    O2      19.356378   22.161826   20.570172 O.co2      1 MOL1        -0.6749
       4    C2      21.079515   20.636880   21.077182 C.3        1 MOL1        -0.1955
       5    H1      21.379980   21.411768   21.792623 H          1 MOL1         0.0733
       6    H2      21.957970   20.411211   20.461634 H          1 MOL1         0.0733
       7    C3      20.610784   19.384825   21.794159 C.2        1 MOL1        -0.1395
       8    H3      20.447440   18.524901   21.146905 H          1 MOL1         0.0816
       9    C4      20.400649   19.314446   23.114614 C.2        1 MOL1        -0.1394
      10    H4      20.570645   20.197343   23.729982 H          1 MOL1         0.0816
      11    C5      19.929564   18.098924   23.895112 C.3        1 MOL1        -0.1826
      12    H5      20.670539   17.864183   24.671230 H          1 MOL1         0.0736
      13    H6      19.008509   18.357169   24.435007 H          1 MOL1         0.0736
      14    C6      19.675503   16.835473   23.043542 C.3        1 MOL1        -0.2882
      15    H7      20.591750   16.515480   22.530222 H          1 MOL1         0.0749
      16    H8      19.338255   16.005339   23.677712 H          1 MOL1         0.0749
      17    H9      18.899375   17.018688   22.288858 H          1 MOL1         0.0749
@<TRIPOS>BOND
    1     1     2    1
    2     1     3    2
    3     1     4    1
    4     4     5    1
    5     4     6    1
    6     4     7    1
    7     7     8    1
    8     7     9    2
    9     9    10    1
   10     9    11    1
   11    11    12    1
   12    11    13    1
   13    11    14    1
   14    14    15    1
   15    14    16    1
   16    14    17    1
@<TRIPOS>SUBSTRUCTURE
       1 MOL1            1 RESIDUE      1      MOL     
@<SCITEGIC>MOL_PROPERTY
VConf Rank
SciTegic.value.IntegerValue
248

@<SCITEGIC>MOL_PROPERTY
Conf_Id
SciTegic.value.IntegerValue
19

@<SCITEGIC>MOL_PROPERTY
Delta U+W
SciTegic.value.DoubleValue
-0.496

@<SCITEGIC>MOL_PROPERTY
U+W
SciTegic.value.DoubleValue
-49.923

@<SCITEGIC>MOL_PROPERTY
Grad RMS
SciTegic.value.DoubleValue
0.000000

@<SCITEGIC>MOL_PROPERTY
U
SciTegic.value.DoubleValue
13.863

@<SCITEGIC>MOL_PROPERTY
W
SciTegic.value.DoubleValue
-63.786

@<SCITEGIC>MOL_PROPERTY
W(PB)
SciTegic.value.DoubleValue
-65.856

@<SCITEGIC>MOL_PROPERTY
W(SA)
SciTegic.value.DoubleValue
2.070

@<SCITEGIC>MOL_PROPERTY
Valence
SciTegic.value.DoubleValue
14.117

@<SCITEGIC>MOL_PROPERTY
Coulomb
SciTegic.value.DoubleValue
-1.228

@<SCITEGIC>MOL_PROPERTY
VdW
SciTegic.value.DoubleValue
0.974

@<SCITEGIC>MOL_PROPERTY
VdW6
SciTegic.value.DoubleValue
-4.885

@<SCITEGIC>MOL_PROPERTY
VdW12
SciTegic.value.DoubleValue
5.859

@<SCITEGIC>MOL_PROPERTY
Bond
SciTegic.value.DoubleValue
0.094

@<SCITEGIC>MOL_PROPERTY
Angle
SciTegic.value.DoubleValue
2.818

@<SCITEGIC>MOL_PROPERTY
Pdih
SciTegic.value.DoubleValue
11.205

@<SCITEGIC>MOL_PROPERTY
Idih
SciTegic.value.DoubleValue
0.000

@<SCITEGIC>MOL_PROPERTY
Tether
SciTegic.value.DoubleValue
0.000

@<TRIPOS>MOLECULE
guest-s20_confgen4.mol2 : confsearch ligand conformer 249
          17          16           1
SMALL
USER_CHARGES
 
@<TRIPOS>ATOM
       1    C1      20.594848   21.563829   23.688919 C.2        1 MOL1         0.6132
       2    O1      20.662825   21.175880   24.838566 O.co2      1 MOL1        -0.6749
       3    O2      21.378295   22.352981   23.198560 O.co2      1 MOL1        -0.6749
       4    C2      19.460626   21.042287   22.816359 C.3        1 MOL1        -0.1955
       5    H1      19.071454   21.885535   22.234154 H          1 MOL1         0.0733
       6    H2      18.649943   20.704370   23.473063 H          1 MOL1         0.0733
       7    C3      19.907117   19.929656   21.887133 C.2        1 MOL1        -0.1395
       8    H3      20.600987   20.229540   21.102385 H          1 MOL1         0.0816
       9    C4      19.509268   18.658092   21.992282 C.2        1 MOL1        -0.1394
      10    H4      18.819448   18.357791   22.780334 H          1 MOL1         0.0816
      11    C5      19.957981   17.549582   21.066431 C.3        1 MOL1        -0.1826
      12    H5      19.085872   16.975955   20.724526 H          1 MOL1         0.0736
      13    H6      20.432523   17.967644   20.167964 H          1 MOL1         0.0736
      14    C6      20.949174   16.605048   21.773809 C.3        1 MOL1        -0.2882
      15    H7      20.487460   16.141999   22.655756 H          1 MOL1         0.0749
      16    H8      21.271842   15.802910   21.097402 H          1 MOL1         0.0749
      17    H9      21.841912   17.152908   22.103278 H          1 MOL1         0.0749
@<TRIPOS>BOND
    1     1     2    1
    2     1     3    2
    3     1     4    1
    4     4     5    1
    5     4     6    1
    6     4     7    1
    7     7     8    1
    8     7     9    2
    9     9    10    1
   10     9    11    1
   11    11    12    1
   12    11    13    1
   13    11    14    1
   14    14    15    1
   15    14    16    1
   16    14    17    1
@<TRIPOS>SUBSTRUCTURE
       1 MOL1            1 RESIDUE      1      MOL     
@<SCITEGIC>MOL_PROPERTY
VConf Rank
SciTegic.value.IntegerValue
249

@<SCITEGIC>MOL_PROPERTY
Conf_Id
SciTegic.value.IntegerValue
7

@<SCITEGIC>MOL_PROPERTY
Delta U+W
SciTegic.value.DoubleValue
-0.041

@<SCITEGIC>MOL_PROPERTY
U+W
SciTegic.value.DoubleValue
-49.468

@<SCITEGIC>MOL_PROPERTY
Grad RMS
SciTegic.value.DoubleValue
0.000000

@<SCITEGIC>MOL_PROPERTY
U
SciTegic.value.DoubleValue
14.121

@<SCITEGIC>MOL_PROPERTY
W
SciTegic.value.DoubleValue
-63.589

@<SCITEGIC>MOL_PROPERTY
W(PB)
SciTegic.value.DoubleValue
-65.660

@<SCITEGIC>MOL_PROPERTY
W(SA)
SciTegic.value.DoubleValue
2.071

@<SCITEGIC>MOL_PROPERTY
Valence
SciTegic.value.DoubleValue
15.230

@<SCITEGIC>MOL_PROPERTY
Coulomb
SciTegic.value.DoubleValue
-1.333

@<SCITEGIC>MOL_PROPERTY
VdW
SciTegic.value.DoubleValue
0.224

@<SCITEGIC>MOL_PROPERTY
VdW6
SciTegic.value.DoubleValue
-4.212

@<SCITEGIC>MOL_PROPERTY
VdW12
SciTegic.value.DoubleValue
4.436

@<SCITEGIC>MOL_PROPERTY
Bond
SciTegic.value.DoubleValue
0.044

@<SCITEGIC>MOL_PROPERTY
Angle
SciTegic.value.DoubleValue
2.230

@<SCITEGIC>MOL_PROPERTY
Pdih
SciTegic.value.DoubleValue
12.956

@<SCITEGIC>MOL_PROPERTY
Idih
SciTegic.value.DoubleValue
0.000

@<SCITEGIC>MOL_PROPERTY
Tether
SciTegic.value.DoubleValue
0.000

@<TRIPOS>MOLECULE
guest-s20_confgen4.mol2 : confsearch ligand conformer 250
          17          16           1
SMALL
USER_CHARGES
 
@<TRIPOS>ATOM
       1    C1      20.581956   19.855353   24.927584 C.2        1 MOL1         0.6132
       2    O1      21.790449   19.983831   24.933178 O.co2      1 MOL1        -0.6749
       3    O2      19.983571   19.101760   25.669955 O.co2      1 MOL1        -0.6749
       4    C2      19.770065   20.706148   23.955700 C.3        1 MOL1        -0.1955
       5    H1      20.296795   21.658096   23.821097 H          1 MOL1         0.0733
       6    H2      18.818650   20.954061   24.440539 H          1 MOL1         0.0733
       7    C3      19.501133   20.075409   22.596759 C.2        1 MOL1        -0.1395
       8    H3      18.920128   20.699331   21.918747 H          1 MOL1         0.0816
       9    C4      19.911207   18.866291   22.195674 C.2        1 MOL1        -0.1394
      10    H4      20.494228   18.222880   22.853582 H          1 MOL1         0.0816
      11    C5      19.615093   18.284042   20.831401 C.3        1 MOL1        -0.1826
      12    H5      19.240552   17.257204   20.940229 H          1 MOL1         0.0736
      13    H6      18.822103   18.857352   20.331766 H          1 MOL1         0.0736
      14    C6      20.876317   18.279595   19.945776 C.3        1 MOL1        -0.2882
      15    H7      20.656013   17.854879   18.957777 H          1 MOL1         0.0749
      16    H8      21.254824   19.300138   19.801487 H          1 MOL1         0.0749
      17    H9      21.674322   17.680702   20.404005 H          1 MOL1         0.0749
@<TRIPOS>BOND
    1     1     2    1
    2     1     3    2
    3     1     4    1
    4     4     5    1
    5     4     6    1
    6     4     7    1
    7     7     8    1
    8     7     9    2
    9     9    10    1
   10     9    11    1
   11    11    12    1
   12    11    13    1
   13    11    14    1
   14    14    15    1
   15    14    16    1
   16    14    17    1
@<TRIPOS>SUBSTRUCTURE
       1 MOL1            1 RESIDUE      1      MOL     
@<SCITEGIC>MOL_PROPERTY
VConf Rank
SciTegic.value.IntegerValue
250

@<SCITEGIC>MOL_PROPERTY
Conf_Id
SciTegic.value.IntegerValue
39

@<SCITEGIC>MOL_PROPERTY
Delta U+W
SciTegic.value.DoubleValue
-0.422

@<SCITEGIC>MOL_PROPERTY
U+W
SciTegic.value.DoubleValue
-49.849

@<SCITEGIC>MOL_PROPERTY
Grad RMS
SciTegic.value.DoubleValue
0.000000

@<SCITEGIC>MOL_PROPERTY
U
SciTegic.value.DoubleValue
14.465

@<SCITEGIC>MOL_PROPERTY
W
SciTegic.value.DoubleValue
-64.314

@<SCITEGIC>MOL_PROPERTY
W(PB)
SciTegic.value.DoubleValue
-66.406

@<SCITEGIC>MOL_PROPERTY
W(SA)
SciTegic.value.DoubleValue
2.093

@<SCITEGIC>MOL_PROPERTY
Valence
SciTegic.value.DoubleValue
14.072

@<SCITEGIC>MOL_PROPERTY
Coulomb
SciTegic.value.DoubleValue
-0.199

@<SCITEGIC>MOL_PROPERTY
VdW
SciTegic.value.DoubleValue
0.592

@<SCITEGIC>MOL_PROPERTY
VdW6
SciTegic.value.DoubleValue
-5.019

@<SCITEGIC>MOL_PROPERTY
VdW12
SciTegic.value.DoubleValue
5.611

@<SCITEGIC>MOL_PROPERTY
Bond
SciTegic.value.DoubleValue
0.085

@<SCITEGIC>MOL_PROPERTY
Angle
SciTegic.value.DoubleValue
2.748

@<SCITEGIC>MOL_PROPERTY
Pdih
SciTegic.value.DoubleValue
11.238

@<SCITEGIC>MOL_PROPERTY
Idih
SciTegic.value.DoubleValue
0.001

@<SCITEGIC>MOL_PROPERTY
Tether
SciTegic.value.DoubleValue
0.000

@<TRIPOS>MOLECULE
guest-s20_confgen4.mol2 : confsearch ligand conformer 251
          17          16           1
SMALL
USER_CHARGES
 
@<TRIPOS>ATOM
       1    C1      23.100494   20.257800   21.788635 C.2        1 MOL1         0.6132
       2    O1      23.354412   20.912676   20.796857 O.co2      1 MOL1        -0.6749
       3    O2      23.846760   19.415125   22.246678 O.co2      1 MOL1        -0.6749
       4    C2      21.776832   20.512472   22.497624 C.3        1 MOL1        -0.1955
       5    H1      21.605716   21.595109   22.508788 H          1 MOL1         0.0733
       6    H2      21.879873   20.193237   23.541708 H          1 MOL1         0.0733
       7    C3      20.613303   19.808215   21.826083 C.2        1 MOL1        -0.1395
       8    H3      20.347370   20.186647   20.839538 H          1 MOL1         0.0816
       9    C4      19.936824   18.791078   22.368335 C.2        1 MOL1        -0.1394
      10    H4      20.205186   18.411215   23.353600 H          1 MOL1         0.0816
      11    C5      18.779296   18.087581   21.695623 C.3        1 MOL1        -0.1826
      12    H5      18.739805   18.346549   20.628573 H          1 MOL1         0.0736
      13    H6      18.923769   17.000104   21.750900 H          1 MOL1         0.0736
      14    C6      17.440894   18.462533   22.361320 C.3        1 MOL1        -0.2882
      15    H7      17.262200   19.543895   22.295541 H          1 MOL1         0.0749
      16    H8      16.604882   17.948575   21.869367 H          1 MOL1         0.0749
      17    H9      17.438095   18.179297   23.422073 H          1 MOL1         0.0749
@<TRIPOS>BOND
    1     1     2    1
    2     1     3    2
    3     1     4    1
    4     4     5    1
    5     4     6    1
    6     4     7    1
    7     7     8    1
    8     7     9    2
    9     9    10    1
   10     9    11    1
   11    11    12    1
   12    11    13    1
   13    11    14    1
   14    14    15    1
   15    14    16    1
   16    14    17    1
@<TRIPOS>SUBSTRUCTURE
       1 MOL1            1 RESIDUE      1      MOL     
@<SCITEGIC>MOL_PROPERTY
VConf Rank
SciTegic.value.IntegerValue
251

@<SCITEGIC>MOL_PROPERTY
Conf_Id
SciTegic.value.IntegerValue
38

@<SCITEGIC>MOL_PROPERTY
Delta U+W
SciTegic.value.DoubleValue
0.000

@<SCITEGIC>MOL_PROPERTY
U+W
SciTegic.value.DoubleValue
-49.427

@<SCITEGIC>MOL_PROPERTY
Grad RMS
SciTegic.value.DoubleValue
0.000000

@<SCITEGIC>MOL_PROPERTY
U
SciTegic.value.DoubleValue
13.666

@<SCITEGIC>MOL_PROPERTY
W
SciTegic.value.DoubleValue
-63.093

@<SCITEGIC>MOL_PROPERTY
W(PB)
SciTegic.value.DoubleValue
-65.225

@<SCITEGIC>MOL_PROPERTY
W(SA)
SciTegic.value.DoubleValue
2.132

@<SCITEGIC>MOL_PROPERTY
Valence
SciTegic.value.DoubleValue
15.226

@<SCITEGIC>MOL_PROPERTY
Coulomb
SciTegic.value.DoubleValue
-1.822

@<SCITEGIC>MOL_PROPERTY
VdW
SciTegic.value.DoubleValue
0.261

@<SCITEGIC>MOL_PROPERTY
VdW6
SciTegic.value.DoubleValue
-4.165

@<SCITEGIC>MOL_PROPERTY
VdW12
SciTegic.value.DoubleValue
4.426

@<SCITEGIC>MOL_PROPERTY
Bond
SciTegic.value.DoubleValue
0.044

@<SCITEGIC>MOL_PROPERTY
Angle
SciTegic.value.DoubleValue
2.229

@<SCITEGIC>MOL_PROPERTY
Pdih
SciTegic.value.DoubleValue
12.953

@<SCITEGIC>MOL_PROPERTY
Idih
SciTegic.value.DoubleValue
0.000

@<SCITEGIC>MOL_PROPERTY
Tether
SciTegic.value.DoubleValue
0.000

@<TRIPOS>MOLECULE
guest-s20_confgen4.mol2 : confsearch ligand conformer 252
          17          16           1
SMALL
USER_CHARGES
 
@<TRIPOS>ATOM
       1    C1      19.407547   18.254472   25.025604 C.2        1 MOL1         0.6132
       2    O1      20.433098   18.198332   25.675151 O.co2      1 MOL1        -0.6749
       3    O2      18.504826   17.446756   25.123837 O.co2      1 MOL1        -0.6749
       4    C2      19.240054   19.401750   24.038029 C.3        1 MOL1        -0.1955
       5    H1      19.885566   20.228026   24.359313 H          1 MOL1         0.0733
       6    H2      18.205460   19.756761   24.109371 H          1 MOL1         0.0733
       7    C3      19.552433   18.990742   22.611763 C.2        1 MOL1        -0.1395
       8    H3      18.850525   18.286315   22.166443 H          1 MOL1         0.0816
       9    C4      20.603497   19.434123   21.915410 C.2        1 MOL1        -0.1394
      10    H4      21.306735   20.136049   22.362418 H          1 MOL1         0.0816
      11    C5      20.915595   19.020133   20.494661 C.3        1 MOL1        -0.1826
      12    H5      21.972685   18.732148   20.416195 H          1 MOL1         0.0736
      13    H6      20.326357   18.136396   20.213542 H          1 MOL1         0.0736
      14    C6      20.620423   20.165365   19.506543 C.3        1 MOL1        -0.2882
      15    H7      21.225522   21.050923   19.741210 H          1 MOL1         0.0749
      16    H8      20.849456   19.859310   18.477485 H          1 MOL1         0.0749
      17    H9      19.561744   20.453503   19.548682 H          1 MOL1         0.0749
@<TRIPOS>BOND
    1     1     2    1
    2     1     3    2
    3     1     4    1
    4     4     5    1
    5     4     6    1
    6     4     7    1
    7     7     8    1
    8     7     9    2
    9     9    10    1
   10     9    11    1
   11    11    12    1
   12    11    13    1
   13    11    14    1
   14    14    15    1
   15    14    16    1
   16    14    17    1
@<TRIPOS>SUBSTRUCTURE
       1 MOL1            1 RESIDUE      1      MOL     
@<SCITEGIC>MOL_PROPERTY
VConf Rank
SciTegic.value.IntegerValue
252

@<SCITEGIC>MOL_PROPERTY
Conf_Id
SciTegic.value.IntegerValue
35

@<SCITEGIC>MOL_PROPERTY
Delta U+W
SciTegic.value.DoubleValue
-0.102

@<SCITEGIC>MOL_PROPERTY
U+W
SciTegic.value.DoubleValue
-49.529

@<SCITEGIC>MOL_PROPERTY
Grad RMS
SciTegic.value.DoubleValue
0.000000

@<SCITEGIC>MOL_PROPERTY
U
SciTegic.value.DoubleValue
13.666

@<SCITEGIC>MOL_PROPERTY
W
SciTegic.value.DoubleValue
-63.195

@<SCITEGIC>MOL_PROPERTY
W(PB)
SciTegic.value.DoubleValue
-65.299

@<SCITEGIC>MOL_PROPERTY
W(SA)
SciTegic.value.DoubleValue
2.103

@<SCITEGIC>MOL_PROPERTY
Valence
SciTegic.value.DoubleValue
15.226

@<SCITEGIC>MOL_PROPERTY
Coulomb
SciTegic.value.DoubleValue
-1.822

@<SCITEGIC>MOL_PROPERTY
VdW
SciTegic.value.DoubleValue
0.261

@<SCITEGIC>MOL_PROPERTY
VdW6
SciTegic.value.DoubleValue
-4.165

@<SCITEGIC>MOL_PROPERTY
VdW12
SciTegic.value.DoubleValue
4.426

@<SCITEGIC>MOL_PROPERTY
Bond
SciTegic.value.DoubleValue
0.044

@<SCITEGIC>MOL_PROPERTY
Angle
SciTegic.value.DoubleValue
2.229

@<SCITEGIC>MOL_PROPERTY
Pdih
SciTegic.value.DoubleValue
12.953

@<SCITEGIC>MOL_PROPERTY
Idih
SciTegic.value.DoubleValue
0.000

@<SCITEGIC>MOL_PROPERTY
Tether
SciTegic.value.DoubleValue
0.000

@<TRIPOS>MOLECULE
guest-s20_confgen4.mol2 : confsearch ligand conformer 253
          17          16           1
SMALL
USER_CHARGES
 
@<TRIPOS>ATOM
       1    C1      17.993333   20.667731   23.332504 C.2        1 MOL1         0.6132
       2    O1      17.184587   20.921984   22.461724 O.co2      1 MOL1        -0.6749
       3    O2      17.686638   20.269375   24.438894 O.co2      1 MOL1        -0.6749
       4    C2      19.470601   20.869004   23.021276 C.3        1 MOL1        -0.1955
       5    H1      20.002843   21.021244   23.967916 H          1 MOL1         0.0733
       6    H2      19.568089   21.797005   22.446107 H          1 MOL1         0.0733
       7    C3      20.063050   19.709495   22.242850 C.2        1 MOL1        -0.1395
       8    H3      19.685078   19.603683   21.227454 H          1 MOL1         0.0816
       9    C4      20.974650   18.864138   22.739911 C.2        1 MOL1        -0.1394
      10    H4      21.326183   18.998940   23.762329 H          1 MOL1         0.0816
      11    C5      21.605458   17.683881   22.020421 C.3        1 MOL1        -0.1826
      12    H5      22.696555   17.810350   22.016220 H          1 MOL1         0.0736
      13    H6      21.416539   16.770529   22.600609 H          1 MOL1         0.0736
      14    C6      21.118447   17.467994   20.570511 C.3        1 MOL1        -0.2882
      15    H7      21.340548   18.343119   19.945828 H          1 MOL1         0.0749
      16    H8      21.618051   16.599508   20.122005 H          1 MOL1         0.0749
      17    H9      20.036216   17.285143   20.541659 H          1 MOL1         0.0749
@<TRIPOS>BOND
    1     1     2    1
    2     1     3    2
    3     1     4    1
    4     4     5    1
    5     4     6    1
    6     4     7    1
    7     7     8    1
    8     7     9    2
    9     9    10    1
   10     9    11    1
   11    11    12    1
   12    11    13    1
   13    11    14    1
   14    14    15    1
   15    14    16    1
   16    14    17    1
@<TRIPOS>SUBSTRUCTURE
       1 MOL1            1 RESIDUE      1      MOL     
@<SCITEGIC>MOL_PROPERTY
VConf Rank
SciTegic.value.IntegerValue
253

@<SCITEGIC>MOL_PROPERTY
Conf_Id
SciTegic.value.IntegerValue
19

@<SCITEGIC>MOL_PROPERTY
Delta U+W
SciTegic.value.DoubleValue
-0.496

@<SCITEGIC>MOL_PROPERTY
U+W
SciTegic.value.DoubleValue
-49.923

@<SCITEGIC>MOL_PROPERTY
Grad RMS
SciTegic.value.DoubleValue
0.000000

@<SCITEGIC>MOL_PROPERTY
U
SciTegic.value.DoubleValue
13.863

@<SCITEGIC>MOL_PROPERTY
W
SciTegic.value.DoubleValue
-63.786

@<SCITEGIC>MOL_PROPERTY
W(PB)
SciTegic.value.DoubleValue
-65.856

@<SCITEGIC>MOL_PROPERTY
W(SA)
SciTegic.value.DoubleValue
2.070

@<SCITEGIC>MOL_PROPERTY
Valence
SciTegic.value.DoubleValue
14.117

@<SCITEGIC>MOL_PROPERTY
Coulomb
SciTegic.value.DoubleValue
-1.228

@<SCITEGIC>MOL_PROPERTY
VdW
SciTegic.value.DoubleValue
0.974

@<SCITEGIC>MOL_PROPERTY
VdW6
SciTegic.value.DoubleValue
-4.885

@<SCITEGIC>MOL_PROPERTY
VdW12
SciTegic.value.DoubleValue
5.859

@<SCITEGIC>MOL_PROPERTY
Bond
SciTegic.value.DoubleValue
0.094

@<SCITEGIC>MOL_PROPERTY
Angle
SciTegic.value.DoubleValue
2.818

@<SCITEGIC>MOL_PROPERTY
Pdih
SciTegic.value.DoubleValue
11.205

@<SCITEGIC>MOL_PROPERTY
Idih
SciTegic.value.DoubleValue
0.000

@<SCITEGIC>MOL_PROPERTY
Tether
SciTegic.value.DoubleValue
0.000

@<TRIPOS>MOLECULE
guest-s20_confgen4.mol2 : confsearch ligand conformer 254
          17          16           1
SMALL
USER_CHARGES
 
@<TRIPOS>ATOM
       1    C1      18.112015   21.088928   22.791704 C.2        1 MOL1         0.6132
       2    O1      17.258333   20.837888   21.964047 O.co2      1 MOL1        -0.6749
       3    O2      17.870672   21.294642   23.964921 O.co2      1 MOL1        -0.6749
       4    C2      19.562955   21.160773   22.334060 C.3        1 MOL1        -0.1955
       5    H1      20.027886   22.020900   22.829546 H          1 MOL1         0.0733
       6    H2      19.573290   21.366668   21.256955 H          1 MOL1         0.0733
       7    C3      20.335970   19.895300   22.653106 C.2        1 MOL1        -0.1395
       8    H3      20.501467   19.706314   23.713347 H          1 MOL1         0.0816
       9    C4      20.792493   19.041485   21.731801 C.2        1 MOL1        -0.1394
      10    H4      20.622239   19.228309   20.672004 H          1 MOL1         0.0816
      11    C5      21.560559   17.778652   22.052213 C.3        1 MOL1        -0.1826
      12    H5      22.458145   17.720298   21.421772 H          1 MOL1         0.0736
      13    H6      21.907663   17.793876   23.094564 H          1 MOL1         0.0736
      14    C6      20.689536   16.528103   21.823217 C.3        1 MOL1        -0.2882
      15    H7      20.359834   16.466521   20.777784 H          1 MOL1         0.0749
      16    H8      21.251567   15.614733   22.057618 H          1 MOL1         0.0749
      17    H9      19.796955   16.552618   22.462261 H          1 MOL1         0.0749
@<TRIPOS>BOND
    1     1     2    1
    2     1     3    2
    3     1     4    1
    4     4     5    1
    5     4     6    1
    6     4     7    1
    7     7     8    1
    8     7     9    2
    9     9    10    1
   10     9    11    1
   11    11    12    1
   12    11    13    1
   13    11    14    1
   14    14    15    1
   15    14    16    1
   16    14    17    1
@<TRIPOS>SUBSTRUCTURE
       1 MOL1            1 RESIDUE      1      MOL     
@<SCITEGIC>MOL_PROPERTY
VConf Rank
SciTegic.value.IntegerValue
254

@<SCITEGIC>MOL_PROPERTY
Conf_Id
SciTegic.value.IntegerValue
7

@<SCITEGIC>MOL_PROPERTY
Delta U+W
SciTegic.value.DoubleValue
-0.041

@<SCITEGIC>MOL_PROPERTY
U+W
SciTegic.value.DoubleValue
-49.468

@<SCITEGIC>MOL_PROPERTY
Grad RMS
SciTegic.value.DoubleValue
0.000000

@<SCITEGIC>MOL_PROPERTY
U
SciTegic.value.DoubleValue
14.121

@<SCITEGIC>MOL_PROPERTY
W
SciTegic.value.DoubleValue
-63.589

@<SCITEGIC>MOL_PROPERTY
W(PB)
SciTegic.value.DoubleValue
-65.660

@<SCITEGIC>MOL_PROPERTY
W(SA)
SciTegic.value.DoubleValue
2.071

@<SCITEGIC>MOL_PROPERTY
Valence
SciTegic.value.DoubleValue
15.230

@<SCITEGIC>MOL_PROPERTY
Coulomb
SciTegic.value.DoubleValue
-1.333

@<SCITEGIC>MOL_PROPERTY
VdW
SciTegic.value.DoubleValue
0.224

@<SCITEGIC>MOL_PROPERTY
VdW6
SciTegic.value.DoubleValue
-4.212

@<SCITEGIC>MOL_PROPERTY
VdW12
SciTegic.value.DoubleValue
4.436

@<SCITEGIC>MOL_PROPERTY
Bond
SciTegic.value.DoubleValue
0.044

@<SCITEGIC>MOL_PROPERTY
Angle
SciTegic.value.DoubleValue
2.230

@<SCITEGIC>MOL_PROPERTY
Pdih
SciTegic.value.DoubleValue
12.956

@<SCITEGIC>MOL_PROPERTY
Idih
SciTegic.value.DoubleValue
0.000

@<SCITEGIC>MOL_PROPERTY
Tether
SciTegic.value.DoubleValue
0.000

@<TRIPOS>MOLECULE
guest-s20_confgen4.mol2 : confsearch ligand conformer 255
          17          16           1
SMALL
USER_CHARGES
 
@<TRIPOS>ATOM
       1    C1      19.259590   16.679788   22.648177 C.2        1 MOL1         0.6132
       2    O1      18.763307   16.441421   21.564721 O.co2      1 MOL1        -0.6749
       3    O2      18.668524   16.545029   23.701536 O.co2      1 MOL1        -0.6749
       4    C2      20.711440   17.146632   22.690160 C.3        1 MOL1        -0.1955
       5    H1      21.239707   16.678225   21.851531 H          1 MOL1         0.0733
       6    H2      21.168771   16.739662   23.599524 H          1 MOL1         0.0733
       7    C3      20.918515   18.653948   22.645469 C.2        1 MOL1        -0.1395
       8    H3      21.961866   18.965387   22.676611 H          1 MOL1         0.0816
       9    C4      19.953913   19.578679   22.571914 C.2        1 MOL1        -0.1394
      10    H4      18.902884   19.294150   22.538536 H          1 MOL1         0.0816
      11    C5      20.213757   21.068241   22.531555 C.3        1 MOL1        -0.1826
      12    H5      19.563951   21.577386   23.256154 H          1 MOL1         0.0736
      13    H6      21.248737   21.286892   22.828475 H          1 MOL1         0.0736
      14    C6      19.956537   21.637085   21.122552 C.3        1 MOL1        -0.2882
      15    H7      20.145242   22.718249   21.099446 H          1 MOL1         0.0749
      16    H8      20.614167   21.160340   20.383747 H          1 MOL1         0.0749
      17    H9      18.916500   21.465958   20.815147 H          1 MOL1         0.0749
@<TRIPOS>BOND
    1     1     2    1
    2     1     3    2
    3     1     4    1
    4     4     5    1
    5     4     6    1
    6     4     7    1
    7     7     8    1
    8     7     9    2
    9     9    10    1
   10     9    11    1
   11    11    12    1
   12    11    13    1
   13    11    14    1
   14    14    15    1
   15    14    16    1
   16    14    17    1
@<TRIPOS>SUBSTRUCTURE
       1 MOL1            1 RESIDUE      1      MOL     
@<SCITEGIC>MOL_PROPERTY
VConf Rank
SciTegic.value.IntegerValue
255

@<SCITEGIC>MOL_PROPERTY
Conf_Id
SciTegic.value.IntegerValue
39

@<SCITEGIC>MOL_PROPERTY
Delta U+W
SciTegic.value.DoubleValue
-0.422

@<SCITEGIC>MOL_PROPERTY
U+W
SciTegic.value.DoubleValue
-49.849

@<SCITEGIC>MOL_PROPERTY
Grad RMS
SciTegic.value.DoubleValue
0.000000

@<SCITEGIC>MOL_PROPERTY
U
SciTegic.value.DoubleValue
14.465

@<SCITEGIC>MOL_PROPERTY
W
SciTegic.value.DoubleValue
-64.314

@<SCITEGIC>MOL_PROPERTY
W(PB)
SciTegic.value.DoubleValue
-66.406

@<SCITEGIC>MOL_PROPERTY
W(SA)
SciTegic.value.DoubleValue
2.093

@<SCITEGIC>MOL_PROPERTY
Valence
SciTegic.value.DoubleValue
14.072

@<SCITEGIC>MOL_PROPERTY
Coulomb
SciTegic.value.DoubleValue
-0.199

@<SCITEGIC>MOL_PROPERTY
VdW
SciTegic.value.DoubleValue
0.592

@<SCITEGIC>MOL_PROPERTY
VdW6
SciTegic.value.DoubleValue
-5.019

@<SCITEGIC>MOL_PROPERTY
VdW12
SciTegic.value.DoubleValue
5.611

@<SCITEGIC>MOL_PROPERTY
Bond
SciTegic.value.DoubleValue
0.085

@<SCITEGIC>MOL_PROPERTY
Angle
SciTegic.value.DoubleValue
2.748

@<SCITEGIC>MOL_PROPERTY
Pdih
SciTegic.value.DoubleValue
11.238

@<SCITEGIC>MOL_PROPERTY
Idih
SciTegic.value.DoubleValue
0.001

@<SCITEGIC>MOL_PROPERTY
Tether
SciTegic.value.DoubleValue
0.000

@<TRIPOS>MOLECULE
guest-s20_confgen4.mol2 : confsearch ligand conformer 256
          17          16           1
SMALL
USER_CHARGES
 
@<TRIPOS>ATOM
       1    C1      17.822667   17.336633   21.087109 C.2        1 MOL1         0.6132
       2    O1      16.851296   17.217455   21.807661 O.co2      1 MOL1        -0.6749
       3    O2      18.326074   16.412377   20.479531 O.co2      1 MOL1        -0.6749
       4    C2      18.437696   18.721565   20.934438 C.3        1 MOL1        -0.1955
       5    H1      17.618137   19.445395   20.857610 H          1 MOL1         0.0733
       6    H2      18.982728   18.751987   19.983305 H          1 MOL1         0.0733
       7    C3      19.346239   19.084635   22.093522 C.2        1 MOL1        -0.1395
       8    H3      18.844415   19.231581   23.049441 H          1 MOL1         0.0816
       9    C4      20.671939   19.222074   21.994243 C.2        1 MOL1        -0.1394
      10    H4      21.173444   19.072072   21.038705 H          1 MOL1         0.0816
      11    C5      21.576740   19.580456   23.151921 C.3        1 MOL1        -0.1826
      12    H5      21.045635   19.460626   24.106275 H          1 MOL1         0.0736
      13    H6      22.433283   18.893354   23.179447 H          1 MOL1         0.0736
      14    C6      22.084841   21.030255   23.029543 C.3        1 MOL1        -0.2882
      15    H7      21.245757   21.738441   23.025880 H          1 MOL1         0.0749
      16    H8      22.741300   21.284264   23.871936 H          1 MOL1         0.0749
      17    H9      22.653523   21.168939   22.100675 H          1 MOL1         0.0749
@<TRIPOS>BOND
    1     1     2    1
    2     1     3    2
    3     1     4    1
    4     4     5    1
    5     4     6    1
    6     4     7    1
    7     7     8    1
    8     7     9    2
    9     9    10    1
   10     9    11    1
   11    11    12    1
   12    11    13    1
   13    11    14    1
   14    14    15    1
   15    14    16    1
   16    14    17    1
@<TRIPOS>SUBSTRUCTURE
       1 MOL1            1 RESIDUE      1      MOL     
@<SCITEGIC>MOL_PROPERTY
VConf Rank
SciTegic.value.IntegerValue
256

@<SCITEGIC>MOL_PROPERTY
Conf_Id
SciTegic.value.IntegerValue
38

@<SCITEGIC>MOL_PROPERTY
Delta U+W
SciTegic.value.DoubleValue
0.000

@<SCITEGIC>MOL_PROPERTY
U+W
SciTegic.value.DoubleValue
-49.427

@<SCITEGIC>MOL_PROPERTY
Grad RMS
SciTegic.value.DoubleValue
0.000000

@<SCITEGIC>MOL_PROPERTY
U
SciTegic.value.DoubleValue
13.666

@<SCITEGIC>MOL_PROPERTY
W
SciTegic.value.DoubleValue
-63.093

@<SCITEGIC>MOL_PROPERTY
W(PB)
SciTegic.value.DoubleValue
-65.225

@<SCITEGIC>MOL_PROPERTY
W(SA)
SciTegic.value.DoubleValue
2.132

@<SCITEGIC>MOL_PROPERTY
Valence
SciTegic.value.DoubleValue
15.226

@<SCITEGIC>MOL_PROPERTY
Coulomb
SciTegic.value.DoubleValue
-1.822

@<SCITEGIC>MOL_PROPERTY
VdW
SciTegic.value.DoubleValue
0.261

@<SCITEGIC>MOL_PROPERTY
VdW6
SciTegic.value.DoubleValue
-4.165

@<SCITEGIC>MOL_PROPERTY
VdW12
SciTegic.value.DoubleValue
4.426

@<SCITEGIC>MOL_PROPERTY
Bond
SciTegic.value.DoubleValue
0.044

@<SCITEGIC>MOL_PROPERTY
Angle
SciTegic.value.DoubleValue
2.229

@<SCITEGIC>MOL_PROPERTY
Pdih
SciTegic.value.DoubleValue
12.953

@<SCITEGIC>MOL_PROPERTY
Idih
SciTegic.value.DoubleValue
0.000

@<SCITEGIC>MOL_PROPERTY
Tether
SciTegic.value.DoubleValue
0.000

@<TRIPOS>MOLECULE
guest-s20_confgen4.mol2 : confsearch ligand conformer 257
          17          16           1
SMALL
USER_CHARGES
 
@<TRIPOS>ATOM
       1    C1      18.172282   20.709511   20.037281 C.2        1 MOL1         0.6132
       2    O1      17.084744   20.877934   20.552755 O.co2      1 MOL1        -0.6749
       3    O2      18.323599   20.422185   18.866168 O.co2      1 MOL1        -0.6749
       4    C2      19.414785   20.872206   20.902915 C.3        1 MOL1        -0.1955
       5    H1      19.159246   21.517324   21.752128 H          1 MOL1         0.0733
       6    H2      20.168027   21.404839   20.310939 H          1 MOL1         0.0733
       7    C3      19.970052   19.542935   21.377742 C.2        1 MOL1        -0.1395
       8    H3      20.394131   18.910902   20.598067 H          1 MOL1         0.0816
       9    C4      19.957866   19.135428   22.650541 C.2        1 MOL1        -0.1394
      10    H4      19.530778   19.766568   23.429206 H          1 MOL1         0.0816
      11    C5      20.508431   17.807908   23.121595 C.3        1 MOL1        -0.1826
      12    H5      19.774710   17.311840   23.771288 H          1 MOL1         0.0736
      13    H6      20.677871   17.137323   22.267883 H          1 MOL1         0.0736
      14    C6      21.830173   17.998095   23.890938 C.3        1 MOL1        -0.2882
      15    H7      21.681830   18.634652   24.773105 H          1 MOL1         0.0749
      16    H8      22.224414   17.031574   24.230785 H          1 MOL1         0.0749
      17    H9      22.588586   18.469879   23.252322 H          1 MOL1         0.0749
@<TRIPOS>BOND
    1     1     2    1
    2     1     3    2
    3     1     4    1
    4     4     5    1
    5     4     6    1
    6     4     7    1
    7     7     8    1
    8     7     9    2
    9     9    10    1
   10     9    11    1
   11    11    12    1
   12    11    13    1
   13    11    14    1
   14    14    15    1
   15    14    16    1
   16    14    17    1
@<TRIPOS>SUBSTRUCTURE
       1 MOL1            1 RESIDUE      1      MOL     
@<SCITEGIC>MOL_PROPERTY
VConf Rank
SciTegic.value.IntegerValue
257

@<SCITEGIC>MOL_PROPERTY
Conf_Id
SciTegic.value.IntegerValue
35

@<SCITEGIC>MOL_PROPERTY
Delta U+W
SciTegic.value.DoubleValue
-0.102

@<SCITEGIC>MOL_PROPERTY
U+W
SciTegic.value.DoubleValue
-49.529

@<SCITEGIC>MOL_PROPERTY
Grad RMS
SciTegic.value.DoubleValue
0.000000

@<SCITEGIC>MOL_PROPERTY
U
SciTegic.value.DoubleValue
13.666

@<SCITEGIC>MOL_PROPERTY
W
SciTegic.value.DoubleValue
-63.195

@<SCITEGIC>MOL_PROPERTY
W(PB)
SciTegic.value.DoubleValue
-65.299

@<SCITEGIC>MOL_PROPERTY
W(SA)
SciTegic.value.DoubleValue
2.103

@<SCITEGIC>MOL_PROPERTY
Valence
SciTegic.value.DoubleValue
15.226

@<SCITEGIC>MOL_PROPERTY
Coulomb
SciTegic.value.DoubleValue
-1.822

@<SCITEGIC>MOL_PROPERTY
VdW
SciTegic.value.DoubleValue
0.261

@<SCITEGIC>MOL_PROPERTY
VdW6
SciTegic.value.DoubleValue
-4.165

@<SCITEGIC>MOL_PROPERTY
VdW12
SciTegic.value.DoubleValue
4.426

@<SCITEGIC>MOL_PROPERTY
Bond
SciTegic.value.DoubleValue
0.044

@<SCITEGIC>MOL_PROPERTY
Angle
SciTegic.value.DoubleValue
2.229

@<SCITEGIC>MOL_PROPERTY
Pdih
SciTegic.value.DoubleValue
12.953

@<SCITEGIC>MOL_PROPERTY
Idih
SciTegic.value.DoubleValue
0.000

@<SCITEGIC>MOL_PROPERTY
Tether
SciTegic.value.DoubleValue
0.000

@<TRIPOS>MOLECULE
guest-s20_confgen4.mol2 : confsearch ligand conformer 258
          17          16           1
SMALL
USER_CHARGES
 
@<TRIPOS>ATOM
       1    C1      18.720037   21.552230   22.858847 C.2        1 MOL1         0.6132
       2    O1      19.079282   22.461824   22.137354 O.co2      1 MOL1        -0.6749
       3    O2      17.554744   21.306873   23.101215 O.co2      1 MOL1        -0.6749
       4    C2      19.790437   20.679367   23.500757 C.3        1 MOL1        -0.1955
       5    H1      19.367158   20.227603   24.405925 H          1 MOL1         0.0733
       6    H2      20.608307   21.334597   23.822117 H          1 MOL1         0.0733
       7    C3      20.316297   19.615986   22.555189 C.2        1 MOL1        -0.1395
       8    H3      20.888575   20.000154   21.712573 H          1 MOL1         0.0816
       9    C4      20.104872   18.303553   22.714973 C.2        1 MOL1        -0.1394
      10    H4      19.523314   17.956585   23.568487 H          1 MOL1         0.0816
      11    C5      20.596831   17.188033   21.808231 C.3        1 MOL1        -0.1826
      12    H5      21.201751   16.487828   22.400085 H          1 MOL1         0.0736
      13    H6      19.733125   16.607554   21.456695 H          1 MOL1         0.0736
      14    C6      21.419081   17.655224   20.586894 C.3        1 MOL1        -0.2882
      15    H7      22.321983   18.194207   20.902597 H          1 MOL1         0.0749
      16    H8      21.735340   16.794286   19.983739 H          1 MOL1         0.0749
      17    H9      20.825730   18.317217   19.942541 H          1 MOL1         0.0749
@<TRIPOS>BOND
    1     1     2    1
    2     1     3    2
    3     1     4    1
    4     4     5    1
    5     4     6    1
    6     4     7    1
    7     7     8    1
    8     7     9    2
    9     9    10    1
   10     9    11    1
   11    11    12    1
   12    11    13    1
   13    11    14    1
   14    14    15    1
   15    14    16    1
   16    14    17    1
@<TRIPOS>SUBSTRUCTURE
       1 MOL1            1 RESIDUE      1      MOL     
@<SCITEGIC>MOL_PROPERTY
VConf Rank
SciTegic.value.IntegerValue
258

@<SCITEGIC>MOL_PROPERTY
Conf_Id
SciTegic.value.IntegerValue
19

@<SCITEGIC>MOL_PROPERTY
Delta U+W
SciTegic.value.DoubleValue
-0.496

@<SCITEGIC>MOL_PROPERTY
U+W
SciTegic.value.DoubleValue
-49.923

@<SCITEGIC>MOL_PROPERTY
Grad RMS
SciTegic.value.DoubleValue
0.000000

@<SCITEGIC>MOL_PROPERTY
U
SciTegic.value.DoubleValue
13.863

@<SCITEGIC>MOL_PROPERTY
W
SciTegic.value.DoubleValue
-63.786

@<SCITEGIC>MOL_PROPERTY
W(PB)
SciTegic.value.DoubleValue
-65.856

@<SCITEGIC>MOL_PROPERTY
W(SA)
SciTegic.value.DoubleValue
2.070

@<SCITEGIC>MOL_PROPERTY
Valence
SciTegic.value.DoubleValue
14.117

@<SCITEGIC>MOL_PROPERTY
Coulomb
SciTegic.value.DoubleValue
-1.228

@<SCITEGIC>MOL_PROPERTY
VdW
SciTegic.value.DoubleValue
0.974

@<SCITEGIC>MOL_PROPERTY
VdW6
SciTegic.value.DoubleValue
-4.885

@<SCITEGIC>MOL_PROPERTY
VdW12
SciTegic.value.DoubleValue
5.859

@<SCITEGIC>MOL_PROPERTY
Bond
SciTegic.value.DoubleValue
0.094

@<SCITEGIC>MOL_PROPERTY
Angle
SciTegic.value.DoubleValue
2.818

@<SCITEGIC>MOL_PROPERTY
Pdih
SciTegic.value.DoubleValue
11.205

@<SCITEGIC>MOL_PROPERTY
Idih
SciTegic.value.DoubleValue
0.000

@<SCITEGIC>MOL_PROPERTY
Tether
SciTegic.value.DoubleValue
0.000

@<TRIPOS>MOLECULE
guest-s20_confgen4.mol2 : confsearch ligand conformer 259
          17          16           1
SMALL
USER_CHARGES
 
@<TRIPOS>ATOM
       1    C1      22.097714   20.520159   20.557384 C.2        1 MOL1         0.6132
       2    O1      22.659749   21.221575   21.375273 O.co2      1 MOL1        -0.6749
       3    O2      22.683272   19.872027   19.712369 O.co2      1 MOL1        -0.6749
       4    C2      20.576171   20.456701   20.583997 C.3        1 MOL1        -0.1955
       5    H1      20.221661   20.491175   19.547359 H          1 MOL1         0.0733
       6    H2      20.203618   21.360596   21.080818 H          1 MOL1         0.0733
       7    C3      20.058874   19.206751   21.270140 C.2        1 MOL1        -0.1395
       8    H3      20.258688   18.272331   20.746547 H          1 MOL1         0.0816
       9    C4      19.407210   19.205386   22.436994 C.2        1 MOL1        -0.1394
      10    H4      19.212211   20.139582   22.962647 H          1 MOL1         0.0816
      11    C5      18.894789   17.957584   23.120917 C.3        1 MOL1        -0.1826
      12    H5      17.851207   18.105836   23.429918 H          1 MOL1         0.0736
      13    H6      18.899844   17.107846   22.424406 H          1 MOL1         0.0736
      14    C6      19.751591   17.610975   24.354101 C.3        1 MOL1        -0.2882
      15    H7      19.733154   18.428913   25.086264 H          1 MOL1         0.0749
      16    H8      19.375682   16.704583   24.846253 H          1 MOL1         0.0749
      17    H9      20.796142   17.433988   24.065534 H          1 MOL1         0.0749
@<TRIPOS>BOND
    1     1     2    1
    2     1     3    2
    3     1     4    1
    4     4     5    1
    5     4     6    1
    6     4     7    1
    7     7     8    1
    8     7     9    2
    9     9    10    1
   10     9    11    1
   11    11    12    1
   12    11    13    1
   13    11    14    1
   14    14    15    1
   15    14    16    1
   16    14    17    1
@<TRIPOS>SUBSTRUCTURE
       1 MOL1            1 RESIDUE      1      MOL     
@<SCITEGIC>MOL_PROPERTY
VConf Rank
SciTegic.value.IntegerValue
259

@<SCITEGIC>MOL_PROPERTY
Conf_Id
SciTegic.value.IntegerValue
7

@<SCITEGIC>MOL_PROPERTY
Delta U+W
SciTegic.value.DoubleValue
-0.041

@<SCITEGIC>MOL_PROPERTY
U+W
SciTegic.value.DoubleValue
-49.468

@<SCITEGIC>MOL_PROPERTY
Grad RMS
SciTegic.value.DoubleValue
0.000000

@<SCITEGIC>MOL_PROPERTY
U
SciTegic.value.DoubleValue
14.121

@<SCITEGIC>MOL_PROPERTY
W
SciTegic.value.DoubleValue
-63.589

@<SCITEGIC>MOL_PROPERTY
W(PB)
SciTegic.value.DoubleValue
-65.660

@<SCITEGIC>MOL_PROPERTY
W(SA)
SciTegic.value.DoubleValue
2.071

@<SCITEGIC>MOL_PROPERTY
Valence
SciTegic.value.DoubleValue
15.230

@<SCITEGIC>MOL_PROPERTY
Coulomb
SciTegic.value.DoubleValue
-1.333

@<SCITEGIC>MOL_PROPERTY
VdW
SciTegic.value.DoubleValue
0.224

@<SCITEGIC>MOL_PROPERTY
VdW6
SciTegic.value.DoubleValue
-4.212

@<SCITEGIC>MOL_PROPERTY
VdW12
SciTegic.value.DoubleValue
4.436

@<SCITEGIC>MOL_PROPERTY
Bond
SciTegic.value.DoubleValue
0.044

@<SCITEGIC>MOL_PROPERTY
Angle
SciTegic.value.DoubleValue
2.230

@<SCITEGIC>MOL_PROPERTY
Pdih
SciTegic.value.DoubleValue
12.956

@<SCITEGIC>MOL_PROPERTY
Idih
SciTegic.value.DoubleValue
0.000

@<SCITEGIC>MOL_PROPERTY
Tether
SciTegic.value.DoubleValue
0.000

@<TRIPOS>MOLECULE
guest-s20_confgen4.mol2 : confsearch ligand conformer 260
          17          16           1
SMALL
USER_CHARGES
 
@<TRIPOS>ATOM
       1    C1      21.143535   21.508211   23.531913 C.2        1 MOL1         0.6132
       2    O1      22.248355   21.575885   23.030132 O.co2      1 MOL1        -0.6749
       3    O2      20.951646   21.482283   24.731742 O.co2      1 MOL1        -0.6749
       4    C2      19.930799   21.482509   22.606609 C.3        1 MOL1        -0.1955
       5    H1      20.175822   22.070814   21.714629 H          1 MOL1         0.0733
       6    H2      19.115641   22.018471   23.106592 H          1 MOL1         0.0733
       7    C3      19.451719   20.099242   22.189560 C.2        1 MOL1        -0.1395
       8    H3      18.585235   20.103805   21.529461 H          1 MOL1         0.0816
       9    C4      19.996474   18.933778   22.558249 C.2        1 MOL1        -0.1394
      10    H4      20.863746   18.901204   23.216664 H          1 MOL1         0.0816
      11    C5      19.479699   17.582849   22.115670 C.3        1 MOL1        -0.1826
      12    H5      19.386918   16.918601   22.985547 H          1 MOL1         0.0736
      13    H6      18.474182   17.677894   21.683169 H          1 MOL1         0.0736
      14    C6      20.422420   16.942202   21.078421 C.3        1 MOL1        -0.2882
      15    H7      20.043365   15.961787   20.761936 H          1 MOL1         0.0749
      16    H8      20.510724   17.577489   20.187238 H          1 MOL1         0.0749
      17    H9      21.427127   16.800049   21.497724 H          1 MOL1         0.0749
@<TRIPOS>BOND
    1     1     2    1
    2     1     3    2
    3     1     4    1
    4     4     5    1
    5     4     6    1
    6     4     7    1
    7     7     8    1
    8     7     9    2
    9     9    10    1
   10     9    11    1
   11    11    12    1
   12    11    13    1
   13    11    14    1
   14    14    15    1
   15    14    16    1
   16    14    17    1
@<TRIPOS>SUBSTRUCTURE
       1 MOL1            1 RESIDUE      1      MOL     
@<SCITEGIC>MOL_PROPERTY
VConf Rank
SciTegic.value.IntegerValue
260

@<SCITEGIC>MOL_PROPERTY
Conf_Id
SciTegic.value.IntegerValue
39

@<SCITEGIC>MOL_PROPERTY
Delta U+W
SciTegic.value.DoubleValue
-0.422

@<SCITEGIC>MOL_PROPERTY
U+W
SciTegic.value.DoubleValue
-49.849

@<SCITEGIC>MOL_PROPERTY
Grad RMS
SciTegic.value.DoubleValue
0.000000

@<SCITEGIC>MOL_PROPERTY
U
SciTegic.value.DoubleValue
14.465

@<SCITEGIC>MOL_PROPERTY
W
SciTegic.value.DoubleValue
-64.314

@<SCITEGIC>MOL_PROPERTY
W(PB)
SciTegic.value.DoubleValue
-66.406

@<SCITEGIC>MOL_PROPERTY
W(SA)
SciTegic.value.DoubleValue
2.093

@<SCITEGIC>MOL_PROPERTY
Valence
SciTegic.value.DoubleValue
14.072

@<SCITEGIC>MOL_PROPERTY
Coulomb
SciTegic.value.DoubleValue
-0.199

@<SCITEGIC>MOL_PROPERTY
VdW
SciTegic.value.DoubleValue
0.592

@<SCITEGIC>MOL_PROPERTY
VdW6
SciTegic.value.DoubleValue
-5.019

@<SCITEGIC>MOL_PROPERTY
VdW12
SciTegic.value.DoubleValue
5.611

@<SCITEGIC>MOL_PROPERTY
Bond
SciTegic.value.DoubleValue
0.085

@<SCITEGIC>MOL_PROPERTY
Angle
SciTegic.value.DoubleValue
2.748

@<SCITEGIC>MOL_PROPERTY
Pdih
SciTegic.value.DoubleValue
11.238

@<SCITEGIC>MOL_PROPERTY
Idih
SciTegic.value.DoubleValue
0.001

@<SCITEGIC>MOL_PROPERTY
Tether
SciTegic.value.DoubleValue
0.000

@<TRIPOS>MOLECULE
guest-s20_confgen4.mol2 : confsearch ligand conformer 261
          17          16           1
SMALL
USER_CHARGES
 
@<TRIPOS>ATOM
       1    C1      18.215842   20.453979   19.860568 C.2        1 MOL1         0.6132
       2    O1      17.062057   20.664542   20.179009 O.co2      1 MOL1        -0.6749
       3    O2      18.542751   19.995770   18.783538 O.co2      1 MOL1        -0.6749
       4    C2      19.310394   20.788324   20.865442 C.3        1 MOL1        -0.1955
       5    H1      19.048341   21.740091   21.341864 H          1 MOL1         0.0733
       6    H2      20.244069   20.952022   20.313996 H          1 MOL1         0.0733
       7    C3      19.482377   19.709273   21.917495 C.2        1 MOL1        -0.1395
       8    H3      18.649537   19.599331   22.611390 H          1 MOL1         0.0816
       9    C4      20.560029   18.925490   22.020345 C.2        1 MOL1        -0.1394
      10    H4      21.391188   19.033962   21.324305 H          1 MOL1         0.0816
      11    C5      20.728154   17.847493   23.067711 C.3        1 MOL1        -0.1826
      12    H5      19.766601   17.629245   23.552485 H          1 MOL1         0.0736
      13    H6      21.059234   16.915268   22.590345 H          1 MOL1         0.0736
      14    C6      21.754324   18.269619   24.137218 C.3        1 MOL1        -0.2882
      15    H7      21.431396   19.187065   24.646738 H          1 MOL1         0.0749
      16    H8      21.872510   17.483242   24.894007 H          1 MOL1         0.0749
      17    H9      22.736910   18.457393   23.684785 H          1 MOL1         0.0749
@<TRIPOS>BOND
    1     1     2    1
    2     1     3    2
    3     1     4    1
    4     4     5    1
    5     4     6    1
    6     4     7    1
    7     7     8    1
    8     7     9    2
    9     9    10    1
   10     9    11    1
   11    11    12    1
   12    11    13    1
   13    11    14    1
   14    14    15    1
   15    14    16    1
   16    14    17    1
@<TRIPOS>SUBSTRUCTURE
       1 MOL1            1 RESIDUE      1      MOL     
@<SCITEGIC>MOL_PROPERTY
VConf Rank
SciTegic.value.IntegerValue
261

@<SCITEGIC>MOL_PROPERTY
Conf_Id
SciTegic.value.IntegerValue
38

@<SCITEGIC>MOL_PROPERTY
Delta U+W
SciTegic.value.DoubleValue
0.000

@<SCITEGIC>MOL_PROPERTY
U+W
SciTegic.value.DoubleValue
-49.427

@<SCITEGIC>MOL_PROPERTY
Grad RMS
SciTegic.value.DoubleValue
0.000000

@<SCITEGIC>MOL_PROPERTY
U
SciTegic.value.DoubleValue
13.666

@<SCITEGIC>MOL_PROPERTY
W
SciTegic.value.DoubleValue
-63.093

@<SCITEGIC>MOL_PROPERTY
W(PB)
SciTegic.value.DoubleValue
-65.225

@<SCITEGIC>MOL_PROPERTY
W(SA)
SciTegic.value.DoubleValue
2.132

@<SCITEGIC>MOL_PROPERTY
Valence
SciTegic.value.DoubleValue
15.226

@<SCITEGIC>MOL_PROPERTY
Coulomb
SciTegic.value.DoubleValue
-1.822

@<SCITEGIC>MOL_PROPERTY
VdW
SciTegic.value.DoubleValue
0.261

@<SCITEGIC>MOL_PROPERTY
VdW6
SciTegic.value.DoubleValue
-4.165

@<SCITEGIC>MOL_PROPERTY
VdW12
SciTegic.value.DoubleValue
4.426

@<SCITEGIC>MOL_PROPERTY
Bond
SciTegic.value.DoubleValue
0.044

@<SCITEGIC>MOL_PROPERTY
Angle
SciTegic.value.DoubleValue
2.229

@<SCITEGIC>MOL_PROPERTY
Pdih
SciTegic.value.DoubleValue
12.953

@<SCITEGIC>MOL_PROPERTY
Idih
SciTegic.value.DoubleValue
0.000

@<SCITEGIC>MOL_PROPERTY
Tether
SciTegic.value.DoubleValue
0.000

@<TRIPOS>MOLECULE
guest-s20_confgen4.mol2 : confsearch ligand conformer 262
          17          16           1
SMALL
USER_CHARGES
 
@<TRIPOS>ATOM
       1    C1      22.008837   16.838280   22.750844 C.2        1 MOL1         0.6132
       2    O1      22.795210   17.172507   23.614979 O.co2      1 MOL1        -0.6749
       3    O2      22.301720   16.115309   21.818914 O.co2      1 MOL1        -0.6749
       4    C2      20.576386   17.347619   22.841743 C.3        1 MOL1        -0.1955
       5    H1      20.367445   17.599142   23.888509 H          1 MOL1         0.0733
       6    H2      19.909195   16.521044   22.571305 H          1 MOL1         0.0733
       7    C3      20.324535   18.537900   21.935902 C.2        1 MOL1        -0.1395
       8    H3      20.355950   18.324403   20.867898 H          1 MOL1         0.0816
       9    C4      20.080541   19.776780   22.373931 C.2        1 MOL1        -0.1394
      10    H4      20.052422   19.990196   23.441978 H          1 MOL1         0.0816
      11    C5      19.833557   20.963240   21.469147 C.3        1 MOL1        -0.1826
      12    H5      20.455179   21.810012   21.790230 H          1 MOL1         0.0736
      13    H6      20.129585   20.728127   20.437493 H          1 MOL1         0.0736
      14    C6      18.349387   21.377702   21.492001 C.3        1 MOL1        -0.2882
      15    H7      18.035850   21.655524   22.506859 H          1 MOL1         0.0749
      16    H8      18.176488   22.239408   20.834236 H          1 MOL1         0.0749
      17    H9      17.709237   20.553912   21.149689 H          1 MOL1         0.0749
@<TRIPOS>BOND
    1     1     2    1
    2     1     3    2
    3     1     4    1
    4     4     5    1
    5     4     6    1
    6     4     7    1
    7     7     8    1
    8     7     9    2
    9     9    10    1
   10     9    11    1
   11    11    12    1
   12    11    13    1
   13    11    14    1
   14    14    15    1
   15    14    16    1
   16    14    17    1
@<TRIPOS>SUBSTRUCTURE
       1 MOL1            1 RESIDUE      1      MOL     
@<SCITEGIC>MOL_PROPERTY
VConf Rank
SciTegic.value.IntegerValue
262

@<SCITEGIC>MOL_PROPERTY
Conf_Id
SciTegic.value.IntegerValue
35

@<SCITEGIC>MOL_PROPERTY
Delta U+W
SciTegic.value.DoubleValue
-0.102

@<SCITEGIC>MOL_PROPERTY
U+W
SciTegic.value.DoubleValue
-49.529

@<SCITEGIC>MOL_PROPERTY
Grad RMS
SciTegic.value.DoubleValue
0.000000

@<SCITEGIC>MOL_PROPERTY
U
SciTegic.value.DoubleValue
13.666

@<SCITEGIC>MOL_PROPERTY
W
SciTegic.value.DoubleValue
-63.195

@<SCITEGIC>MOL_PROPERTY
W(PB)
SciTegic.value.DoubleValue
-65.299

@<SCITEGIC>MOL_PROPERTY
W(SA)
SciTegic.value.DoubleValue
2.103

@<SCITEGIC>MOL_PROPERTY
Valence
SciTegic.value.DoubleValue
15.226

@<SCITEGIC>MOL_PROPERTY
Coulomb
SciTegic.value.DoubleValue
-1.822

@<SCITEGIC>MOL_PROPERTY
VdW
SciTegic.value.DoubleValue
0.261

@<SCITEGIC>MOL_PROPERTY
VdW6
SciTegic.value.DoubleValue
-4.165

@<SCITEGIC>MOL_PROPERTY
VdW12
SciTegic.value.DoubleValue
4.426

@<SCITEGIC>MOL_PROPERTY
Bond
SciTegic.value.DoubleValue
0.044

@<SCITEGIC>MOL_PROPERTY
Angle
SciTegic.value.DoubleValue
2.229

@<SCITEGIC>MOL_PROPERTY
Pdih
SciTegic.value.DoubleValue
12.953

@<SCITEGIC>MOL_PROPERTY
Idih
SciTegic.value.DoubleValue
0.000

@<SCITEGIC>MOL_PROPERTY
Tether
SciTegic.value.DoubleValue
0.000

@<TRIPOS>MOLECULE
guest-s20_confgen4.mol2 : confsearch ligand conformer 263
          17          16           1
SMALL
USER_CHARGES
 
@<TRIPOS>ATOM
       1    C1      21.296702   16.434242   21.531329 C.2        1 MOL1         0.6132
       2    O1      20.741099   15.584503   22.199326 O.co2      1 MOL1        -0.6749
       3    O2      21.497911   16.325495   20.337789 O.co2      1 MOL1        -0.6749
       4    C2      21.774475   17.699411   22.231881 C.3        1 MOL1        -0.1955
       5    H1      22.590072   18.131955   21.640026 H          1 MOL1         0.0733
       6    H2      22.200523   17.406313   23.198363 H          1 MOL1         0.0733
       7    C3      20.657876   18.705288   22.438821 C.2        1 MOL1        -0.1395
       8    H3      19.891663   18.394224   23.146808 H          1 MOL1         0.0816
       9    C4      20.590224   19.886045   21.811169 C.2        1 MOL1        -0.1394
      10    H4      21.373614   20.161231   21.105720 H          1 MOL1         0.0816
      11    C5      19.503033   20.935908   21.967358 C.3        1 MOL1        -0.1826
      12    H5      19.963091   21.881316   22.285252 H          1 MOL1         0.0736
      13    H6      19.060311   21.139562   20.982958 H          1 MOL1         0.0736
      14    C6      18.377038   20.566222   22.958062 C.3        1 MOL1        -0.2882
      15    H7      18.777162   20.408038   23.968151 H          1 MOL1         0.0749
      16    H8      17.633429   21.371823   23.013572 H          1 MOL1         0.0749
      17    H9      17.858642   19.651548   22.641633 H          1 MOL1         0.0749
@<TRIPOS>BOND
    1     1     2    1
    2     1     3    2
    3     1     4    1
    4     4     5    1
    5     4     6    1
    6     4     7    1
    7     7     8    1
    8     7     9    2
    9     9    10    1
   10     9    11    1
   11    11    12    1
   12    11    13    1
   13    11    14    1
   14    14    15    1
   15    14    16    1
   16    14    17    1
@<TRIPOS>SUBSTRUCTURE
       1 MOL1            1 RESIDUE      1      MOL     
@<SCITEGIC>MOL_PROPERTY
VConf Rank
SciTegic.value.IntegerValue
263

@<SCITEGIC>MOL_PROPERTY
Conf_Id
SciTegic.value.IntegerValue
19

@<SCITEGIC>MOL_PROPERTY
Delta U+W
SciTegic.value.DoubleValue
-0.496

@<SCITEGIC>MOL_PROPERTY
U+W
SciTegic.value.DoubleValue
-49.923

@<SCITEGIC>MOL_PROPERTY
Grad RMS
SciTegic.value.DoubleValue
0.000000

@<SCITEGIC>MOL_PROPERTY
U
SciTegic.value.DoubleValue
13.863

@<SCITEGIC>MOL_PROPERTY
W
SciTegic.value.DoubleValue
-63.786

@<SCITEGIC>MOL_PROPERTY
W(PB)
SciTegic.value.DoubleValue
-65.856

@<SCITEGIC>MOL_PROPERTY
W(SA)
SciTegic.value.DoubleValue
2.070

@<SCITEGIC>MOL_PROPERTY
Valence
SciTegic.value.DoubleValue
14.117

@<SCITEGIC>MOL_PROPERTY
Coulomb
SciTegic.value.DoubleValue
-1.228

@<SCITEGIC>MOL_PROPERTY
VdW
SciTegic.value.DoubleValue
0.974

@<SCITEGIC>MOL_PROPERTY
VdW6
SciTegic.value.DoubleValue
-4.885

@<SCITEGIC>MOL_PROPERTY
VdW12
SciTegic.value.DoubleValue
5.859

@<SCITEGIC>MOL_PROPERTY
Bond
SciTegic.value.DoubleValue
0.094

@<SCITEGIC>MOL_PROPERTY
Angle
SciTegic.value.DoubleValue
2.818

@<SCITEGIC>MOL_PROPERTY
Pdih
SciTegic.value.DoubleValue
11.205

@<SCITEGIC>MOL_PROPERTY
Idih
SciTegic.value.DoubleValue
0.000

@<SCITEGIC>MOL_PROPERTY
Tether
SciTegic.value.DoubleValue
0.000

@<TRIPOS>MOLECULE
guest-s20_confgen4.mol2 : confsearch ligand conformer 264
          17          16           1
SMALL
USER_CHARGES
 
@<TRIPOS>ATOM
       1    C1      17.491704   20.004125   23.004906 C.2        1 MOL1         0.6132
       2    O1      17.400747   19.591339   24.144268 O.co2      1 MOL1        -0.6749
       3    O2      17.195581   21.135538   22.674425 O.co2      1 MOL1        -0.6749
       4    C2      17.993733   19.050221   21.928865 C.3        1 MOL1        -0.1955
       5    H1      17.376145   19.198650   21.035535 H          1 MOL1         0.0733
       6    H2      17.819824   18.023342   22.272272 H          1 MOL1         0.0733
       7    C3      19.456456   19.270946   21.593477 C.2        1 MOL1        -0.1395
       8    H3      19.683221   20.216359   21.101556 H          1 MOL1         0.0816
       9    C4      20.430581   18.398888   21.870625 C.2        1 MOL1        -0.1394
      10    H4      20.203957   17.455943   22.367170 H          1 MOL1         0.0816
      11    C5      21.888936   18.622217   21.537967 C.3        1 MOL1        -0.1826
      12    H5      22.298045   17.729650   21.045549 H          1 MOL1         0.0736
      13    H6      21.998208   19.452727   20.826967 H          1 MOL1         0.0736
      14    C6      22.705749   18.928084   22.808499 C.3        1 MOL1        -0.2882
      15    H7      22.645986   18.096013   23.522300 H          1 MOL1         0.0749
      16    H8      23.763033   19.089712   22.561325 H          1 MOL1         0.0749
      17    H9      22.329672   19.832253   23.305214 H          1 MOL1         0.0749
@<TRIPOS>BOND
    1     1     2    1
    2     1     3    2
    3     1     4    1
    4     4     5    1
    5     4     6    1
    6     4     7    1
    7     7     8    1
    8     7     9    2
    9     9    10    1
   10     9    11    1
   11    11    12    1
   12    11    13    1
   13    11    14    1
   14    14    15    1
   15    14    16    1
   16    14    17    1
@<TRIPOS>SUBSTRUCTURE
       1 MOL1            1 RESIDUE      1      MOL     
@<SCITEGIC>MOL_PROPERTY
VConf Rank
SciTegic.value.IntegerValue
264

@<SCITEGIC>MOL_PROPERTY
Conf_Id
SciTegic.value.IntegerValue
7

@<SCITEGIC>MOL_PROPERTY
Delta U+W
SciTegic.value.DoubleValue
-0.041

@<SCITEGIC>MOL_PROPERTY
U+W
SciTegic.value.DoubleValue
-49.468

@<SCITEGIC>MOL_PROPERTY
Grad RMS
SciTegic.value.DoubleValue
0.000000

@<SCITEGIC>MOL_PROPERTY
U
SciTegic.value.DoubleValue
14.121

@<SCITEGIC>MOL_PROPERTY
W
SciTegic.value.DoubleValue
-63.589

@<SCITEGIC>MOL_PROPERTY
W(PB)
SciTegic.value.DoubleValue
-65.660

@<SCITEGIC>MOL_PROPERTY
W(SA)
SciTegic.value.DoubleValue
2.071

@<SCITEGIC>MOL_PROPERTY
Valence
SciTegic.value.DoubleValue
15.230

@<SCITEGIC>MOL_PROPERTY
Coulomb
SciTegic.value.DoubleValue
-1.333

@<SCITEGIC>MOL_PROPERTY
VdW
SciTegic.value.DoubleValue
0.224

@<SCITEGIC>MOL_PROPERTY
VdW6
SciTegic.value.DoubleValue
-4.212

@<SCITEGIC>MOL_PROPERTY
VdW12
SciTegic.value.DoubleValue
4.436

@<SCITEGIC>MOL_PROPERTY
Bond
SciTegic.value.DoubleValue
0.044

@<SCITEGIC>MOL_PROPERTY
Angle
SciTegic.value.DoubleValue
2.230

@<SCITEGIC>MOL_PROPERTY
Pdih
SciTegic.value.DoubleValue
12.956

@<SCITEGIC>MOL_PROPERTY
Idih
SciTegic.value.DoubleValue
0.000

@<SCITEGIC>MOL_PROPERTY
Tether
SciTegic.value.DoubleValue
0.000

@<TRIPOS>MOLECULE
guest-s20_confgen4.mol2 : confsearch ligand conformer 265
          17          16           1
SMALL
USER_CHARGES
 
@<TRIPOS>ATOM
       1    C1      21.986646   21.023511   23.321661 C.2        1 MOL1         0.6132
       2    O1      21.353371   22.060786   23.317843 O.co2      1 MOL1        -0.6749
       3    O2      23.078624   20.901777   22.802192 O.co2      1 MOL1        -0.6749
       4    C2      21.391459   19.817019   24.041180 C.3        1 MOL1        -0.1955
       5    H1      20.796675   20.187853   24.884082 H          1 MOL1         0.0733
       6    H2      22.217960   19.248100   24.482708 H          1 MOL1         0.0733
       7    C3      20.538628   18.894412   23.181906 C.2        1 MOL1        -0.1395
       8    H3      20.123828   18.039846   23.715013 H          1 MOL1         0.0816
       9    C4      20.274015   19.053906   21.879778 C.2        1 MOL1        -0.1394
      10    H4      20.675498   19.900083   21.323425 H          1 MOL1         0.0816
      11    C5      19.419357   18.104673   21.069557 C.3        1 MOL1        -0.1826
      12    H5      19.933123   17.851923   20.132176 H          1 MOL1         0.0736
      13    H6      19.271497   17.160830   21.612190 H          1 MOL1         0.0736
      14    C6      18.047302   18.729917   20.750851 C.3        1 MOL1        -0.2882
      15    H7      17.432013   18.037501   20.161750 H          1 MOL1         0.0749
      16    H8      17.503431   18.967885   21.674523 H          1 MOL1         0.0749
      17    H9      18.163979   19.657047   20.174419 H          1 MOL1         0.0749
@<TRIPOS>BOND
    1     1     2    1
    2     1     3    2
    3     1     4    1
    4     4     5    1
    5     4     6    1
    6     4     7    1
    7     7     8    1
    8     7     9    2
    9     9    10    1
   10     9    11    1
   11    11    12    1
   12    11    13    1
   13    11    14    1
   14    14    15    1
   15    14    16    1
   16    14    17    1
@<TRIPOS>SUBSTRUCTURE
       1 MOL1            1 RESIDUE      1      MOL     
@<SCITEGIC>MOL_PROPERTY
VConf Rank
SciTegic.value.IntegerValue
265

@<SCITEGIC>MOL_PROPERTY
Conf_Id
SciTegic.value.IntegerValue
39

@<SCITEGIC>MOL_PROPERTY
Delta U+W
SciTegic.value.DoubleValue
-0.422

@<SCITEGIC>MOL_PROPERTY
U+W
SciTegic.value.DoubleValue
-49.849

@<SCITEGIC>MOL_PROPERTY
Grad RMS
SciTegic.value.DoubleValue
0.000000

@<SCITEGIC>MOL_PROPERTY
U
SciTegic.value.DoubleValue
14.465

@<SCITEGIC>MOL_PROPERTY
W
SciTegic.value.DoubleValue
-64.314

@<SCITEGIC>MOL_PROPERTY
W(PB)
SciTegic.value.DoubleValue
-66.406

@<SCITEGIC>MOL_PROPERTY
W(SA)
SciTegic.value.DoubleValue
2.093

@<SCITEGIC>MOL_PROPERTY
Valence
SciTegic.value.DoubleValue
14.072

@<SCITEGIC>MOL_PROPERTY
Coulomb
SciTegic.value.DoubleValue
-0.199

@<SCITEGIC>MOL_PROPERTY
VdW
SciTegic.value.DoubleValue
0.592

@<SCITEGIC>MOL_PROPERTY
VdW6
SciTegic.value.DoubleValue
-5.019

@<SCITEGIC>MOL_PROPERTY
VdW12
SciTegic.value.DoubleValue
5.611

@<SCITEGIC>MOL_PROPERTY
Bond
SciTegic.value.DoubleValue
0.085

@<SCITEGIC>MOL_PROPERTY
Angle
SciTegic.value.DoubleValue
2.748

@<SCITEGIC>MOL_PROPERTY
Pdih
SciTegic.value.DoubleValue
11.238

@<SCITEGIC>MOL_PROPERTY
Idih
SciTegic.value.DoubleValue
0.001

@<SCITEGIC>MOL_PROPERTY
Tether
SciTegic.value.DoubleValue
0.000

@<TRIPOS>MOLECULE
guest-s20_confgen4.mol2 : confsearch ligand conformer 266
          17          16           1
SMALL
USER_CHARGES
 
@<TRIPOS>ATOM
       1    C1      22.396080   21.460445   22.035462 C.2        1 MOL1         0.6132
       2    O1      23.316221   21.308790   22.814757 O.co2      1 MOL1        -0.6749
       3    O2      21.904400   22.541667   21.778502 O.co2      1 MOL1        -0.6749
       4    C2      21.833638   20.227683   21.340076 C.3        1 MOL1        -0.1955
       5    H1      22.677725   19.587495   21.058675 H          1 MOL1         0.0733
       6    H2      21.350637   20.549107   20.409465 H          1 MOL1         0.0733
       7    C3      20.865309   19.457104   22.217170 C.2        1 MOL1        -0.1395
       8    H3      21.310221   18.968951   23.083750 H          1 MOL1         0.0816
       9    C4      19.553187   19.360143   21.982305 C.2        1 MOL1        -0.1394
      10    H4      19.108479   19.850996   21.117228 H          1 MOL1         0.0816
      11    C5      18.588540   18.594456   22.860087 C.3        1 MOL1        -0.1826
      12    H5      19.054766   18.354828   23.825713 H          1 MOL1         0.0736
      13    H6      17.711758   19.218614   23.079669 H          1 MOL1         0.0736
      14    C6      18.132805   17.290710   22.176266 C.3        1 MOL1        -0.2882
      15    H7      18.991300   16.638053   21.969805 H          1 MOL1         0.0749
      16    H8      17.432590   16.739851   22.817623 H          1 MOL1         0.0749
      17    H9      17.628056   17.503217   21.224689 H          1 MOL1         0.0749
@<TRIPOS>BOND
    1     1     2    1
    2     1     3    2
    3     1     4    1
    4     4     5    1
    5     4     6    1
    6     4     7    1
    7     7     8    1
    8     7     9    2
    9     9    10    1
   10     9    11    1
   11    11    12    1
   12    11    13    1
   13    11    14    1
   14    14    15    1
   15    14    16    1
   16    14    17    1
@<TRIPOS>SUBSTRUCTURE
       1 MOL1            1 RESIDUE      1      MOL     
@<SCITEGIC>MOL_PROPERTY
VConf Rank
SciTegic.value.IntegerValue
266

@<SCITEGIC>MOL_PROPERTY
Conf_Id
SciTegic.value.IntegerValue
38

@<SCITEGIC>MOL_PROPERTY
Delta U+W
SciTegic.value.DoubleValue
0.000

@<SCITEGIC>MOL_PROPERTY
U+W
SciTegic.value.DoubleValue
-49.427

@<SCITEGIC>MOL_PROPERTY
Grad RMS
SciTegic.value.DoubleValue
0.000000

@<SCITEGIC>MOL_PROPERTY
U
SciTegic.value.DoubleValue
13.666

@<SCITEGIC>MOL_PROPERTY
W
SciTegic.value.DoubleValue
-63.093

@<SCITEGIC>MOL_PROPERTY
W(PB)
SciTegic.value.DoubleValue
-65.225

@<SCITEGIC>MOL_PROPERTY
W(SA)
SciTegic.value.DoubleValue
2.132

@<SCITEGIC>MOL_PROPERTY
Valence
SciTegic.value.DoubleValue
15.226

@<SCITEGIC>MOL_PROPERTY
Coulomb
SciTegic.value.DoubleValue
-1.822

@<SCITEGIC>MOL_PROPERTY
VdW
SciTegic.value.DoubleValue
0.261

@<SCITEGIC>MOL_PROPERTY
VdW6
SciTegic.value.DoubleValue
-4.165

@<SCITEGIC>MOL_PROPERTY
VdW12
SciTegic.value.DoubleValue
4.426

@<SCITEGIC>MOL_PROPERTY
Bond
SciTegic.value.DoubleValue
0.044

@<SCITEGIC>MOL_PROPERTY
Angle
SciTegic.value.DoubleValue
2.229

@<SCITEGIC>MOL_PROPERTY
Pdih
SciTegic.value.DoubleValue
12.953

@<SCITEGIC>MOL_PROPERTY
Idih
SciTegic.value.DoubleValue
0.000

@<SCITEGIC>MOL_PROPERTY
Tether
SciTegic.value.DoubleValue
0.000

@<TRIPOS>MOLECULE
guest-s20_confgen4.mol2 : confsearch ligand conformer 267
          17          16           1
SMALL
USER_CHARGES
 
@<TRIPOS>ATOM
       1    C1      22.557617   20.626222   23.541019 C.2        1 MOL1         0.6132
       2    O1      22.812671   20.012743   24.558569 O.co2      1 MOL1        -0.6749
       3    O2      22.643924   21.834680   23.445414 O.co2      1 MOL1        -0.6749
       4    C2      22.110515   19.839263   22.316111 C.3        1 MOL1        -0.1955
       5    H1      22.482053   18.812103   22.413800 H          1 MOL1         0.0733
       6    H2      22.602492   20.276126   21.439404 H          1 MOL1         0.0733
       7    C3      20.605073   19.857607   22.131581 C.2        1 MOL1        -0.1395
       8    H3      20.180476   20.826121   21.869095 H          1 MOL1         0.0816
       9    C4      19.817822   18.786980   22.273784 C.2        1 MOL1        -0.1394
      10    H4      20.242690   17.819507   22.539387 H          1 MOL1         0.0816
      11    C5      18.316391   18.808006   22.093269 C.3        1 MOL1        -0.1826
      12    H5      17.833828   18.306141   22.942855 H          1 MOL1         0.0736
      13    H6      17.944634   19.841907   22.085225 H          1 MOL1         0.0736
      14    C6      17.906260   18.108338   20.782804 C.3        1 MOL1        -0.2882
      15    H7      18.232391   17.059978   20.779801 H          1 MOL1         0.0749
      16    H8      16.815793   18.126144   20.657698 H          1 MOL1         0.0749
      17    H9      18.356896   18.609239   19.915841 H          1 MOL1         0.0749
@<TRIPOS>BOND
    1     1     2    1
    2     1     3    2
    3     1     4    1
    4     4     5    1
    5     4     6    1
    6     4     7    1
    7     7     8    1
    8     7     9    2
    9     9    10    1
   10     9    11    1
   11    11    12    1
   12    11    13    1
   13    11    14    1
   14    14    15    1
   15    14    16    1
   16    14    17    1
@<TRIPOS>SUBSTRUCTURE
       1 MOL1            1 RESIDUE      1      MOL     
@<SCITEGIC>MOL_PROPERTY
VConf Rank
SciTegic.value.IntegerValue
267

@<SCITEGIC>MOL_PROPERTY
Conf_Id
SciTegic.value.IntegerValue
35

@<SCITEGIC>MOL_PROPERTY
Delta U+W
SciTegic.value.DoubleValue
-0.102

@<SCITEGIC>MOL_PROPERTY
U+W
SciTegic.value.DoubleValue
-49.529

@<SCITEGIC>MOL_PROPERTY
Grad RMS
SciTegic.value.DoubleValue
0.000000

@<SCITEGIC>MOL_PROPERTY
U
SciTegic.value.DoubleValue
13.666

@<SCITEGIC>MOL_PROPERTY
W
SciTegic.value.DoubleValue
-63.195

@<SCITEGIC>MOL_PROPERTY
W(PB)
SciTegic.value.DoubleValue
-65.299

@<SCITEGIC>MOL_PROPERTY
W(SA)
SciTegic.value.DoubleValue
2.103

@<SCITEGIC>MOL_PROPERTY
Valence
SciTegic.value.DoubleValue
15.226

@<SCITEGIC>MOL_PROPERTY
Coulomb
SciTegic.value.DoubleValue
-1.822

@<SCITEGIC>MOL_PROPERTY
VdW
SciTegic.value.DoubleValue
0.261

@<SCITEGIC>MOL_PROPERTY
VdW6
SciTegic.value.DoubleValue
-4.165

@<SCITEGIC>MOL_PROPERTY
VdW12
SciTegic.value.DoubleValue
4.426

@<SCITEGIC>MOL_PROPERTY
Bond
SciTegic.value.DoubleValue
0.044

@<SCITEGIC>MOL_PROPERTY
Angle
SciTegic.value.DoubleValue
2.229

@<SCITEGIC>MOL_PROPERTY
Pdih
SciTegic.value.DoubleValue
12.953

@<SCITEGIC>MOL_PROPERTY
Idih
SciTegic.value.DoubleValue
0.000

@<SCITEGIC>MOL_PROPERTY
Tether
SciTegic.value.DoubleValue
0.000

@<TRIPOS>MOLECULE
guest-s20_confgen4.mol2 : confsearch ligand conformer 268
          17          16           1
SMALL
USER_CHARGES
 
@<TRIPOS>ATOM
       1    C1      20.809206   17.349522   19.900943 C.2        1 MOL1         0.6132
       2    O1      21.919991   17.591028   19.471057 O.co2      1 MOL1        -0.6749
       3    O2      20.388470   16.223741   20.081075 O.co2      1 MOL1        -0.6749
       4    C2      19.892751   18.522908   20.221831 C.3        1 MOL1        -0.1955
       5    H1      18.855226   18.171251   20.172190 H          1 MOL1         0.0733
       6    H2      20.015951   19.270282   19.429515 H          1 MOL1         0.0733
       7    C3      20.194545   19.142490   21.573291 C.2        1 MOL1        -0.1395
       8    H3      21.155089   19.650977   21.635621 H          1 MOL1         0.0816
       9    C4      19.368181   19.080315   22.624942 C.2        1 MOL1        -0.1394
      10    H4      18.416724   18.558742   22.526076 H          1 MOL1         0.0816
      11    C5      19.607466   19.672775   24.003464 C.3        1 MOL1        -0.1826
      12    H5      18.787472   20.363542   24.242118 H          1 MOL1         0.0736
      13    H6      19.544998   18.870982   24.751626 H          1 MOL1         0.0736
      14    C6      20.953162   20.412480   24.170700 C.3        1 MOL1        -0.2882
      15    H7      21.027900   21.257030   23.473168 H          1 MOL1         0.0749
      16    H8      21.050452   20.808754   25.189783 H          1 MOL1         0.0749
      17    H9      21.799282   19.736303   23.990822 H          1 MOL1         0.0749
@<TRIPOS>BOND
    1     1     2    1
    2     1     3    2
    3     1     4    1
    4     4     5    1
    5     4     6    1
    6     4     7    1
    7     7     8    1
    8     7     9    2
    9     9    10    1
   10     9    11    1
   11    11    12    1
   12    11    13    1
   13    11    14    1
   14    14    15    1
   15    14    16    1
   16    14    17    1
@<TRIPOS>SUBSTRUCTURE
       1 MOL1            1 RESIDUE      1      MOL     
@<SCITEGIC>MOL_PROPERTY
VConf Rank
SciTegic.value.IntegerValue
268

@<SCITEGIC>MOL_PROPERTY
Conf_Id
SciTegic.value.IntegerValue
19

@<SCITEGIC>MOL_PROPERTY
Delta U+W
SciTegic.value.DoubleValue
-0.496

@<SCITEGIC>MOL_PROPERTY
U+W
SciTegic.value.DoubleValue
-49.923

@<SCITEGIC>MOL_PROPERTY
Grad RMS
SciTegic.value.DoubleValue
0.000000

@<SCITEGIC>MOL_PROPERTY
U
SciTegic.value.DoubleValue
13.863

@<SCITEGIC>MOL_PROPERTY
W
SciTegic.value.DoubleValue
-63.786

@<SCITEGIC>MOL_PROPERTY
W(PB)
SciTegic.value.DoubleValue
-65.856

@<SCITEGIC>MOL_PROPERTY
W(SA)
SciTegic.value.DoubleValue
2.070

@<SCITEGIC>MOL_PROPERTY
Valence
SciTegic.value.DoubleValue
14.117

@<SCITEGIC>MOL_PROPERTY
Coulomb
SciTegic.value.DoubleValue
-1.228

@<SCITEGIC>MOL_PROPERTY
VdW
SciTegic.value.DoubleValue
0.974

@<SCITEGIC>MOL_PROPERTY
VdW6
SciTegic.value.DoubleValue
-4.885

@<SCITEGIC>MOL_PROPERTY
VdW12
SciTegic.value.DoubleValue
5.859

@<SCITEGIC>MOL_PROPERTY
Bond
SciTegic.value.DoubleValue
0.094

@<SCITEGIC>MOL_PROPERTY
Angle
SciTegic.value.DoubleValue
2.818

@<SCITEGIC>MOL_PROPERTY
Pdih
SciTegic.value.DoubleValue
11.205

@<SCITEGIC>MOL_PROPERTY
Idih
SciTegic.value.DoubleValue
0.000

@<SCITEGIC>MOL_PROPERTY
Tether
SciTegic.value.DoubleValue
0.000

@<TRIPOS>MOLECULE
guest-s20_confgen4.mol2 : confsearch ligand conformer 269
          17          16           1
SMALL
USER_CHARGES
 
@<TRIPOS>ATOM
       1    C1      19.751527   17.127825   20.042931 C.2        1 MOL1         0.6132
       2    O1      20.881723   16.732962   19.834242 O.co2      1 MOL1        -0.6749
       3    O2      18.790817   16.390878   20.147569 O.co2      1 MOL1        -0.6749
       4    C2      19.522411   18.628225   20.169947 C.3        1 MOL1        -0.1955
       5    H1      18.602645   18.873443   19.626455 H          1 MOL1         0.0733
       6    H2      20.344113   19.145264   19.659919 H          1 MOL1         0.0733
       7    C3      19.409906   19.078417   21.614050 C.2        1 MOL1        -0.1395
       8    H3      18.525098   18.726096   22.143391 H          1 MOL1         0.0816
       9    C4      20.311846   19.845242   22.234292 C.2        1 MOL1        -0.1394
      10    H4      21.199000   20.192994   21.706006 H          1 MOL1         0.0816
      11    C5      20.199223   20.290608   23.675229 C.3        1 MOL1        -0.1826
      12    H5      20.386202   21.370718   23.745399 H          1 MOL1         0.0736
      13    H6      19.180762   20.121709   24.051287 H          1 MOL1         0.0736
      14    C6      21.203806   19.536114   24.567722 C.3        1 MOL1        -0.2882
      15    H7      22.234919   19.718599   24.237673 H          1 MOL1         0.0749
      16    H8      21.117496   19.862787   25.612185 H          1 MOL1         0.0749
      17    H9      21.020083   18.454128   24.532625 H          1 MOL1         0.0749
@<TRIPOS>BOND
    1     1     2    1
    2     1     3    2
    3     1     4    1
    4     4     5    1
    5     4     6    1
    6     4     7    1
    7     7     8    1
    8     7     9    2
    9     9    10    1
   10     9    11    1
   11    11    12    1
   12    11    13    1
   13    11    14    1
   14    14    15    1
   15    14    16    1
   16    14    17    1
@<TRIPOS>SUBSTRUCTURE
       1 MOL1            1 RESIDUE      1      MOL     
@<SCITEGIC>MOL_PROPERTY
VConf Rank
SciTegic.value.IntegerValue
269

@<SCITEGIC>MOL_PROPERTY
Conf_Id
SciTegic.value.IntegerValue
7

@<SCITEGIC>MOL_PROPERTY
Delta U+W
SciTegic.value.DoubleValue
-0.041

@<SCITEGIC>MOL_PROPERTY
U+W
SciTegic.value.DoubleValue
-49.468

@<SCITEGIC>MOL_PROPERTY
Grad RMS
SciTegic.value.DoubleValue
0.000000

@<SCITEGIC>MOL_PROPERTY
U
SciTegic.value.DoubleValue
14.121

@<SCITEGIC>MOL_PROPERTY
W
SciTegic.value.DoubleValue
-63.589

@<SCITEGIC>MOL_PROPERTY
W(PB)
SciTegic.value.DoubleValue
-65.660

@<SCITEGIC>MOL_PROPERTY
W(SA)
SciTegic.value.DoubleValue
2.071

@<SCITEGIC>MOL_PROPERTY
Valence
SciTegic.value.DoubleValue
15.230

@<SCITEGIC>MOL_PROPERTY
Coulomb
SciTegic.value.DoubleValue
-1.333

@<SCITEGIC>MOL_PROPERTY
VdW
SciTegic.value.DoubleValue
0.224

@<SCITEGIC>MOL_PROPERTY
VdW6
SciTegic.value.DoubleValue
-4.212

@<SCITEGIC>MOL_PROPERTY
VdW12
SciTegic.value.DoubleValue
4.436

@<SCITEGIC>MOL_PROPERTY
Bond
SciTegic.value.DoubleValue
0.044

@<SCITEGIC>MOL_PROPERTY
Angle
SciTegic.value.DoubleValue
2.230

@<SCITEGIC>MOL_PROPERTY
Pdih
SciTegic.value.DoubleValue
12.956

@<SCITEGIC>MOL_PROPERTY
Idih
SciTegic.value.DoubleValue
0.000

@<SCITEGIC>MOL_PROPERTY
Tether
SciTegic.value.DoubleValue
0.000

@<TRIPOS>MOLECULE
guest-s20_confgen4.mol2 : confsearch ligand conformer 270
          17          16           1
SMALL
USER_CHARGES
 
@<TRIPOS>ATOM
       1    C1      19.321526   17.840468   24.484737 C.2        1 MOL1         0.6132
       2    O1      18.250584   18.364731   24.719732 O.co2      1 MOL1        -0.6749
       3    O2      20.209374   17.729355   25.307210 O.co2      1 MOL1        -0.6749
       4    C2      19.553593   17.266070   23.090538 C.3        1 MOL1        -0.1955
       5    H1      18.588971   16.913415   22.707254 H          1 MOL1         0.0733
       6    H2      20.180852   16.373178   23.195459 H          1 MOL1         0.0733
       7    C3      20.185035   18.217912   22.084479 C.2        1 MOL1        -0.1395
       8    H3      20.341929   17.787827   21.096068 H          1 MOL1         0.0816
       9    C4      20.541722   19.486414   22.318298 C.2        1 MOL1        -0.1394
      10    H4      20.394923   19.940969   23.297361 H          1 MOL1         0.0816
      11    C5      21.168596   20.391897   21.281442 C.3        1 MOL1        -0.1826
      12    H5      22.050586   20.888541   21.708008 H          1 MOL1         0.0736
      13    H6      21.521880   19.806200   20.421614 H          1 MOL1         0.0736
      14    C6      20.164744   21.455649   20.795901 C.3        1 MOL1        -0.2882
      15    H7      20.625281   22.110591   20.044890 H          1 MOL1         0.0749
      16    H8      19.284447   20.982152   20.341511 H          1 MOL1         0.0749
      17    H9      19.823362   22.081701   21.630751 H          1 MOL1         0.0749
@<TRIPOS>BOND
    1     1     2    1
    2     1     3    2
    3     1     4    1
    4     4     5    1
    5     4     6    1
    6     4     7    1
    7     7     8    1
    8     7     9    2
    9     9    10    1
   10     9    11    1
   11    11    12    1
   12    11    13    1
   13    11    14    1
   14    14    15    1
   15    14    16    1
   16    14    17    1
@<TRIPOS>SUBSTRUCTURE
       1 MOL1            1 RESIDUE      1      MOL     
@<SCITEGIC>MOL_PROPERTY
VConf Rank
SciTegic.value.IntegerValue
270

@<SCITEGIC>MOL_PROPERTY
Conf_Id
SciTegic.value.IntegerValue
39

@<SCITEGIC>MOL_PROPERTY
Delta U+W
SciTegic.value.DoubleValue
-0.422

@<SCITEGIC>MOL_PROPERTY
U+W
SciTegic.value.DoubleValue
-49.849

@<SCITEGIC>MOL_PROPERTY
Grad RMS
SciTegic.value.DoubleValue
0.000000

@<SCITEGIC>MOL_PROPERTY
U
SciTegic.value.DoubleValue
14.465

@<SCITEGIC>MOL_PROPERTY
W
SciTegic.value.DoubleValue
-64.314

@<SCITEGIC>MOL_PROPERTY
W(PB)
SciTegic.value.DoubleValue
-66.406

@<SCITEGIC>MOL_PROPERTY
W(SA)
SciTegic.value.DoubleValue
2.093

@<SCITEGIC>MOL_PROPERTY
Valence
SciTegic.value.DoubleValue
14.072

@<SCITEGIC>MOL_PROPERTY
Coulomb
SciTegic.value.DoubleValue
-0.199

@<SCITEGIC>MOL_PROPERTY
VdW
SciTegic.value.DoubleValue
0.592

@<SCITEGIC>MOL_PROPERTY
VdW6
SciTegic.value.DoubleValue
-5.019

@<SCITEGIC>MOL_PROPERTY
VdW12
SciTegic.value.DoubleValue
5.611

@<SCITEGIC>MOL_PROPERTY
Bond
SciTegic.value.DoubleValue
0.085

@<SCITEGIC>MOL_PROPERTY
Angle
SciTegic.value.DoubleValue
2.748

@<SCITEGIC>MOL_PROPERTY
Pdih
SciTegic.value.DoubleValue
11.238

@<SCITEGIC>MOL_PROPERTY
Idih
SciTegic.value.DoubleValue
0.001

@<SCITEGIC>MOL_PROPERTY
Tether
SciTegic.value.DoubleValue
0.000

@<TRIPOS>MOLECULE
guest-s20_confgen4.mol2 : confsearch ligand conformer 271
          17          16           1
SMALL
USER_CHARGES
 
@<TRIPOS>ATOM
       1    C1      22.624069   17.429531   22.645170 C.2        1 MOL1         0.6132
       2    O1      22.833172   16.546395   21.836895 O.co2      1 MOL1        -0.6749
       3    O2      22.764709   17.290161   23.844176 O.co2      1 MOL1        -0.6749
       4    C2      22.166114   18.785555   22.124517 C.3        1 MOL1        -0.1955
       5    H1      22.743027   19.009182   21.219713 H          1 MOL1         0.0733
       6    H2      22.430010   19.546003   22.869311 H          1 MOL1         0.0733
       7    C3      20.681210   18.818283   21.816729 C.2        1 MOL1        -0.1395
       8    H3      20.367342   18.203454   20.973714 H          1 MOL1         0.0816
       9    C4      19.786915   19.533633   22.505741 C.2        1 MOL1        -0.1394
      10    H4      20.101019   20.145886   23.350457 H          1 MOL1         0.0816
      11    C5      18.306081   19.562091   22.199733 C.3        1 MOL1        -0.1826
      12    H5      18.037872   18.740368   21.521458 H          1 MOL1         0.0736
      13    H6      17.733477   19.407319   23.124236 H          1 MOL1         0.0736
      14    C6      17.898139   20.904143   21.561342 C.3        1 MOL1        -0.2882
      15    H7      18.439862   21.069025   20.620623 H          1 MOL1         0.0749
      16    H8      16.822579   20.919077   21.342181 H          1 MOL1         0.0749
      17    H9      18.120116   21.742003   22.235245 H          1 MOL1         0.0749
@<TRIPOS>BOND
    1     1     2    1
    2     1     3    2
    3     1     4    1
    4     4     5    1
    5     4     6    1
    6     4     7    1
    7     7     8    1
    8     7     9    2
    9     9    10    1
   10     9    11    1
   11    11    12    1
   12    11    13    1
   13    11    14    1
   14    14    15    1
   15    14    16    1
   16    14    17    1
@<TRIPOS>SUBSTRUCTURE
       1 MOL1            1 RESIDUE      1      MOL     
@<SCITEGIC>MOL_PROPERTY
VConf Rank
SciTegic.value.IntegerValue
271

@<SCITEGIC>MOL_PROPERTY
Conf_Id
SciTegic.value.IntegerValue
38

@<SCITEGIC>MOL_PROPERTY
Delta U+W
SciTegic.value.DoubleValue
0.000

@<SCITEGIC>MOL_PROPERTY
U+W
SciTegic.value.DoubleValue
-49.427

@<SCITEGIC>MOL_PROPERTY
Grad RMS
SciTegic.value.DoubleValue
0.000000

@<SCITEGIC>MOL_PROPERTY
U
SciTegic.value.DoubleValue
13.666

@<SCITEGIC>MOL_PROPERTY
W
SciTegic.value.DoubleValue
-63.093

@<SCITEGIC>MOL_PROPERTY
W(PB)
SciTegic.value.DoubleValue
-65.225

@<SCITEGIC>MOL_PROPERTY
W(SA)
SciTegic.value.DoubleValue
2.132

@<SCITEGIC>MOL_PROPERTY
Valence
SciTegic.value.DoubleValue
15.226

@<SCITEGIC>MOL_PROPERTY
Coulomb
SciTegic.value.DoubleValue
-1.822

@<SCITEGIC>MOL_PROPERTY
VdW
SciTegic.value.DoubleValue
0.261

@<SCITEGIC>MOL_PROPERTY
VdW6
SciTegic.value.DoubleValue
-4.165

@<SCITEGIC>MOL_PROPERTY
VdW12
SciTegic.value.DoubleValue
4.426

@<SCITEGIC>MOL_PROPERTY
Bond
SciTegic.value.DoubleValue
0.044

@<SCITEGIC>MOL_PROPERTY
Angle
SciTegic.value.DoubleValue
2.229

@<SCITEGIC>MOL_PROPERTY
Pdih
SciTegic.value.DoubleValue
12.953

@<SCITEGIC>MOL_PROPERTY
Idih
SciTegic.value.DoubleValue
0.000

@<SCITEGIC>MOL_PROPERTY
Tether
SciTegic.value.DoubleValue
0.000

@<TRIPOS>MOLECULE
guest-s20_confgen4.mol2 : confsearch ligand conformer 272
          17          16           1
SMALL
USER_CHARGES
 
@<TRIPOS>ATOM
       1    C1      22.215505   20.715355   20.264920 C.2        1 MOL1         0.6132
       2    O1      23.090045   19.924398   19.971009 O.co2      1 MOL1        -0.6749
       3    O2      22.422041   21.890657   20.495072 O.co2      1 MOL1        -0.6749
       4    C2      20.781145   20.209495   20.344420 C.3        1 MOL1        -0.1955
       5    H1      20.700354   19.308207   19.724910 H          1 MOL1         0.0733
       6    H2      20.132681   20.968669   19.892031 H          1 MOL1         0.0733
       7    C3      20.341529   19.931067   21.769187 C.2        1 MOL1        -0.1395
       8    H3      20.241648   20.810073   22.405248 H          1 MOL1         0.0816
       9    C4      20.087210   18.711019   22.251921 C.2        1 MOL1        -0.1394
      10    H4      20.190362   17.832203   21.616230 H          1 MOL1         0.0816
      11    C5      19.652772   18.434931   23.674019 C.3        1 MOL1        -0.1826
      12    H5      20.261784   17.624520   24.096952 H          1 MOL1         0.0736
      13    H6      19.820793   19.318146   24.305620 H          1 MOL1         0.0736
      14    C6      18.163611   18.042364   23.731891 C.3        1 MOL1        -0.2882
      15    H7      17.973543   17.138157   23.138838 H          1 MOL1         0.0749
      16    H8      17.854412   17.842586   24.766092 H          1 MOL1         0.0749
      17    H9      17.532091   18.849259   23.337298 H          1 MOL1         0.0749
@<TRIPOS>BOND
    1     1     2    1
    2     1     3    2
    3     1     4    1
    4     4     5    1
    5     4     6    1
    6     4     7    1
    7     7     8    1
    8     7     9    2
    9     9    10    1
   10     9    11    1
   11    11    12    1
   12    11    13    1
   13    11    14    1
   14    14    15    1
   15    14    16    1
   16    14    17    1
@<TRIPOS>SUBSTRUCTURE
       1 MOL1            1 RESIDUE      1      MOL     
@<SCITEGIC>MOL_PROPERTY
VConf Rank
SciTegic.value.IntegerValue
272

@<SCITEGIC>MOL_PROPERTY
Conf_Id
SciTegic.value.IntegerValue
35

@<SCITEGIC>MOL_PROPERTY
Delta U+W
SciTegic.value.DoubleValue
-0.102

@<SCITEGIC>MOL_PROPERTY
U+W
SciTegic.value.DoubleValue
-49.529

@<SCITEGIC>MOL_PROPERTY
Grad RMS
SciTegic.value.DoubleValue
0.000000

@<SCITEGIC>MOL_PROPERTY
U
SciTegic.value.DoubleValue
13.666

@<SCITEGIC>MOL_PROPERTY
W
SciTegic.value.DoubleValue
-63.195

@<SCITEGIC>MOL_PROPERTY
W(PB)
SciTegic.value.DoubleValue
-65.299

@<SCITEGIC>MOL_PROPERTY
W(SA)
SciTegic.value.DoubleValue
2.103

@<SCITEGIC>MOL_PROPERTY
Valence
SciTegic.value.DoubleValue
15.226

@<SCITEGIC>MOL_PROPERTY
Coulomb
SciTegic.value.DoubleValue
-1.822

@<SCITEGIC>MOL_PROPERTY
VdW
SciTegic.value.DoubleValue
0.261

@<SCITEGIC>MOL_PROPERTY
VdW6
SciTegic.value.DoubleValue
-4.165

@<SCITEGIC>MOL_PROPERTY
VdW12
SciTegic.value.DoubleValue
4.426

@<SCITEGIC>MOL_PROPERTY
Bond
SciTegic.value.DoubleValue
0.044

@<SCITEGIC>MOL_PROPERTY
Angle
SciTegic.value.DoubleValue
2.229

@<SCITEGIC>MOL_PROPERTY
Pdih
SciTegic.value.DoubleValue
12.953

@<SCITEGIC>MOL_PROPERTY
Idih
SciTegic.value.DoubleValue
0.000

@<SCITEGIC>MOL_PROPERTY
Tether
SciTegic.value.DoubleValue
0.000

@<TRIPOS>MOLECULE
guest-s20_confgen4.mol2 : confsearch ligand conformer 273
          17          16           1
SMALL
USER_CHARGES
 
@<TRIPOS>ATOM
       1    C1      21.483983   17.700919   24.475143 C.2        1 MOL1         0.6132
       2    O1      22.124882   18.489852   25.141330 O.co2      1 MOL1        -0.6749
       3    O2      20.738432   16.868357   24.952473 O.co2      1 MOL1        -0.6749
       4    C2      21.631906   17.753991   22.960219 C.3        1 MOL1        -0.1955
       5    H1      21.366833   16.770017   22.555105 H          1 MOL1         0.0733
       6    H2      22.691419   17.919176   22.732938 H          1 MOL1         0.0733
       7    C3      20.788284   18.847495   22.332561 C.2        1 MOL1        -0.1395
       8    H3      21.105684   19.860658   22.573077 H          1 MOL1         0.0816
       9    C4      19.729402   18.615859   21.546543 C.2        1 MOL1        -0.1394
      10    H4      19.438905   17.588017   21.331512 H          1 MOL1         0.0816
      11    C5      18.840833   19.659046   20.890194 C.3        1 MOL1        -0.1826
      12    H5      18.846059   19.499345   19.803468 H          1 MOL1         0.0736
      13    H6      17.802461   19.493354   21.207764 H          1 MOL1         0.0736
      14    C6      19.228776   21.124834   21.185141 C.3        1 MOL1        -0.2882
      15    H7      20.244892   21.342435   20.830797 H          1 MOL1         0.0749
      16    H8      18.541296   21.814355   20.678229 H          1 MOL1         0.0749
      17    H9      19.182819   21.335410   22.261726 H          1 MOL1         0.0749
@<TRIPOS>BOND
    1     1     2    1
    2     1     3    2
    3     1     4    1
    4     4     5    1
    5     4     6    1
    6     4     7    1
    7     7     8    1
    8     7     9    2
    9     9    10    1
   10     9    11    1
   11    11    12    1
   12    11    13    1
   13    11    14    1
   14    14    15    1
   15    14    16    1
   16    14    17    1
@<TRIPOS>SUBSTRUCTURE
       1 MOL1            1 RESIDUE      1      MOL     
@<SCITEGIC>MOL_PROPERTY
VConf Rank
SciTegic.value.IntegerValue
273

@<SCITEGIC>MOL_PROPERTY
Conf_Id
SciTegic.value.IntegerValue
19

@<SCITEGIC>MOL_PROPERTY
Delta U+W
SciTegic.value.DoubleValue
-0.496

@<SCITEGIC>MOL_PROPERTY
U+W
SciTegic.value.DoubleValue
-49.923

@<SCITEGIC>MOL_PROPERTY
Grad RMS
SciTegic.value.DoubleValue
0.000000

@<SCITEGIC>MOL_PROPERTY
U
SciTegic.value.DoubleValue
13.863

@<SCITEGIC>MOL_PROPERTY
W
SciTegic.value.DoubleValue
-63.786

@<SCITEGIC>MOL_PROPERTY
W(PB)
SciTegic.value.DoubleValue
-65.856

@<SCITEGIC>MOL_PROPERTY
W(SA)
SciTegic.value.DoubleValue
2.070

@<SCITEGIC>MOL_PROPERTY
Valence
SciTegic.value.DoubleValue
14.117

@<SCITEGIC>MOL_PROPERTY
Coulomb
SciTegic.value.DoubleValue
-1.228

@<SCITEGIC>MOL_PROPERTY
VdW
SciTegic.value.DoubleValue
0.974

@<SCITEGIC>MOL_PROPERTY
VdW6
SciTegic.value.DoubleValue
-4.885

@<SCITEGIC>MOL_PROPERTY
VdW12
SciTegic.value.DoubleValue
5.859

@<SCITEGIC>MOL_PROPERTY
Bond
SciTegic.value.DoubleValue
0.094

@<SCITEGIC>MOL_PROPERTY
Angle
SciTegic.value.DoubleValue
2.818

@<SCITEGIC>MOL_PROPERTY
Pdih
SciTegic.value.DoubleValue
11.205

@<SCITEGIC>MOL_PROPERTY
Idih
SciTegic.value.DoubleValue
0.000

@<SCITEGIC>MOL_PROPERTY
Tether
SciTegic.value.DoubleValue
0.000

@<TRIPOS>MOLECULE
guest-s20_confgen4.mol2 : confsearch ligand conformer 274
          17          16           1
SMALL
USER_CHARGES
 
@<TRIPOS>ATOM
       1    C1      20.622115   16.447652   20.964303 C.2        1 MOL1         0.6132
       2    O1      20.636578   16.724528   19.781111 O.co2      1 MOL1        -0.6749
       3    O2      21.447512   15.732280   21.497186 O.co2      1 MOL1        -0.6749
       4    C2      19.503510   17.018390   21.826166 C.3        1 MOL1        -0.1955
       5    H1      19.162652   16.224538   22.500777 H          1 MOL1         0.0733
       6    H2      18.659497   17.267977   21.171947 H          1 MOL1         0.0733
       7    C3      19.946802   18.227882   22.627031 C.2        1 MOL1        -0.1395
       8    H3      20.677475   18.025161   23.409487 H          1 MOL1         0.0816
       9    C4      19.504765   19.471446   22.416396 C.2        1 MOL1        -0.1394
      10    H4      18.778006   19.674378   21.630458 H          1 MOL1         0.0816
      11    C5      19.950290   20.676575   23.214211 C.3        1 MOL1        -0.1826
      12    H5      19.072915   21.255372   23.533163 H          1 MOL1         0.0736
      13    H6      20.469740   20.360991   24.129519 H          1 MOL1         0.0736
      14    C6      20.884758   21.576321   22.382216 C.3        1 MOL1        -0.2882
      15    H7      20.377262   21.938627   21.478552 H          1 MOL1         0.0749
      16    H8      21.205350   22.448939   22.966018 H          1 MOL1         0.0749
      17    H9      21.782352   21.024952   22.072379 H          1 MOL1         0.0749
@<TRIPOS>BOND
    1     1     2    1
    2     1     3    2
    3     1     4    1
    4     4     5    1
    5     4     6    1
    6     4     7    1
    7     7     8    1
    8     7     9    2
    9     9    10    1
   10     9    11    1
   11    11    12    1
   12    11    13    1
   13    11    14    1
   14    14    15    1
   15    14    16    1
   16    14    17    1
@<TRIPOS>SUBSTRUCTURE
       1 MOL1            1 RESIDUE      1      MOL     
@<SCITEGIC>MOL_PROPERTY
VConf Rank
SciTegic.value.IntegerValue
274

@<SCITEGIC>MOL_PROPERTY
Conf_Id
SciTegic.value.IntegerValue
7

@<SCITEGIC>MOL_PROPERTY
Delta U+W
SciTegic.value.DoubleValue
-0.041

@<SCITEGIC>MOL_PROPERTY
U+W
SciTegic.value.DoubleValue
-49.468

@<SCITEGIC>MOL_PROPERTY
Grad RMS
SciTegic.value.DoubleValue
0.000000

@<SCITEGIC>MOL_PROPERTY
U
SciTegic.value.DoubleValue
14.121

@<SCITEGIC>MOL_PROPERTY
W
SciTegic.value.DoubleValue
-63.589

@<SCITEGIC>MOL_PROPERTY
W(PB)
SciTegic.value.DoubleValue
-65.660

@<SCITEGIC>MOL_PROPERTY
W(SA)
SciTegic.value.DoubleValue
2.071

@<SCITEGIC>MOL_PROPERTY
Valence
SciTegic.value.DoubleValue
15.230

@<SCITEGIC>MOL_PROPERTY
Coulomb
SciTegic.value.DoubleValue
-1.333

@<SCITEGIC>MOL_PROPERTY
VdW
SciTegic.value.DoubleValue
0.224

@<SCITEGIC>MOL_PROPERTY
VdW6
SciTegic.value.DoubleValue
-4.212

@<SCITEGIC>MOL_PROPERTY
VdW12
SciTegic.value.DoubleValue
4.436

@<SCITEGIC>MOL_PROPERTY
Bond
SciTegic.value.DoubleValue
0.044

@<SCITEGIC>MOL_PROPERTY
Angle
SciTegic.value.DoubleValue
2.230

@<SCITEGIC>MOL_PROPERTY
Pdih
SciTegic.value.DoubleValue
12.956

@<SCITEGIC>MOL_PROPERTY
Idih
SciTegic.value.DoubleValue
0.000

@<SCITEGIC>MOL_PROPERTY
Tether
SciTegic.value.DoubleValue
0.000

@<TRIPOS>MOLECULE
guest-s20_confgen4.mol2 : confsearch ligand conformer 275
          17          16           1
SMALL
USER_CHARGES
 
@<TRIPOS>ATOM
       1    C1      21.253343   18.673578   19.815571 C.2        1 MOL1         0.6132
       2    O1      20.911132   17.515069   19.682375 O.co2      1 MOL1        -0.6749
       3    O2      22.407615   19.045834   19.737057 O.co2      1 MOL1        -0.6749
       4    C2      20.173013   19.721030   20.067179 C.3        1 MOL1        -0.1955
       5    H1      19.261975   19.395005   19.551925 H          1 MOL1         0.0733
       6    H2      20.483340   20.648850   19.572641 H          1 MOL1         0.0733
       7    C3      19.858844   20.002735   21.529649 C.2        1 MOL1        -0.1395
       8    H3      19.085238   20.753355   21.686644 H          1 MOL1         0.0816
       9    C4      20.437903   19.418574   22.585321 C.2        1 MOL1        -0.1394
      10    H4      21.213299   18.664386   22.456113 H          1 MOL1         0.0816
      11    C5      20.089391   19.736333   24.022509 C.3        1 MOL1        -0.1826
      12    H5      21.009623   19.902295   24.598833 H          1 MOL1         0.0736
      13    H6      19.508648   20.667158   24.081283 H          1 MOL1         0.0736
      14    C6      19.282006   18.590348   24.662732 C.3        1 MOL1        -0.2882
      15    H7      19.033129   18.825634   25.705690 H          1 MOL1         0.0749
      16    H8      18.343641   18.422873   24.117740 H          1 MOL1         0.0749
      17    H9      19.855266   17.654017   24.651996 H          1 MOL1         0.0749
@<TRIPOS>BOND
    1     1     2    1
    2     1     3    2
    3     1     4    1
    4     4     5    1
    5     4     6    1
    6     4     7    1
    7     7     8    1
    8     7     9    2
    9     9    10    1
   10     9    11    1
   11    11    12    1
   12    11    13    1
   13    11    14    1
   14    14    15    1
   15    14    16    1
   16    14    17    1
@<TRIPOS>SUBSTRUCTURE
       1 MOL1            1 RESIDUE      1      MOL     
@<SCITEGIC>MOL_PROPERTY
VConf Rank
SciTegic.value.IntegerValue
275

@<SCITEGIC>MOL_PROPERTY
Conf_Id
SciTegic.value.IntegerValue
39

@<SCITEGIC>MOL_PROPERTY
Delta U+W
SciTegic.value.DoubleValue
-0.422

@<SCITEGIC>MOL_PROPERTY
U+W
SciTegic.value.DoubleValue
-49.849

@<SCITEGIC>MOL_PROPERTY
Grad RMS
SciTegic.value.DoubleValue
0.000000

@<SCITEGIC>MOL_PROPERTY
U
SciTegic.value.DoubleValue
14.465

@<SCITEGIC>MOL_PROPERTY
W
SciTegic.value.DoubleValue
-64.314

@<SCITEGIC>MOL_PROPERTY
W(PB)
SciTegic.value.DoubleValue
-66.406

@<SCITEGIC>MOL_PROPERTY
W(SA)
SciTegic.value.DoubleValue
2.093

@<SCITEGIC>MOL_PROPERTY
Valence
SciTegic.value.DoubleValue
14.072

@<SCITEGIC>MOL_PROPERTY
Coulomb
SciTegic.value.DoubleValue
-0.199

@<SCITEGIC>MOL_PROPERTY
VdW
SciTegic.value.DoubleValue
0.592

@<SCITEGIC>MOL_PROPERTY
VdW6
SciTegic.value.DoubleValue
-5.019

@<SCITEGIC>MOL_PROPERTY
VdW12
SciTegic.value.DoubleValue
5.611

@<SCITEGIC>MOL_PROPERTY
Bond
SciTegic.value.DoubleValue
0.085

@<SCITEGIC>MOL_PROPERTY
Angle
SciTegic.value.DoubleValue
2.748

@<SCITEGIC>MOL_PROPERTY
Pdih
SciTegic.value.DoubleValue
11.238

@<SCITEGIC>MOL_PROPERTY
Idih
SciTegic.value.DoubleValue
0.001

@<SCITEGIC>MOL_PROPERTY
Tether
SciTegic.value.DoubleValue
0.000

@<TRIPOS>MOLECULE
guest-s20_confgen4.mol2 : confsearch ligand conformer 276
          17          16           1
SMALL
USER_CHARGES
 
@<TRIPOS>ATOM
       1    C1      22.128947   16.903394   22.670412 C.2        1 MOL1         0.6132
       2    O1      23.109837   17.172881   23.335388 O.co2      1 MOL1        -0.6749
       3    O2      22.153016   16.163451   21.706710 O.co2      1 MOL1        -0.6749
       4    C2      20.797049   17.523588   23.071673 C.3        1 MOL1        -0.1955
       5    H1      20.730489   17.495536   24.165424 H          1 MOL1         0.0733
       6    H2      19.991921   16.887333   22.684905 H          1 MOL1         0.0733
       7    C3      20.648005   18.949802   22.577259 C.2        1 MOL1        -0.1395
       8    H3      21.314541   19.675360   23.042551 H          1 MOL1         0.0816
       9    C4      19.776820   19.332186   21.638618 C.2        1 MOL1        -0.1394
      10    H4      19.112674   18.605619   21.171637 H          1 MOL1         0.0816
      11    C5      19.632219   20.754132   21.144166 C.3        1 MOL1        -0.1826
      12    H5      20.490427   21.361315   21.463587 H          1 MOL1         0.0736
      13    H6      19.629001   20.766138   20.045813 H          1 MOL1         0.0736
      14    C6      18.331743   21.393376   21.668750 C.3        1 MOL1        -0.2882
      15    H7      18.323582   21.415850   22.766488 H          1 MOL1         0.0749
      16    H8      18.232059   22.424727   21.306171 H          1 MOL1         0.0749
      17    H9      17.453384   20.827421   21.331690 H          1 MOL1         0.0749
@<TRIPOS>BOND
    1     1     2    1
    2     1     3    2
    3     1     4    1
    4     4     5    1
    5     4     6    1
    6     4     7    1
    7     7     8    1
    8     7     9    2
    9     9    10    1
   10     9    11    1
   11    11    12    1
   12    11    13    1
   13    11    14    1
   14    14    15    1
   15    14    16    1
   16    14    17    1
@<TRIPOS>SUBSTRUCTURE
       1 MOL1            1 RESIDUE      1      MOL     
@<SCITEGIC>MOL_PROPERTY
VConf Rank
SciTegic.value.IntegerValue
276

@<SCITEGIC>MOL_PROPERTY
Conf_Id
SciTegic.value.IntegerValue
38

@<SCITEGIC>MOL_PROPERTY
Delta U+W
SciTegic.value.DoubleValue
0.000

@<SCITEGIC>MOL_PROPERTY
U+W
SciTegic.value.DoubleValue
-49.427

@<SCITEGIC>MOL_PROPERTY
Grad RMS
SciTegic.value.DoubleValue
0.000000

@<SCITEGIC>MOL_PROPERTY
U
SciTegic.value.DoubleValue
13.666

@<SCITEGIC>MOL_PROPERTY
W
SciTegic.value.DoubleValue
-63.093

@<SCITEGIC>MOL_PROPERTY
W(PB)
SciTegic.value.DoubleValue
-65.225

@<SCITEGIC>MOL_PROPERTY
W(SA)
SciTegic.value.DoubleValue
2.132

@<SCITEGIC>MOL_PROPERTY
Valence
SciTegic.value.DoubleValue
15.226

@<SCITEGIC>MOL_PROPERTY
Coulomb
SciTegic.value.DoubleValue
-1.822

@<SCITEGIC>MOL_PROPERTY
VdW
SciTegic.value.DoubleValue
0.261

@<SCITEGIC>MOL_PROPERTY
VdW6
SciTegic.value.DoubleValue
-4.165

@<SCITEGIC>MOL_PROPERTY
VdW12
SciTegic.value.DoubleValue
4.426

@<SCITEGIC>MOL_PROPERTY
Bond
SciTegic.value.DoubleValue
0.044

@<SCITEGIC>MOL_PROPERTY
Angle
SciTegic.value.DoubleValue
2.229

@<SCITEGIC>MOL_PROPERTY
Pdih
SciTegic.value.DoubleValue
12.953

@<SCITEGIC>MOL_PROPERTY
Idih
SciTegic.value.DoubleValue
0.000

@<SCITEGIC>MOL_PROPERTY
Tether
SciTegic.value.DoubleValue
0.000

@<TRIPOS>MOLECULE
guest-s20_confgen4.mol2 : confsearch ligand conformer 277
          17          16           1
SMALL
USER_CHARGES
 
@<TRIPOS>ATOM
       1    C1      18.875676   21.164482   19.879266 C.2        1 MOL1         0.6132
       2    O1      17.672103   21.003472   19.831244 O.co2      1 MOL1        -0.6749
       3    O2      19.566965   21.361225   18.899281 O.co2      1 MOL1        -0.6749
       4    C2      19.556058   21.123257   21.241244 C.3        1 MOL1        -0.1955
       5    H1      18.808231   21.365724   22.005839 H          1 MOL1         0.0733
       6    H2      20.308132   21.920354   21.264219 H          1 MOL1         0.0733
       7    C3      20.208378   19.783459   21.524378 C.2        1 MOL1        -0.1395
       8    H3      21.070622   19.545298   20.902272 H          1 MOL1         0.0816
       9    C4      19.786827   18.925205   22.458145 C.2        1 MOL1        -0.1394
      10    H4      18.922626   19.162597   23.077712 H          1 MOL1         0.0816
      11    C5      20.436129   17.587927   22.736385 C.3        1 MOL1        -0.1826
      12    H5      19.667302   16.804701   22.781059 H          1 MOL1         0.0736
      13    H6      21.117915   17.314241   21.919390 H          1 MOL1         0.0736
      14    C6      21.217420   17.617231   24.064461 C.3        1 MOL1        -0.2882
      15    H7      20.551624   17.851201   24.905533 H          1 MOL1         0.0749
      16    H8      21.685687   16.644053   24.261278 H          1 MOL1         0.0749
      17    H9      22.009828   18.376677   24.033953 H          1 MOL1         0.0749
@<TRIPOS>BOND
    1     1     2    1
    2     1     3    2
    3     1     4    1
    4     4     5    1
    5     4     6    1
    6     4     7    1
    7     7     8    1
    8     7     9    2
    9     9    10    1
   10     9    11    1
   11    11    12    1
   12    11    13    1
   13    11    14    1
   14    14    15    1
   15    14    16    1
   16    14    17    1
@<TRIPOS>SUBSTRUCTURE
       1 MOL1            1 RESIDUE      1      MOL     
@<SCITEGIC>MOL_PROPERTY
VConf Rank
SciTegic.value.IntegerValue
277

@<SCITEGIC>MOL_PROPERTY
Conf_Id
SciTegic.value.IntegerValue
35

@<SCITEGIC>MOL_PROPERTY
Delta U+W
SciTegic.value.DoubleValue
-0.102

@<SCITEGIC>MOL_PROPERTY
U+W
SciTegic.value.DoubleValue
-49.529

@<SCITEGIC>MOL_PROPERTY
Grad RMS
SciTegic.value.DoubleValue
0.000000

@<SCITEGIC>MOL_PROPERTY
U
SciTegic.value.DoubleValue
13.666

@<SCITEGIC>MOL_PROPERTY
W
SciTegic.value.DoubleValue
-63.195

@<SCITEGIC>MOL_PROPERTY
W(PB)
SciTegic.value.DoubleValue
-65.299

@<SCITEGIC>MOL_PROPERTY
W(SA)
SciTegic.value.DoubleValue
2.103

@<SCITEGIC>MOL_PROPERTY
Valence
SciTegic.value.DoubleValue
15.226

@<SCITEGIC>MOL_PROPERTY
Coulomb
SciTegic.value.DoubleValue
-1.822

@<SCITEGIC>MOL_PROPERTY
VdW
SciTegic.value.DoubleValue
0.261

@<SCITEGIC>MOL_PROPERTY
VdW6
SciTegic.value.DoubleValue
-4.165

@<SCITEGIC>MOL_PROPERTY
VdW12
SciTegic.value.DoubleValue
4.426

@<SCITEGIC>MOL_PROPERTY
Bond
SciTegic.value.DoubleValue
0.044

@<SCITEGIC>MOL_PROPERTY
Angle
SciTegic.value.DoubleValue
2.229

@<SCITEGIC>MOL_PROPERTY
Pdih
SciTegic.value.DoubleValue
12.953

@<SCITEGIC>MOL_PROPERTY
Idih
SciTegic.value.DoubleValue
0.000

@<SCITEGIC>MOL_PROPERTY
Tether
SciTegic.value.DoubleValue
0.000

@<TRIPOS>MOLECULE
guest-s20_confgen4.mol2 : confsearch ligand conformer 278
          17          16           1
SMALL
USER_CHARGES
 
@<TRIPOS>ATOM
       1    C1      17.538749   19.587345   21.079293 C.2        1 MOL1         0.6132
       2    O1      17.616152   19.738168   19.875868 O.co2      1 MOL1        -0.6749
       3    O2      16.699718   18.891634   21.616754 O.co2      1 MOL1        -0.6749
       4    C2      18.543017   20.318435   21.960568 C.3        1 MOL1        -0.1955
       5    H1      18.101918   20.436964   22.957547 H          1 MOL1         0.0733
       6    H2      18.679193   21.325103   21.548760 H          1 MOL1         0.0733
       7    C3      19.878142   19.602141   22.036535 C.2        1 MOL1        -0.1395
       8    H3      20.441293   19.590885   21.104965 H          1 MOL1         0.0816
       9    C4      20.349793   19.016519   23.144372 C.2        1 MOL1        -0.1394
      10    H4      19.755658   19.044464   24.057228 H          1 MOL1         0.0816
      11    C5      21.671545   18.281416   23.289929 C.3        1 MOL1        -0.1826
      12    H5      22.256519   18.754362   24.090325 H          1 MOL1         0.0736
      13    H6      21.473683   17.257449   23.634693 H          1 MOL1         0.0736
      14    C6      22.529790   18.222723   22.006964 C.3        1 MOL1        -0.2882
      15    H7      22.793290   19.231407   21.662687 H          1 MOL1         0.0749
      16    H8      23.463657   17.676645   22.193300 H          1 MOL1         0.0749
      17    H9      21.994749   17.707463   21.198430 H          1 MOL1         0.0749
@<TRIPOS>BOND
    1     1     2    1
    2     1     3    2
    3     1     4    1
    4     4     5    1
    5     4     6    1
    6     4     7    1
    7     7     8    1
    8     7     9    2
    9     9    10    1
   10     9    11    1
   11    11    12    1
   12    11    13    1
   13    11    14    1
   14    14    15    1
   15    14    16    1
   16    14    17    1
@<TRIPOS>SUBSTRUCTURE
       1 MOL1            1 RESIDUE      1      MOL     
@<SCITEGIC>MOL_PROPERTY
VConf Rank
SciTegic.value.IntegerValue
278

@<SCITEGIC>MOL_PROPERTY
Conf_Id
SciTegic.value.IntegerValue
19

@<SCITEGIC>MOL_PROPERTY
Delta U+W
SciTegic.value.DoubleValue
-0.496

@<SCITEGIC>MOL_PROPERTY
U+W
SciTegic.value.DoubleValue
-49.923

@<SCITEGIC>MOL_PROPERTY
Grad RMS
SciTegic.value.DoubleValue
0.000000

@<SCITEGIC>MOL_PROPERTY
U
SciTegic.value.DoubleValue
13.863

@<SCITEGIC>MOL_PROPERTY
W
SciTegic.value.DoubleValue
-63.786

@<SCITEGIC>MOL_PROPERTY
W(PB)
SciTegic.value.DoubleValue
-65.856

@<SCITEGIC>MOL_PROPERTY
W(SA)
SciTegic.value.DoubleValue
2.070

@<SCITEGIC>MOL_PROPERTY
Valence
SciTegic.value.DoubleValue
14.117

@<SCITEGIC>MOL_PROPERTY
Coulomb
SciTegic.value.DoubleValue
-1.228

@<SCITEGIC>MOL_PROPERTY
VdW
SciTegic.value.DoubleValue
0.974

@<SCITEGIC>MOL_PROPERTY
VdW6
SciTegic.value.DoubleValue
-4.885

@<SCITEGIC>MOL_PROPERTY
VdW12
SciTegic.value.DoubleValue
5.859

@<SCITEGIC>MOL_PROPERTY
Bond
SciTegic.value.DoubleValue
0.094

@<SCITEGIC>MOL_PROPERTY
Angle
SciTegic.value.DoubleValue
2.818

@<SCITEGIC>MOL_PROPERTY
Pdih
SciTegic.value.DoubleValue
11.205

@<SCITEGIC>MOL_PROPERTY
Idih
SciTegic.value.DoubleValue
0.000

@<SCITEGIC>MOL_PROPERTY
Tether
SciTegic.value.DoubleValue
0.000

@<TRIPOS>MOLECULE
guest-s20_confgen4.mol2 : confsearch ligand conformer 279
          17          16           1
SMALL
USER_CHARGES
 
@<TRIPOS>ATOM
       1    C1      17.825927   20.066004   23.688052 C.2        1 MOL1         0.6132
       2    O1      17.478968   19.086513   24.318156 O.co2      1 MOL1        -0.6749
       3    O2      17.927492   21.175734   24.173010 O.co2      1 MOL1        -0.6749
       4    C2      18.140799   19.898212   22.207333 C.3        1 MOL1        -0.1955
       5    H1      17.708378   20.752866   21.674357 H          1 MOL1         0.0733
       6    H2      17.624803   19.000394   21.846329 H          1 MOL1         0.0733
       7    C3      19.630866   19.814937   21.936170 C.2        1 MOL1        -0.1395
       8    H3      20.189957   20.730692   22.125977 H          1 MOL1         0.0816
       9    C4      20.255263   18.715579   21.502862 C.2        1 MOL1        -0.1394
      10    H4      19.696500   17.798667   21.318158 H          1 MOL1         0.0816
      11    C5      21.741660   18.633817   21.235890 C.3        1 MOL1        -0.1826
      12    H5      21.917481   18.174379   20.253787 H          1 MOL1         0.0736
      13    H6      22.181072   19.640088   21.196599 H          1 MOL1         0.0736
      14    C6      22.454788   17.808343   22.324483 C.3        1 MOL1        -0.2882
      15    H7      22.061388   16.783935   22.359859 H          1 MOL1         0.0749
      16    H8      23.533034   17.752611   22.126122 H          1 MOL1         0.0749
      17    H9      22.313200   18.263239   23.313777 H          1 MOL1         0.0749
@<TRIPOS>BOND
    1     1     2    1
    2     1     3    2
    3     1     4    1
    4     4     5    1
    5     4     6    1
    6     4     7    1
    7     7     8    1
    8     7     9    2
    9     9    10    1
   10     9    11    1
   11    11    12    1
   12    11    13    1
   13    11    14    1
   14    14    15    1
   15    14    16    1
   16    14    17    1
@<TRIPOS>SUBSTRUCTURE
       1 MOL1            1 RESIDUE      1      MOL     
@<SCITEGIC>MOL_PROPERTY
VConf Rank
SciTegic.value.IntegerValue
279

@<SCITEGIC>MOL_PROPERTY
Conf_Id
SciTegic.value.IntegerValue
7

@<SCITEGIC>MOL_PROPERTY
Delta U+W
SciTegic.value.DoubleValue
-0.041

@<SCITEGIC>MOL_PROPERTY
U+W
SciTegic.value.DoubleValue
-49.468

@<SCITEGIC>MOL_PROPERTY
Grad RMS
SciTegic.value.DoubleValue
0.000000

@<SCITEGIC>MOL_PROPERTY
U
SciTegic.value.DoubleValue
14.121

@<SCITEGIC>MOL_PROPERTY
W
SciTegic.value.DoubleValue
-63.589

@<SCITEGIC>MOL_PROPERTY
W(PB)
SciTegic.value.DoubleValue
-65.660

@<SCITEGIC>MOL_PROPERTY
W(SA)
SciTegic.value.DoubleValue
2.071

@<SCITEGIC>MOL_PROPERTY
Valence
SciTegic.value.DoubleValue
15.230

@<SCITEGIC>MOL_PROPERTY
Coulomb
SciTegic.value.DoubleValue
-1.333

@<SCITEGIC>MOL_PROPERTY
VdW
SciTegic.value.DoubleValue
0.224

@<SCITEGIC>MOL_PROPERTY
VdW6
SciTegic.value.DoubleValue
-4.212

@<SCITEGIC>MOL_PROPERTY
VdW12
SciTegic.value.DoubleValue
4.436

@<SCITEGIC>MOL_PROPERTY
Bond
SciTegic.value.DoubleValue
0.044

@<SCITEGIC>MOL_PROPERTY
Angle
SciTegic.value.DoubleValue
2.230

@<SCITEGIC>MOL_PROPERTY
Pdih
SciTegic.value.DoubleValue
12.956

@<SCITEGIC>MOL_PROPERTY
Idih
SciTegic.value.DoubleValue
0.000

@<SCITEGIC>MOL_PROPERTY
Tether
SciTegic.value.DoubleValue
0.000

@<TRIPOS>MOLECULE
guest-s20_confgen4.mol2 : confsearch ligand conformer 280
          17          16           1
SMALL
USER_CHARGES
 
@<TRIPOS>ATOM
       1    C1      18.056749   18.614766   23.967987 C.2        1 MOL1         0.6132
       2    O1      17.287254   19.531936   23.759015 O.co2      1 MOL1        -0.6749
       3    O2      18.452326   18.309597   25.075901 O.co2      1 MOL1        -0.6749
       4    C2      18.529869   17.784253   22.778877 C.3        1 MOL1        -0.1955
       5    H1      17.720354   17.763283   22.039950 H          1 MOL1         0.0733
       6    H2      18.653538   16.749777   23.119885 H          1 MOL1         0.0733
       7    C3      19.814386   18.259665   22.114892 C.2        1 MOL1        -0.1395
       8    H3      20.134134   17.652837   21.268685 H          1 MOL1         0.0816
       9    C4      20.542090   19.321858   22.479842 C.2        1 MOL1        -0.1394
      10    H4      20.244162   19.945797   23.321669 H          1 MOL1         0.0816
      11    C5      21.815273   19.751787   21.785502 C.3        1 MOL1        -0.1826
      12    H5      22.598223   19.942081   22.532025 H          1 MOL1         0.0736
      13    H6      22.188903   18.949351   21.134618 H          1 MOL1         0.0736
      14    C6      21.585731   21.023787   20.946238 C.3        1 MOL1        -0.2882
      15    H7      22.512969   21.331928   20.445900 H          1 MOL1         0.0749
      16    H8      20.823819   20.849647   20.175032 H          1 MOL1         0.0749
      17    H9      21.247624   21.854723   21.579237 H          1 MOL1         0.0749
@<TRIPOS>BOND
    1     1     2    1
    2     1     3    2
    3     1     4    1
    4     4     5    1
    5     4     6    1
    6     4     7    1
    7     7     8    1
    8     7     9    2
    9     9    10    1
   10     9    11    1
   11    11    12    1
   12    11    13    1
   13    11    14    1
   14    14    15    1
   15    14    16    1
   16    14    17    1
@<TRIPOS>SUBSTRUCTURE
       1 MOL1            1 RESIDUE      1      MOL     
@<SCITEGIC>MOL_PROPERTY
VConf Rank
SciTegic.value.IntegerValue
280

@<SCITEGIC>MOL_PROPERTY
Conf_Id
SciTegic.value.IntegerValue
39

@<SCITEGIC>MOL_PROPERTY
Delta U+W
SciTegic.value.DoubleValue
-0.422

@<SCITEGIC>MOL_PROPERTY
U+W
SciTegic.value.DoubleValue
-49.849

@<SCITEGIC>MOL_PROPERTY
Grad RMS
SciTegic.value.DoubleValue
0.000000

@<SCITEGIC>MOL_PROPERTY
U
SciTegic.value.DoubleValue
14.465

@<SCITEGIC>MOL_PROPERTY
W
SciTegic.value.DoubleValue
-64.314

@<SCITEGIC>MOL_PROPERTY
W(PB)
SciTegic.value.DoubleValue
-66.406

@<SCITEGIC>MOL_PROPERTY
W(SA)
SciTegic.value.DoubleValue
2.093

@<SCITEGIC>MOL_PROPERTY
Valence
SciTegic.value.DoubleValue
14.072

@<SCITEGIC>MOL_PROPERTY
Coulomb
SciTegic.value.DoubleValue
-0.199

@<SCITEGIC>MOL_PROPERTY
VdW
SciTegic.value.DoubleValue
0.592

@<SCITEGIC>MOL_PROPERTY
VdW6
SciTegic.value.DoubleValue
-5.019

@<SCITEGIC>MOL_PROPERTY
VdW12
SciTegic.value.DoubleValue
5.611

@<SCITEGIC>MOL_PROPERTY
Bond
SciTegic.value.DoubleValue
0.085

@<SCITEGIC>MOL_PROPERTY
Angle
SciTegic.value.DoubleValue
2.748

@<SCITEGIC>MOL_PROPERTY
Pdih
SciTegic.value.DoubleValue
11.238

@<SCITEGIC>MOL_PROPERTY
Idih
SciTegic.value.DoubleValue
0.001

@<SCITEGIC>MOL_PROPERTY
Tether
SciTegic.value.DoubleValue
0.000

@<TRIPOS>MOLECULE
guest-s20_confgen4.mol2 : confsearch ligand conformer 281
          17          16           1
SMALL
USER_CHARGES
 
@<TRIPOS>ATOM
       1    C1      22.990893   18.215292   22.875062 C.2        1 MOL1         0.6132
       2    O1      23.424341   17.291763   22.214625 O.co2      1 MOL1        -0.6749
       3    O2      23.141275   18.310446   24.077206 O.co2      1 MOL1        -0.6749
       4    C2      22.222355   19.314902   22.154083 C.3        1 MOL1        -0.1955
       5    H1      22.741707   19.523915   21.211695 H          1 MOL1         0.0733
       6    H2      22.278551   20.226952   22.760422 H          1 MOL1         0.0733
       7    C3      20.780406   18.932077   21.880267 C.2        1 MOL1        -0.1395
       8    H3      20.641623   18.131075   21.154777 H          1 MOL1         0.0816
       9    C4      19.726180   19.507824   22.466229 C.2        1 MOL1        -0.1394
      10    H4      19.865797   20.306697   23.193807 H          1 MOL1         0.0816
      11    C5      18.289196   19.122205   22.194760 C.3        1 MOL1        -0.1826
      12    H5      18.242770   18.161282   21.664013 H          1 MOL1         0.0736
      13    H6      17.756755   18.983250   23.145409 H          1 MOL1         0.0736
      14    C6      17.574548   20.201694   21.358673 C.3        1 MOL1        -0.2882
      15    H7      18.074848   20.340114   20.391129 H          1 MOL1         0.0749
      16    H8      16.532195   19.916630   21.165479 H          1 MOL1         0.0749
      17    H9      17.572273   21.165992   21.883605 H          1 MOL1         0.0749
@<TRIPOS>BOND
    1     1     2    1
    2     1     3    2
    3     1     4    1
    4     4     5    1
    5     4     6    1
    6     4     7    1
    7     7     8    1
    8     7     9    2
    9     9    10    1
   10     9    11    1
   11    11    12    1
   12    11    13    1
   13    11    14    1
   14    14    15    1
   15    14    16    1
   16    14    17    1
@<TRIPOS>SUBSTRUCTURE
       1 MOL1            1 RESIDUE      1      MOL     
@<SCITEGIC>MOL_PROPERTY
VConf Rank
SciTegic.value.IntegerValue
281

@<SCITEGIC>MOL_PROPERTY
Conf_Id
SciTegic.value.IntegerValue
38

@<SCITEGIC>MOL_PROPERTY
Delta U+W
SciTegic.value.DoubleValue
0.000

@<SCITEGIC>MOL_PROPERTY
U+W
SciTegic.value.DoubleValue
-49.427

@<SCITEGIC>MOL_PROPERTY
Grad RMS
SciTegic.value.DoubleValue
0.000000

@<SCITEGIC>MOL_PROPERTY
U
SciTegic.value.DoubleValue
13.666

@<SCITEGIC>MOL_PROPERTY
W
SciTegic.value.DoubleValue
-63.093

@<SCITEGIC>MOL_PROPERTY
W(PB)
SciTegic.value.DoubleValue
-65.225

@<SCITEGIC>MOL_PROPERTY
W(SA)
SciTegic.value.DoubleValue
2.132

@<SCITEGIC>MOL_PROPERTY
Valence
SciTegic.value.DoubleValue
15.226

@<SCITEGIC>MOL_PROPERTY
Coulomb
SciTegic.value.DoubleValue
-1.822

@<SCITEGIC>MOL_PROPERTY
VdW
SciTegic.value.DoubleValue
0.261

@<SCITEGIC>MOL_PROPERTY
VdW6
SciTegic.value.DoubleValue
-4.165

@<SCITEGIC>MOL_PROPERTY
VdW12
SciTegic.value.DoubleValue
4.426

@<SCITEGIC>MOL_PROPERTY
Bond
SciTegic.value.DoubleValue
0.044

@<SCITEGIC>MOL_PROPERTY
Angle
SciTegic.value.DoubleValue
2.229

@<SCITEGIC>MOL_PROPERTY
Pdih
SciTegic.value.DoubleValue
12.953

@<SCITEGIC>MOL_PROPERTY
Idih
SciTegic.value.DoubleValue
0.000

@<SCITEGIC>MOL_PROPERTY
Tether
SciTegic.value.DoubleValue
0.000

@<TRIPOS>MOLECULE
guest-s20_confgen4.mol2 : confsearch ligand conformer 282
          17          16           1
SMALL
USER_CHARGES
 
@<TRIPOS>ATOM
       1    C1      19.192026   21.223921   24.426832 C.2        1 MOL1         0.6132
       2    O1      18.307612   20.696750   25.072370 O.co2      1 MOL1        -0.6749
       3    O2      19.224637   22.412913   24.177443 O.co2      1 MOL1        -0.6749
       4    C2      20.325038   20.349718   23.905624 C.3        1 MOL1        -0.1955
       5    H1      20.387255   19.455733   24.537732 H          1 MOL1         0.0733
       6    H2      21.262492   20.902059   24.038313 H          1 MOL1         0.0733
       7    C3      20.144435   19.973030   22.447463 C.2        1 MOL1        -0.1395
       8    H3      20.233191   20.796839   21.739888 H          1 MOL1         0.0816
       9    C4      19.890708   18.733149   22.017875 C.2        1 MOL1        -0.1394
      10    H4      19.798927   17.910410   22.726209 H          1 MOL1         0.0816
      11    C5      19.706990   18.360094   20.563777 C.3        1 MOL1        -0.1826
      12    H5      18.802390   17.747548   20.449675 H          1 MOL1         0.0736
      13    H6      19.557406   19.260347   19.951905 H          1 MOL1         0.0736
      14    C6      20.925882   17.579993   20.033867 C.3        1 MOL1        -0.2882
      15    H7      21.076279   16.653845   20.604007 H          1 MOL1         0.0749
      16    H8      20.786469   17.311482   18.978617 H          1 MOL1         0.0749
      17    H9      21.839788   18.183271   20.114061 H          1 MOL1         0.0749
@<TRIPOS>BOND
    1     1     2    1
    2     1     3    2
    3     1     4    1
    4     4     5    1
    5     4     6    1
    6     4     7    1
    7     7     8    1
    8     7     9    2
    9     9    10    1
   10     9    11    1
   11    11    12    1
   12    11    13    1
   13    11    14    1
   14    14    15    1
   15    14    16    1
   16    14    17    1
@<TRIPOS>SUBSTRUCTURE
       1 MOL1            1 RESIDUE      1      MOL     
@<SCITEGIC>MOL_PROPERTY
VConf Rank
SciTegic.value.IntegerValue
282

@<SCITEGIC>MOL_PROPERTY
Conf_Id
SciTegic.value.IntegerValue
35

@<SCITEGIC>MOL_PROPERTY
Delta U+W
SciTegic.value.DoubleValue
-0.102

@<SCITEGIC>MOL_PROPERTY
U+W
SciTegic.value.DoubleValue
-49.529

@<SCITEGIC>MOL_PROPERTY
Grad RMS
SciTegic.value.DoubleValue
0.000000

@<SCITEGIC>MOL_PROPERTY
U
SciTegic.value.DoubleValue
13.666

@<SCITEGIC>MOL_PROPERTY
W
SciTegic.value.DoubleValue
-63.195

@<SCITEGIC>MOL_PROPERTY
W(PB)
SciTegic.value.DoubleValue
-65.299

@<SCITEGIC>MOL_PROPERTY
W(SA)
SciTegic.value.DoubleValue
2.103

@<SCITEGIC>MOL_PROPERTY
Valence
SciTegic.value.DoubleValue
15.226

@<SCITEGIC>MOL_PROPERTY
Coulomb
SciTegic.value.DoubleValue
-1.822

@<SCITEGIC>MOL_PROPERTY
VdW
SciTegic.value.DoubleValue
0.261

@<SCITEGIC>MOL_PROPERTY
VdW6
SciTegic.value.DoubleValue
-4.165

@<SCITEGIC>MOL_PROPERTY
VdW12
SciTegic.value.DoubleValue
4.426

@<SCITEGIC>MOL_PROPERTY
Bond
SciTegic.value.DoubleValue
0.044

@<SCITEGIC>MOL_PROPERTY
Angle
SciTegic.value.DoubleValue
2.229

@<SCITEGIC>MOL_PROPERTY
Pdih
SciTegic.value.DoubleValue
12.953

@<SCITEGIC>MOL_PROPERTY
Idih
SciTegic.value.DoubleValue
0.000

@<SCITEGIC>MOL_PROPERTY
Tether
SciTegic.value.DoubleValue
0.000

@<TRIPOS>MOLECULE
guest-s20_confgen4.mol2 : confsearch ligand conformer 283
          17          16           1
SMALL
USER_CHARGES
 
@<TRIPOS>ATOM
       1    C1      19.599182   17.308403   19.942686 C.2        1 MOL1         0.6132
       2    O1      20.627068   16.961258   19.395045 O.co2      1 MOL1        -0.6749
       3    O2      18.693715   16.545957   20.217738 O.co2      1 MOL1        -0.6749
       4    C2      19.434909   18.781249   20.294018 C.3        1 MOL1        -0.1955
       5    H1      18.362502   18.999744   20.363211 H          1 MOL1         0.0733
       6    H2      19.828660   19.370734   19.457968 H          1 MOL1         0.0733
       7    C3      20.151637   19.155245   21.577697 C.2        1 MOL1        -0.1395
       8    H3      21.237874   19.110921   21.520995 H          1 MOL1         0.0816
       9    C4      19.525548   19.509848   22.706847 C.2        1 MOL1        -0.1394
      10    H4      18.436578   19.538550   22.726982 H          1 MOL1         0.0816
      11    C5      20.177968   19.891666   24.024858 C.3        1 MOL1        -0.1826
      12    H5      19.845846   20.899496   24.308547 H          1 MOL1         0.0736
      13    H6      19.804299   19.224910   24.813736 H          1 MOL1         0.0736
      14    C6      21.722151   19.852619   24.023523 C.3        1 MOL1        -0.2882
      15    H7      22.133288   20.549793   23.281689 H          1 MOL1         0.0749
      16    H8      22.115219   20.138893   25.007685 H          1 MOL1         0.0749
      17    H9      22.090419   18.843836   23.794994 H          1 MOL1         0.0749
@<TRIPOS>BOND
    1     1     2    1
    2     1     3    2
    3     1     4    1
    4     4     5    1
    5     4     6    1
    6     4     7    1
    7     7     8    1
    8     7     9    2
    9     9    10    1
   10     9    11    1
   11    11    12    1
   12    11    13    1
   13    11    14    1
   14    14    15    1
   15    14    16    1
   16    14    17    1
@<TRIPOS>SUBSTRUCTURE
       1 MOL1            1 RESIDUE      1      MOL     
@<SCITEGIC>MOL_PROPERTY
VConf Rank
SciTegic.value.IntegerValue
283

@<SCITEGIC>MOL_PROPERTY
Conf_Id
SciTegic.value.IntegerValue
19

@<SCITEGIC>MOL_PROPERTY
Delta U+W
SciTegic.value.DoubleValue
-0.496

@<SCITEGIC>MOL_PROPERTY
U+W
SciTegic.value.DoubleValue
-49.923

@<SCITEGIC>MOL_PROPERTY
Grad RMS
SciTegic.value.DoubleValue
0.000000

@<SCITEGIC>MOL_PROPERTY
U
SciTegic.value.DoubleValue
13.863

@<SCITEGIC>MOL_PROPERTY
W
SciTegic.value.DoubleValue
-63.786

@<SCITEGIC>MOL_PROPERTY
W(PB)
SciTegic.value.DoubleValue
-65.856

@<SCITEGIC>MOL_PROPERTY
W(SA)
SciTegic.value.DoubleValue
2.070

@<SCITEGIC>MOL_PROPERTY
Valence
SciTegic.value.DoubleValue
14.117

@<SCITEGIC>MOL_PROPERTY
Coulomb
SciTegic.value.DoubleValue
-1.228

@<SCITEGIC>MOL_PROPERTY
VdW
SciTegic.value.DoubleValue
0.974

@<SCITEGIC>MOL_PROPERTY
VdW6
SciTegic.value.DoubleValue
-4.885

@<SCITEGIC>MOL_PROPERTY
VdW12
SciTegic.value.DoubleValue
5.859

@<SCITEGIC>MOL_PROPERTY
Bond
SciTegic.value.DoubleValue
0.094

@<SCITEGIC>MOL_PROPERTY
Angle
SciTegic.value.DoubleValue
2.818

@<SCITEGIC>MOL_PROPERTY
Pdih
SciTegic.value.DoubleValue
11.205

@<SCITEGIC>MOL_PROPERTY
Idih
SciTegic.value.DoubleValue
0.000

@<SCITEGIC>MOL_PROPERTY
Tether
SciTegic.value.DoubleValue
0.000

@<TRIPOS>MOLECULE
guest-s20_confgen4.mol2 : confsearch ligand conformer 284
          17          16           1
SMALL
USER_CHARGES
 
@<TRIPOS>ATOM
       1    C1      18.440314   21.256910   21.282657 C.2        1 MOL1         0.6132
       2    O1      19.171037   21.848994   20.513052 O.co2      1 MOL1        -0.6749
       3    O2      17.286750   20.971039   21.028552 O.co2      1 MOL1        -0.6749
       4    C2      18.994884   20.859943   22.644530 C.3        1 MOL1        -0.1955
       5    H1      18.219973   21.061620   23.393079 H          1 MOL1         0.0733
       6    H2      19.842260   21.516899   22.874786 H          1 MOL1         0.0733
       7    C3      19.406812   19.401222   22.701190 C.2        1 MOL1        -0.1395
       8    H3      18.589050   18.684191   22.635253 H          1 MOL1         0.0816
       9    C4      20.670523   18.981385   22.815148 C.2        1 MOL1        -0.1394
      10    H4      21.488291   19.698763   22.875852 H          1 MOL1         0.0816
      11    C5      21.079384   17.526284   22.868520 C.3        1 MOL1        -0.1826
      12    H5      21.774284   17.366580   23.704062 H          1 MOL1         0.0736
      13    H6      20.205414   16.888161   23.058742 H          1 MOL1         0.0736
      14    C6      21.750944   17.091547   21.551325 C.3        1 MOL1        -0.2882
      15    H7      22.651510   17.688191   21.355312 H          1 MOL1         0.0749
      16    H8      22.045179   16.034875   21.595339 H          1 MOL1         0.0749
      17    H9      21.064968   17.219404   20.703522 H          1 MOL1         0.0749
@<TRIPOS>BOND
    1     1     2    1
    2     1     3    2
    3     1     4    1
    4     4     5    1
    5     4     6    1
    6     4     7    1
    7     7     8    1
    8     7     9    2
    9     9    10    1
   10     9    11    1
   11    11    12    1
   12    11    13    1
   13    11    14    1
   14    14    15    1
   15    14    16    1
   16    14    17    1
@<TRIPOS>SUBSTRUCTURE
       1 MOL1            1 RESIDUE      1      MOL     
@<SCITEGIC>MOL_PROPERTY
VConf Rank
SciTegic.value.IntegerValue
284

@<SCITEGIC>MOL_PROPERTY
Conf_Id
SciTegic.value.IntegerValue
7

@<SCITEGIC>MOL_PROPERTY
Delta U+W
SciTegic.value.DoubleValue
-0.041

@<SCITEGIC>MOL_PROPERTY
U+W
SciTegic.value.DoubleValue
-49.468

@<SCITEGIC>MOL_PROPERTY
Grad RMS
SciTegic.value.DoubleValue
0.000000

@<SCITEGIC>MOL_PROPERTY
U
SciTegic.value.DoubleValue
14.121

@<SCITEGIC>MOL_PROPERTY
W
SciTegic.value.DoubleValue
-63.589

@<SCITEGIC>MOL_PROPERTY
W(PB)
SciTegic.value.DoubleValue
-65.660

@<SCITEGIC>MOL_PROPERTY
W(SA)
SciTegic.value.DoubleValue
2.071

@<SCITEGIC>MOL_PROPERTY
Valence
SciTegic.value.DoubleValue
15.230

@<SCITEGIC>MOL_PROPERTY
Coulomb
SciTegic.value.DoubleValue
-1.333

@<SCITEGIC>MOL_PROPERTY
VdW
SciTegic.value.DoubleValue
0.224

@<SCITEGIC>MOL_PROPERTY
VdW6
SciTegic.value.DoubleValue
-4.212

@<SCITEGIC>MOL_PROPERTY
VdW12
SciTegic.value.DoubleValue
4.436

@<SCITEGIC>MOL_PROPERTY
Bond
SciTegic.value.DoubleValue
0.044

@<SCITEGIC>MOL_PROPERTY
Angle
SciTegic.value.DoubleValue
2.230

@<SCITEGIC>MOL_PROPERTY
Pdih
SciTegic.value.DoubleValue
12.956

@<SCITEGIC>MOL_PROPERTY
Idih
SciTegic.value.DoubleValue
0.000

@<SCITEGIC>MOL_PROPERTY
Tether
SciTegic.value.DoubleValue
0.000

@<TRIPOS>MOLECULE
guest-s20_confgen4.mol2 : confsearch ligand conformer 285
          17          16           1
SMALL
USER_CHARGES
 
@<TRIPOS>ATOM
       1    C1      20.545634   16.780891   23.381754 C.2        1 MOL1         0.6132
       2    O1      21.266118   16.271660   22.545943 O.co2      1 MOL1        -0.6749
       3    O2      19.512154   16.276140   23.774473 O.co2      1 MOL1        -0.6749
       4    C2      20.975588   18.111825   23.991123 C.3        1 MOL1        -0.1955
       5    H1      22.071365   18.131691   24.016575 H          1 MOL1         0.0733
       6    H2      20.649560   18.122788   25.037692 H          1 MOL1         0.0733
       7    C3      20.459189   19.356172   23.282738 C.2        1 MOL1        -0.1395
       8    H3      20.777715   20.295023   23.734007 H          1 MOL1         0.0816
       9    C4      19.680077   19.375778   22.194806 C.2        1 MOL1        -0.1394
      10    H4      19.348261   18.451394   21.723482 H          1 MOL1         0.0816
      11    C5      19.191992   20.643080   21.528727 C.3        1 MOL1        -0.1826
      12    H5      18.112207   20.570559   21.340777 H          1 MOL1         0.0736
      13    H6      19.339194   21.507483   22.190764 H          1 MOL1         0.0736
      14    C6      19.929634   20.888531   20.198060 C.3        1 MOL1        -0.2882
      15    H7      19.570591   21.808423   19.718534 H          1 MOL1         0.0749
      16    H8      21.010187   20.990139   20.364421 H          1 MOL1         0.0749
      17    H9      19.767940   20.055494   19.501380 H          1 MOL1         0.0749
@<TRIPOS>BOND
    1     1     2    1
    2     1     3    2
    3     1     4    1
    4     4     5    1
    5     4     6    1
    6     4     7    1
    7     7     8    1
    8     7     9    2
    9     9    10    1
   10     9    11    1
   11    11    12    1
   12    11    13    1
   13    11    14    1
   14    14    15    1
   15    14    16    1
   16    14    17    1
@<TRIPOS>SUBSTRUCTURE
       1 MOL1            1 RESIDUE      1      MOL     
@<SCITEGIC>MOL_PROPERTY
VConf Rank
SciTegic.value.IntegerValue
285

@<SCITEGIC>MOL_PROPERTY
Conf_Id
SciTegic.value.IntegerValue
39

@<SCITEGIC>MOL_PROPERTY
Delta U+W
SciTegic.value.DoubleValue
-0.422

@<SCITEGIC>MOL_PROPERTY
U+W
SciTegic.value.DoubleValue
-49.849

@<SCITEGIC>MOL_PROPERTY
Grad RMS
SciTegic.value.DoubleValue
0.000000

@<SCITEGIC>MOL_PROPERTY
U
SciTegic.value.DoubleValue
14.465

@<SCITEGIC>MOL_PROPERTY
W
SciTegic.value.DoubleValue
-64.314

@<SCITEGIC>MOL_PROPERTY
W(PB)
SciTegic.value.DoubleValue
-66.406

@<SCITEGIC>MOL_PROPERTY
W(SA)
SciTegic.value.DoubleValue
2.093

@<SCITEGIC>MOL_PROPERTY
Valence
SciTegic.value.DoubleValue
14.072

@<SCITEGIC>MOL_PROPERTY
Coulomb
SciTegic.value.DoubleValue
-0.199

@<SCITEGIC>MOL_PROPERTY
VdW
SciTegic.value.DoubleValue
0.592

@<SCITEGIC>MOL_PROPERTY
VdW6
SciTegic.value.DoubleValue
-5.019

@<SCITEGIC>MOL_PROPERTY
VdW12
SciTegic.value.DoubleValue
5.611

@<SCITEGIC>MOL_PROPERTY
Bond
SciTegic.value.DoubleValue
0.085

@<SCITEGIC>MOL_PROPERTY
Angle
SciTegic.value.DoubleValue
2.748

@<SCITEGIC>MOL_PROPERTY
Pdih
SciTegic.value.DoubleValue
11.238

@<SCITEGIC>MOL_PROPERTY
Idih
SciTegic.value.DoubleValue
0.001

@<SCITEGIC>MOL_PROPERTY
Tether
SciTegic.value.DoubleValue
0.000

@<TRIPOS>MOLECULE
guest-s20_confgen4.mol2 : confsearch ligand conformer 286
          17          16           1
SMALL
USER_CHARGES
 
@<TRIPOS>ATOM
       1    C1      20.401317   16.536424   23.667150 C.2        1 MOL1         0.6132
       2    O1      19.501718   16.249163   24.432110 O.co2      1 MOL1        -0.6749
       3    O2      21.576182   16.339217   23.907191 O.co2      1 MOL1        -0.6749
       4    C2      20.033679   17.173180   22.333363 C.3        1 MOL1        -0.1955
       5    H1      19.144728   16.658805   21.950355 H          1 MOL1         0.0733
       6    H2      20.847335   16.978472   21.624355 H          1 MOL1         0.0733
       7    C3      19.762779   18.660657   22.454899 C.2        1 MOL1        -0.1395
       8    H3      18.867588   18.925969   23.016542 H          1 MOL1         0.0816
       9    C4      20.541088   19.611302   21.928839 C.2        1 MOL1        -0.1394
      10    H4      21.437699   19.345384   21.369879 H          1 MOL1         0.0816
      11    C5      20.271430   21.094162   22.054262 C.3        1 MOL1        -0.1826
      12    H5      19.517674   21.283442   22.830951 H          1 MOL1         0.0736
      13    H6      21.187000   21.611958   22.370732 H          1 MOL1         0.0736
      14    C6      19.784197   21.683608   20.716272 C.3        1 MOL1        -0.2882
      15    H7      18.854209   21.198226   20.392039 H          1 MOL1         0.0749
      16    H8      19.590827   22.759838   20.813340 H          1 MOL1         0.0749
      17    H9      20.536265   21.542301   19.928963 H          1 MOL1         0.0749
@<TRIPOS>BOND
    1     1     2    1
    2     1     3    2
    3     1     4    1
    4     4     5    1
    5     4     6    1
    6     4     7    1
    7     7     8    1
    8     7     9    2
    9     9    10    1
   10     9    11    1
   11    11    12    1
   12    11    13    1
   13    11    14    1
   14    14    15    1
   15    14    16    1
   16    14    17    1
@<TRIPOS>SUBSTRUCTURE
       1 MOL1            1 RESIDUE      1      MOL     
@<SCITEGIC>MOL_PROPERTY
VConf Rank
SciTegic.value.IntegerValue
286

@<SCITEGIC>MOL_PROPERTY
Conf_Id
SciTegic.value.IntegerValue
38

@<SCITEGIC>MOL_PROPERTY
Delta U+W
SciTegic.value.DoubleValue
0.000

@<SCITEGIC>MOL_PROPERTY
U+W
SciTegic.value.DoubleValue
-49.427

@<SCITEGIC>MOL_PROPERTY
Grad RMS
SciTegic.value.DoubleValue
0.000000

@<SCITEGIC>MOL_PROPERTY
U
SciTegic.value.DoubleValue
13.666

@<SCITEGIC>MOL_PROPERTY
W
SciTegic.value.DoubleValue
-63.093

@<SCITEGIC>MOL_PROPERTY
W(PB)
SciTegic.value.DoubleValue
-65.225

@<SCITEGIC>MOL_PROPERTY
W(SA)
SciTegic.value.DoubleValue
2.132

@<SCITEGIC>MOL_PROPERTY
Valence
SciTegic.value.DoubleValue
15.226

@<SCITEGIC>MOL_PROPERTY
Coulomb
SciTegic.value.DoubleValue
-1.822

@<SCITEGIC>MOL_PROPERTY
VdW
SciTegic.value.DoubleValue
0.261

@<SCITEGIC>MOL_PROPERTY
VdW6
SciTegic.value.DoubleValue
-4.165

@<SCITEGIC>MOL_PROPERTY
VdW12
SciTegic.value.DoubleValue
4.426

@<SCITEGIC>MOL_PROPERTY
Bond
SciTegic.value.DoubleValue
0.044

@<SCITEGIC>MOL_PROPERTY
Angle
SciTegic.value.DoubleValue
2.229

@<SCITEGIC>MOL_PROPERTY
Pdih
SciTegic.value.DoubleValue
12.953

@<SCITEGIC>MOL_PROPERTY
Idih
SciTegic.value.DoubleValue
0.000

@<SCITEGIC>MOL_PROPERTY
Tether
SciTegic.value.DoubleValue
0.000

@<TRIPOS>MOLECULE
guest-s20_confgen4.mol2 : confsearch ligand conformer 287
          17          16           1
SMALL
USER_CHARGES
 
@<TRIPOS>ATOM
       1    C1      19.513855   19.557144   19.005760 C.2        1 MOL1         0.6132
       2    O1      20.465843   20.093766   18.474184 O.co2      1 MOL1        -0.6749
       3    O2      18.360211   19.762916   18.683698 O.co2      1 MOL1        -0.6749
       4    C2      19.778961   18.568486   20.133536 C.3        1 MOL1        -0.1955
       5    H1      20.798467   18.181360   20.017861 H          1 MOL1         0.0733
       6    H2      19.097152   17.720260   20.002548 H          1 MOL1         0.0733
       7    C3      19.584322   19.186113   21.505176 C.2        1 MOL1        -0.1395
       8    H3      18.556998   19.449438   21.755108 H          1 MOL1         0.0816
       9    C4      20.573917   19.411379   22.374766 C.2        1 MOL1        -0.1394
      10    H4      21.601398   19.150748   22.122940 H          1 MOL1         0.0816
      11    C5      20.378503   20.030983   23.740498 C.3        1 MOL1        -0.1826
      12    H5      21.111953   20.834618   23.891341 H          1 MOL1         0.0736
      13    H6      19.384532   20.493380   23.814173 H          1 MOL1         0.0736
      14    C6      20.534635   18.977260   24.854209 C.3        1 MOL1        -0.2882
      15    H7      21.534763   18.525047   24.828191 H          1 MOL1         0.0749
      16    H8      20.392477   19.432863   25.842795 H          1 MOL1         0.0749
      17    H9      19.793537   18.175343   24.738873 H          1 MOL1         0.0749
@<TRIPOS>BOND
    1     1     2    1
    2     1     3    2
    3     1     4    1
    4     4     5    1
    5     4     6    1
    6     4     7    1
    7     7     8    1
    8     7     9    2
    9     9    10    1
   10     9    11    1
   11    11    12    1
   12    11    13    1
   13    11    14    1
   14    14    15    1
   15    14    16    1
   16    14    17    1
@<TRIPOS>SUBSTRUCTURE
       1 MOL1            1 RESIDUE      1      MOL     
@<SCITEGIC>MOL_PROPERTY
VConf Rank
SciTegic.value.IntegerValue
287

@<SCITEGIC>MOL_PROPERTY
Conf_Id
SciTegic.value.IntegerValue
35

@<SCITEGIC>MOL_PROPERTY
Delta U+W
SciTegic.value.DoubleValue
-0.102

@<SCITEGIC>MOL_PROPERTY
U+W
SciTegic.value.DoubleValue
-49.529

@<SCITEGIC>MOL_PROPERTY
Grad RMS
SciTegic.value.DoubleValue
0.000000

@<SCITEGIC>MOL_PROPERTY
U
SciTegic.value.DoubleValue
13.666

@<SCITEGIC>MOL_PROPERTY
W
SciTegic.value.DoubleValue
-63.195

@<SCITEGIC>MOL_PROPERTY
W(PB)
SciTegic.value.DoubleValue
-65.299

@<SCITEGIC>MOL_PROPERTY
W(SA)
SciTegic.value.DoubleValue
2.103

@<SCITEGIC>MOL_PROPERTY
Valence
SciTegic.value.DoubleValue
15.226

@<SCITEGIC>MOL_PROPERTY
Coulomb
SciTegic.value.DoubleValue
-1.822

@<SCITEGIC>MOL_PROPERTY
VdW
SciTegic.value.DoubleValue
0.261

@<SCITEGIC>MOL_PROPERTY
VdW6
SciTegic.value.DoubleValue
-4.165

@<SCITEGIC>MOL_PROPERTY
VdW12
SciTegic.value.DoubleValue
4.426

@<SCITEGIC>MOL_PROPERTY
Bond
SciTegic.value.DoubleValue
0.044

@<SCITEGIC>MOL_PROPERTY
Angle
SciTegic.value.DoubleValue
2.229

@<SCITEGIC>MOL_PROPERTY
Pdih
SciTegic.value.DoubleValue
12.953

@<SCITEGIC>MOL_PROPERTY
Idih
SciTegic.value.DoubleValue
0.000

@<SCITEGIC>MOL_PROPERTY
Tether
SciTegic.value.DoubleValue
0.000

@<TRIPOS>MOLECULE
guest-s20_confgen4.mol2 : confsearch ligand conformer 288
          17          16           1
SMALL
USER_CHARGES
 
@<TRIPOS>ATOM
       1    C1      17.966780   19.185577   20.303656 C.2        1 MOL1         0.6132
       2    O1      18.369863   18.987128   19.174447 O.co2      1 MOL1        -0.6749
       3    O2      16.976618   18.654565   20.766748 O.co2      1 MOL1        -0.6749
       4    C2      18.740779   20.160412   21.181333 C.3        1 MOL1        -0.1955
       5    H1      18.058032   20.549711   21.946112 H          1 MOL1         0.0733
       6    H2      19.038992   21.009740   20.555857 H          1 MOL1         0.0733
       7    C3      19.964333   19.525539   21.814781 C.2        1 MOL1        -0.1395
       8    H3      20.753289   19.260418   21.113104 H          1 MOL1         0.0816
       9    C4      20.090108   19.292260   23.127212 C.2        1 MOL1        -0.1394
      10    H4      19.277268   19.567323   23.798566 H          1 MOL1         0.0816
      11    C5      21.281213   18.659004   23.826385 C.3        1 MOL1        -0.1826
      12    H5      21.658435   19.354150   24.588607 H          1 MOL1         0.0736
      13    H6      20.940474   17.772543   24.378294 H          1 MOL1         0.0736
      14    C6      22.444846   18.254333   22.894597 C.3        1 MOL1        -0.2882
      15    H7      22.847744   19.127743   22.365230 H          1 MOL1         0.0749
      16    H8      23.262678   17.805249   23.472960 H          1 MOL1         0.0749
      17    H9      22.115414   17.517427   22.150329 H          1 MOL1         0.0749
@<TRIPOS>BOND
    1     1     2    1
    2     1     3    2
    3     1     4    1
    4     4     5    1
    5     4     6    1
    6     4     7    1
    7     7     8    1
    8     7     9    2
    9     9    10    1
   10     9    11    1
   11    11    12    1
   12    11    13    1
   13    11    14    1
   14    14    15    1
   15    14    16    1
   16    14    17    1
@<TRIPOS>SUBSTRUCTURE
       1 MOL1            1 RESIDUE      1      MOL     
@<SCITEGIC>MOL_PROPERTY
VConf Rank
SciTegic.value.IntegerValue
288

@<SCITEGIC>MOL_PROPERTY
Conf_Id
SciTegic.value.IntegerValue
19

@<SCITEGIC>MOL_PROPERTY
Delta U+W
SciTegic.value.DoubleValue
-0.496

@<SCITEGIC>MOL_PROPERTY
U+W
SciTegic.value.DoubleValue
-49.923

@<SCITEGIC>MOL_PROPERTY
Grad RMS
SciTegic.value.DoubleValue
0.000000

@<SCITEGIC>MOL_PROPERTY
U
SciTegic.value.DoubleValue
13.863

@<SCITEGIC>MOL_PROPERTY
W
SciTegic.value.DoubleValue
-63.786

@<SCITEGIC>MOL_PROPERTY
W(PB)
SciTegic.value.DoubleValue
-65.856

@<SCITEGIC>MOL_PROPERTY
W(SA)
SciTegic.value.DoubleValue
2.070

@<SCITEGIC>MOL_PROPERTY
Valence
SciTegic.value.DoubleValue
14.117

@<SCITEGIC>MOL_PROPERTY
Coulomb
SciTegic.value.DoubleValue
-1.228

@<SCITEGIC>MOL_PROPERTY
VdW
SciTegic.value.DoubleValue
0.974

@<SCITEGIC>MOL_PROPERTY
VdW6
SciTegic.value.DoubleValue
-4.885

@<SCITEGIC>MOL_PROPERTY
VdW12
SciTegic.value.DoubleValue
5.859

@<SCITEGIC>MOL_PROPERTY
Bond
SciTegic.value.DoubleValue
0.094

@<SCITEGIC>MOL_PROPERTY
Angle
SciTegic.value.DoubleValue
2.818

@<SCITEGIC>MOL_PROPERTY
Pdih
SciTegic.value.DoubleValue
11.205

@<SCITEGIC>MOL_PROPERTY
Idih
SciTegic.value.DoubleValue
0.000

@<SCITEGIC>MOL_PROPERTY
Tether
SciTegic.value.DoubleValue
0.000

@<TRIPOS>MOLECULE
guest-s20_confgen4.mol2 : confsearch ligand conformer 289
          17          16           1
SMALL
USER_CHARGES
 
@<TRIPOS>ATOM
       1    C1      17.280300   18.598781   21.860885 C.2        1 MOL1         0.6132
       2    O1      17.044286   19.203203   20.833371 O.co2      1 MOL1        -0.6749
       3    O2      16.882595   17.472335   22.084385 O.co2      1 MOL1        -0.6749
       4    C2      18.110485   19.292750   22.932812 C.3        1 MOL1        -0.1955
       5    H1      17.652996   19.073537   23.904477 H          1 MOL1         0.0733
       6    H2      18.033528   20.375817   22.778876 H          1 MOL1         0.0733
       7    C3      19.559486   18.844288   22.926234 C.2        1 MOL1        -0.1395
       8    H3      19.727476   17.809867   23.224508 H          1 MOL1         0.0816
       9    C4      20.586256   19.626153   22.578893 C.2        1 MOL1        -0.1394
      10    H4      20.417177   20.658910   22.275767 H          1 MOL1         0.0816
      11    C5      22.030117   19.176124   22.570207 C.3        1 MOL1        -0.1826
      12    H5      22.653174   19.918338   23.087353 H          1 MOL1         0.0736
      13    H6      22.141773   18.231914   23.120851 H          1 MOL1         0.0736
      14    C6      22.542845   18.989400   21.128945 C.3        1 MOL1        -0.2882
      15    H7      22.478989   19.929622   20.565625 H          1 MOL1         0.0749
      16    H8      23.590771   18.662413   21.128501 H          1 MOL1         0.0749
      17    H9      21.949322   18.232556   20.599229 H          1 MOL1         0.0749
@<TRIPOS>BOND
    1     1     2    1
    2     1     3    2
    3     1     4    1
    4     4     5    1
    5     4     6    1
    6     4     7    1
    7     7     8    1
    8     7     9    2
    9     9    10    1
   10     9    11    1
   11    11    12    1
   12    11    13    1
   13    11    14    1
   14    14    15    1
   15    14    16    1
   16    14    17    1
@<TRIPOS>SUBSTRUCTURE
       1 MOL1            1 RESIDUE      1      MOL     
@<SCITEGIC>MOL_PROPERTY
VConf Rank
SciTegic.value.IntegerValue
289

@<SCITEGIC>MOL_PROPERTY
Conf_Id
SciTegic.value.IntegerValue
7

@<SCITEGIC>MOL_PROPERTY
Delta U+W
SciTegic.value.DoubleValue
-0.041

@<SCITEGIC>MOL_PROPERTY
U+W
SciTegic.value.DoubleValue
-49.468

@<SCITEGIC>MOL_PROPERTY
Grad RMS
SciTegic.value.DoubleValue
0.000000

@<SCITEGIC>MOL_PROPERTY
U
SciTegic.value.DoubleValue
14.121

@<SCITEGIC>MOL_PROPERTY
W
SciTegic.value.DoubleValue
-63.589

@<SCITEGIC>MOL_PROPERTY
W(PB)
SciTegic.value.DoubleValue
-65.660

@<SCITEGIC>MOL_PROPERTY
W(SA)
SciTegic.value.DoubleValue
2.071

@<SCITEGIC>MOL_PROPERTY
Valence
SciTegic.value.DoubleValue
15.230

@<SCITEGIC>MOL_PROPERTY
Coulomb
SciTegic.value.DoubleValue
-1.333

@<SCITEGIC>MOL_PROPERTY
VdW
SciTegic.value.DoubleValue
0.224

@<SCITEGIC>MOL_PROPERTY
VdW6
SciTegic.value.DoubleValue
-4.212

@<SCITEGIC>MOL_PROPERTY
VdW12
SciTegic.value.DoubleValue
4.436

@<SCITEGIC>MOL_PROPERTY
Bond
SciTegic.value.DoubleValue
0.044

@<SCITEGIC>MOL_PROPERTY
Angle
SciTegic.value.DoubleValue
2.230

@<SCITEGIC>MOL_PROPERTY
Pdih
SciTegic.value.DoubleValue
12.956

@<SCITEGIC>MOL_PROPERTY
Idih
SciTegic.value.DoubleValue
0.000

@<SCITEGIC>MOL_PROPERTY
Tether
SciTegic.value.DoubleValue
0.000

@<TRIPOS>MOLECULE
guest-s20_confgen4.mol2 : confsearch ligand conformer 290
          17          16           1
SMALL
USER_CHARGES
 
@<TRIPOS>ATOM
       1    C1      22.669383   18.983540   21.220284 C.2        1 MOL1         0.6132
       2    O1      22.567754   17.908522   20.662612 O.co2      1 MOL1        -0.6749
       3    O2      23.533133   19.237198   22.036786 O.co2      1 MOL1        -0.6749
       4    C2      21.676397   20.082802   20.855345 C.3        1 MOL1        -0.1955
       5    H1      21.398986   19.949656   19.803165 H          1 MOL1         0.0733
       6    H2      22.203386   21.042556   20.908966 H          1 MOL1         0.0733
       7    C3      20.418806   20.142710   21.710770 C.2        1 MOL1        -0.1395
       8    H3      19.723900   20.934378   21.433437 H          1 MOL1         0.0816
       9    C4      20.120966   19.327868   22.729749 C.2        1 MOL1        -0.1394
      10    H4      20.797907   18.527766   23.026937 H          1 MOL1         0.0816
      11    C5      18.854920   19.431106   23.550975 C.3        1 MOL1        -0.1826
      12    H5      19.103178   19.396065   24.620395 H          1 MOL1         0.0736
      13    H6      18.358650   20.395269   23.374173 H          1 MOL1         0.0736
      14    C6      17.880380   18.286339   23.212126 C.3        1 MOL1        -0.2882
      15    H7      16.964301   18.365416   23.811797 H          1 MOL1         0.0749
      16    H8      17.597355   18.316498   22.151663 H          1 MOL1         0.0749
      17    H9      18.338004   17.309382   23.416074 H          1 MOL1         0.0749
@<TRIPOS>BOND
    1     1     2    1
    2     1     3    2
    3     1     4    1
    4     4     5    1
    5     4     6    1
    6     4     7    1
    7     7     8    1
    8     7     9    2
    9     9    10    1
   10     9    11    1
   11    11    12    1
   12    11    13    1
   13    11    14    1
   14    14    15    1
   15    14    16    1
   16    14    17    1
@<TRIPOS>SUBSTRUCTURE
       1 MOL1            1 RESIDUE      1      MOL     
@<SCITEGIC>MOL_PROPERTY
VConf Rank
SciTegic.value.IntegerValue
290

@<SCITEGIC>MOL_PROPERTY
Conf_Id
SciTegic.value.IntegerValue
39

@<SCITEGIC>MOL_PROPERTY
Delta U+W
SciTegic.value.DoubleValue
-0.422

@<SCITEGIC>MOL_PROPERTY
U+W
SciTegic.value.DoubleValue
-49.849

@<SCITEGIC>MOL_PROPERTY
Grad RMS
SciTegic.value.DoubleValue
0.000000

@<SCITEGIC>MOL_PROPERTY
U
SciTegic.value.DoubleValue
14.465

@<SCITEGIC>MOL_PROPERTY
W
SciTegic.value.DoubleValue
-64.314

@<SCITEGIC>MOL_PROPERTY
W(PB)
SciTegic.value.DoubleValue
-66.406

@<SCITEGIC>MOL_PROPERTY
W(SA)
SciTegic.value.DoubleValue
2.093

@<SCITEGIC>MOL_PROPERTY
Valence
SciTegic.value.DoubleValue
14.072

@<SCITEGIC>MOL_PROPERTY
Coulomb
SciTegic.value.DoubleValue
-0.199

@<SCITEGIC>MOL_PROPERTY
VdW
SciTegic.value.DoubleValue
0.592

@<SCITEGIC>MOL_PROPERTY
VdW6
SciTegic.value.DoubleValue
-5.019

@<SCITEGIC>MOL_PROPERTY
VdW12
SciTegic.value.DoubleValue
5.611

@<SCITEGIC>MOL_PROPERTY
Bond
SciTegic.value.DoubleValue
0.085

@<SCITEGIC>MOL_PROPERTY
Angle
SciTegic.value.DoubleValue
2.748

@<SCITEGIC>MOL_PROPERTY
Pdih
SciTegic.value.DoubleValue
11.238

@<SCITEGIC>MOL_PROPERTY
Idih
SciTegic.value.DoubleValue
0.001

@<SCITEGIC>MOL_PROPERTY
Tether
SciTegic.value.DoubleValue
0.000

@<TRIPOS>MOLECULE
guest-s20_confgen4.mol2 : confsearch ligand conformer 291
          17          16           1
SMALL
USER_CHARGES
 
@<TRIPOS>ATOM
       1    C1      19.609216   22.307144   21.353742 C.2        1 MOL1         0.6132
       2    O1      18.846664   22.519375   20.431552 O.co2      1 MOL1        -0.6749
       3    O2      20.632629   22.936092   21.537775 O.co2      1 MOL1        -0.6749
       4    C2      19.258487   21.195562   22.334038 C.3        1 MOL1        -0.1955
       5    H1      18.180774   21.247185   22.527377 H          1 MOL1         0.0733
       6    H2      19.765133   21.403502   23.284149 H          1 MOL1         0.0733
       7    C3      19.628347   19.820983   21.810129 C.2        1 MOL1        -0.1395
       8    H3      19.046406   19.476896   20.955641 H          1 MOL1         0.0816
       9    C4      20.593230   19.054544   22.327622 C.2        1 MOL1        -0.1394
      10    H4      21.176753   19.400482   23.180199 H          1 MOL1         0.0816
      11    C5      20.963173   17.685720   21.801518 C.3        1 MOL1        -0.1826
      12    H5      20.521881   17.523426   20.808470 H          1 MOL1         0.0736
      13    H6      22.052458   17.618329   21.677208 H          1 MOL1         0.0736
      14    C6      20.485789   16.576672   22.759211 C.3        1 MOL1        -0.2882
      15    H7      19.394808   16.608058   22.879110 H          1 MOL1         0.0749
      16    H8      20.757620   15.585887   22.372510 H          1 MOL1         0.0749
      17    H9      20.942346   16.692251   23.750991 H          1 MOL1         0.0749
@<TRIPOS>BOND
    1     1     2    1
    2     1     3    2
    3     1     4    1
    4     4     5    1
    5     4     6    1
    6     4     7    1
    7     7     8    1
    8     7     9    2
    9     9    10    1
   10     9    11    1
   11    11    12    1
   12    11    13    1
   13    11    14    1
   14    14    15    1
   15    14    16    1
   16    14    17    1
@<TRIPOS>SUBSTRUCTURE
       1 MOL1            1 RESIDUE      1      MOL     
@<SCITEGIC>MOL_PROPERTY
VConf Rank
SciTegic.value.IntegerValue
291

@<SCITEGIC>MOL_PROPERTY
Conf_Id
SciTegic.value.IntegerValue
38

@<SCITEGIC>MOL_PROPERTY
Delta U+W
SciTegic.value.DoubleValue
0.000

@<SCITEGIC>MOL_PROPERTY
U+W
SciTegic.value.DoubleValue
-49.427

@<SCITEGIC>MOL_PROPERTY
Grad RMS
SciTegic.value.DoubleValue
0.000000

@<SCITEGIC>MOL_PROPERTY
U
SciTegic.value.DoubleValue
13.666

@<SCITEGIC>MOL_PROPERTY
W
SciTegic.value.DoubleValue
-63.093

@<SCITEGIC>MOL_PROPERTY
W(PB)
SciTegic.value.DoubleValue
-65.225

@<SCITEGIC>MOL_PROPERTY
W(SA)
SciTegic.value.DoubleValue
2.132

@<SCITEGIC>MOL_PROPERTY
Valence
SciTegic.value.DoubleValue
15.226

@<SCITEGIC>MOL_PROPERTY
Coulomb
SciTegic.value.DoubleValue
-1.822

@<SCITEGIC>MOL_PROPERTY
VdW
SciTegic.value.DoubleValue
0.261

@<SCITEGIC>MOL_PROPERTY
VdW6
SciTegic.value.DoubleValue
-4.165

@<SCITEGIC>MOL_PROPERTY
VdW12
SciTegic.value.DoubleValue
4.426

@<SCITEGIC>MOL_PROPERTY
Bond
SciTegic.value.DoubleValue
0.044

@<SCITEGIC>MOL_PROPERTY
Angle
SciTegic.value.DoubleValue
2.229

@<SCITEGIC>MOL_PROPERTY
Pdih
SciTegic.value.DoubleValue
12.953

@<SCITEGIC>MOL_PROPERTY
Idih
SciTegic.value.DoubleValue
0.000

@<SCITEGIC>MOL_PROPERTY
Tether
SciTegic.value.DoubleValue
0.000

@<TRIPOS>MOLECULE
guest-s20_confgen4.mol2 : confsearch ligand conformer 292
          17          16           1
SMALL
USER_CHARGES
 
@<TRIPOS>ATOM
       1    C1      22.703129   19.265075   23.884673 C.2        1 MOL1         0.6132
       2    O1      22.460884   18.727144   24.947107 O.co2      1 MOL1        -0.6749
       3    O2      23.438278   20.226017   23.770195 O.co2      1 MOL1        -0.6749
       4    C2      22.055520   18.702634   22.626156 C.3        1 MOL1        -0.1955
       5    H1      21.799404   17.652628   22.811987 H          1 MOL1         0.0733
       6    H2      22.807893   18.712888   21.829075 H          1 MOL1         0.0733
       7    C3      20.833376   19.492927   22.198903 C.2        1 MOL1        -0.1395
       8    H3      21.033742   20.503270   21.843569 H          1 MOL1         0.0816
       9    C4      19.582749   19.023518   22.241489 C.2        1 MOL1        -0.1394
      10    H4      19.382791   18.014256   22.599913 H          1 MOL1         0.0816
      11    C5      18.364905   19.814397   21.818773 C.3        1 MOL1        -0.1826
      12    H5      17.588634   19.741440   22.592475 H          1 MOL1         0.0736
      13    H6      18.613549   20.880165   21.721132 H          1 MOL1         0.0736
      14    C6      17.805597   19.296380   20.479410 C.3        1 MOL1        -0.2882
      15    H7      17.512483   18.241318   20.559149 H          1 MOL1         0.0749
      16    H8      16.921731   19.873584   20.178243 H          1 MOL1         0.0749
      17    H9      18.556861   19.383461   19.683408 H          1 MOL1         0.0749
@<TRIPOS>BOND
    1     1     2    1
    2     1     3    2
    3     1     4    1
    4     4     5    1
    5     4     6    1
    6     4     7    1
    7     7     8    1
    8     7     9    2
    9     9    10    1
   10     9    11    1
   11    11    12    1
   12    11    13    1
   13    11    14    1
   14    14    15    1
   15    14    16    1
   16    14    17    1
@<TRIPOS>SUBSTRUCTURE
       1 MOL1            1 RESIDUE      1      MOL     
@<SCITEGIC>MOL_PROPERTY
VConf Rank
SciTegic.value.IntegerValue
292

@<SCITEGIC>MOL_PROPERTY
Conf_Id
SciTegic.value.IntegerValue
35

@<SCITEGIC>MOL_PROPERTY
Delta U+W
SciTegic.value.DoubleValue
-0.102

@<SCITEGIC>MOL_PROPERTY
U+W
SciTegic.value.DoubleValue
-49.529

@<SCITEGIC>MOL_PROPERTY
Grad RMS
SciTegic.value.DoubleValue
0.000000

@<SCITEGIC>MOL_PROPERTY
U
SciTegic.value.DoubleValue
13.666

@<SCITEGIC>MOL_PROPERTY
W
SciTegic.value.DoubleValue
-63.195

@<SCITEGIC>MOL_PROPERTY
W(PB)
SciTegic.value.DoubleValue
-65.299

@<SCITEGIC>MOL_PROPERTY
W(SA)
SciTegic.value.DoubleValue
2.103

@<SCITEGIC>MOL_PROPERTY
Valence
SciTegic.value.DoubleValue
15.226

@<SCITEGIC>MOL_PROPERTY
Coulomb
SciTegic.value.DoubleValue
-1.822

@<SCITEGIC>MOL_PROPERTY
VdW
SciTegic.value.DoubleValue
0.261

@<SCITEGIC>MOL_PROPERTY
VdW6
SciTegic.value.DoubleValue
-4.165

@<SCITEGIC>MOL_PROPERTY
VdW12
SciTegic.value.DoubleValue
4.426

@<SCITEGIC>MOL_PROPERTY
Bond
SciTegic.value.DoubleValue
0.044

@<SCITEGIC>MOL_PROPERTY
Angle
SciTegic.value.DoubleValue
2.229

@<SCITEGIC>MOL_PROPERTY
Pdih
SciTegic.value.DoubleValue
12.953

@<SCITEGIC>MOL_PROPERTY
Idih
SciTegic.value.DoubleValue
0.000

@<SCITEGIC>MOL_PROPERTY
Tether
SciTegic.value.DoubleValue
0.000

@<TRIPOS>MOLECULE
guest-s20_confgen4.mol2 : confsearch ligand conformer 293
          17          16           1
SMALL
USER_CHARGES
 
@<TRIPOS>ATOM
       1    C1      21.411611   21.632737   21.269144 C.2        1 MOL1         0.6132
       2    O1      20.558997   22.318996   20.740876 O.co2      1 MOL1        -0.6749
       3    O2      22.221691   22.062868   22.066395 O.co2      1 MOL1        -0.6749
       4    C2      21.472463   20.155463   20.903561 C.3        1 MOL1        -0.1955
       5    H1      22.490652   19.796323   21.095639 H          1 MOL1         0.0733
       6    H2      21.301028   20.070397   19.824263 H          1 MOL1         0.0733
       7    C3      20.450458   19.327765   21.659754 C.2        1 MOL1        -0.1395
       8    H3      19.414700   19.529739   21.392357 H          1 MOL1         0.0816
       9    C4      20.766472   18.418722   22.590608 C.2        1 MOL1        -0.1394
      10    H4      21.814271   18.246925   22.834917 H          1 MOL1         0.0816
      11    C5      19.797873   17.560279   23.386524 C.3        1 MOL1        -0.1826
      12    H5      20.040972   16.501849   23.221798 H          1 MOL1         0.0736
      13    H6      19.962344   17.737484   24.458003 H          1 MOL1         0.0736
      14    C6      18.305134   17.789946   23.062468 C.3        1 MOL1        -0.2882
      15    H7      18.092280   17.569122   22.008271 H          1 MOL1         0.0749
      16    H8      17.672869   17.136051   23.677034 H          1 MOL1         0.0749
      17    H9      18.013048   18.828455   23.266607 H          1 MOL1         0.0749
@<TRIPOS>BOND
    1     1     2    1
    2     1     3    2
    3     1     4    1
    4     4     5    1
    5     4     6    1
    6     4     7    1
    7     7     8    1
    8     7     9    2
    9     9    10    1
   10     9    11    1
   11    11    12    1
   12    11    13    1
   13    11    14    1
   14    14    15    1
   15    14    16    1
   16    14    17    1
@<TRIPOS>SUBSTRUCTURE
       1 MOL1            1 RESIDUE      1      MOL     
@<SCITEGIC>MOL_PROPERTY
VConf Rank
SciTegic.value.IntegerValue
293

@<SCITEGIC>MOL_PROPERTY
Conf_Id
SciTegic.value.IntegerValue
19

@<SCITEGIC>MOL_PROPERTY
Delta U+W
SciTegic.value.DoubleValue
-0.496

@<SCITEGIC>MOL_PROPERTY
U+W
SciTegic.value.DoubleValue
-49.923

@<SCITEGIC>MOL_PROPERTY
Grad RMS
SciTegic.value.DoubleValue
0.000000

@<SCITEGIC>MOL_PROPERTY
U
SciTegic.value.DoubleValue
13.863

@<SCITEGIC>MOL_PROPERTY
W
SciTegic.value.DoubleValue
-63.786

@<SCITEGIC>MOL_PROPERTY
W(PB)
SciTegic.value.DoubleValue
-65.856

@<SCITEGIC>MOL_PROPERTY
W(SA)
SciTegic.value.DoubleValue
2.070

@<SCITEGIC>MOL_PROPERTY
Valence
SciTegic.value.DoubleValue
14.117

@<SCITEGIC>MOL_PROPERTY
Coulomb
SciTegic.value.DoubleValue
-1.228

@<SCITEGIC>MOL_PROPERTY
VdW
SciTegic.value.DoubleValue
0.974

@<SCITEGIC>MOL_PROPERTY
VdW6
SciTegic.value.DoubleValue
-4.885

@<SCITEGIC>MOL_PROPERTY
VdW12
SciTegic.value.DoubleValue
5.859

@<SCITEGIC>MOL_PROPERTY
Bond
SciTegic.value.DoubleValue
0.094

@<SCITEGIC>MOL_PROPERTY
Angle
SciTegic.value.DoubleValue
2.818

@<SCITEGIC>MOL_PROPERTY
Pdih
SciTegic.value.DoubleValue
11.205

@<SCITEGIC>MOL_PROPERTY
Idih
SciTegic.value.DoubleValue
0.000

@<SCITEGIC>MOL_PROPERTY
Tether
SciTegic.value.DoubleValue
0.000

@<TRIPOS>MOLECULE
guest-s20_confgen4.mol2 : confsearch ligand conformer 294
          17          16           1
SMALL
USER_CHARGES
 
@<TRIPOS>ATOM
       1    C1      21.185613   21.799677   21.925805 C.2        1 MOL1         0.6132
       2    O1      21.324430   22.145671   23.082452 O.co2      1 MOL1        -0.6749
       3    O2      22.026720   21.975216   21.066312 O.co2      1 MOL1        -0.6749
       4    C2      19.883083   21.118409   21.526913 C.3        1 MOL1        -0.1955
       5    H1      19.575220   21.526653   20.557355 H          1 MOL1         0.0733
       6    H2      19.111666   21.400589   22.253511 H          1 MOL1         0.0733
       7    C3      20.020030   19.610432   21.437390 C.2        1 MOL1        -0.1395
       8    H3      20.655371   19.248334   20.629651 H          1 MOL1         0.0816
       9    C4      19.428254   18.751476   22.272981 C.2        1 MOL1        -0.1394
      10    H4      18.797200   19.114319   23.083644 H          1 MOL1         0.0816
      11    C5      19.568477   17.248243   22.183748 C.3        1 MOL1        -0.1826
      12    H5      18.577228   16.778916   22.244416 H          1 MOL1         0.0736
      13    H6      19.995615   16.958935   21.213665 H          1 MOL1         0.0736
      14    C6      20.463142   16.707769   23.316203 C.3        1 MOL1        -0.2882
      15    H7      20.038956   16.949382   24.299623 H          1 MOL1         0.0749
      16    H8      20.561852   15.616689   23.246430 H          1 MOL1         0.0749
      17    H9      21.468718   17.145299   23.260822 H          1 MOL1         0.0749
@<TRIPOS>BOND
    1     1     2    1
    2     1     3    2
    3     1     4    1
    4     4     5    1
    5     4     6    1
    6     4     7    1
    7     7     8    1
    8     7     9    2
    9     9    10    1
   10     9    11    1
   11    11    12    1
   12    11    13    1
   13    11    14    1
   14    14    15    1
   15    14    16    1
   16    14    17    1
@<TRIPOS>SUBSTRUCTURE
       1 MOL1            1 RESIDUE      1      MOL     
@<SCITEGIC>MOL_PROPERTY
VConf Rank
SciTegic.value.IntegerValue
294

@<SCITEGIC>MOL_PROPERTY
Conf_Id
SciTegic.value.IntegerValue
7

@<SCITEGIC>MOL_PROPERTY
Delta U+W
SciTegic.value.DoubleValue
-0.041

@<SCITEGIC>MOL_PROPERTY
U+W
SciTegic.value.DoubleValue
-49.468

@<SCITEGIC>MOL_PROPERTY
Grad RMS
SciTegic.value.DoubleValue
0.000000

@<SCITEGIC>MOL_PROPERTY
U
SciTegic.value.DoubleValue
14.121

@<SCITEGIC>MOL_PROPERTY
W
SciTegic.value.DoubleValue
-63.589

@<SCITEGIC>MOL_PROPERTY
W(PB)
SciTegic.value.DoubleValue
-65.660

@<SCITEGIC>MOL_PROPERTY
W(SA)
SciTegic.value.DoubleValue
2.071

@<SCITEGIC>MOL_PROPERTY
Valence
SciTegic.value.DoubleValue
15.230

@<SCITEGIC>MOL_PROPERTY
Coulomb
SciTegic.value.DoubleValue
-1.333

@<SCITEGIC>MOL_PROPERTY
VdW
SciTegic.value.DoubleValue
0.224

@<SCITEGIC>MOL_PROPERTY
VdW6
SciTegic.value.DoubleValue
-4.212

@<SCITEGIC>MOL_PROPERTY
VdW12
SciTegic.value.DoubleValue
4.436

@<SCITEGIC>MOL_PROPERTY
Bond
SciTegic.value.DoubleValue
0.044

@<SCITEGIC>MOL_PROPERTY
Angle
SciTegic.value.DoubleValue
2.230

@<SCITEGIC>MOL_PROPERTY
Pdih
SciTegic.value.DoubleValue
12.956

@<SCITEGIC>MOL_PROPERTY
Idih
SciTegic.value.DoubleValue
0.000

@<SCITEGIC>MOL_PROPERTY
Tether
SciTegic.value.DoubleValue
0.000

@<TRIPOS>MOLECULE
guest-s20_confgen4.mol2 : confsearch ligand conformer 295
          17          16           1
SMALL
USER_CHARGES
 
@<TRIPOS>ATOM
       1    C1      19.499190   21.928862   21.848755 C.2        1 MOL1         0.6132
       2    O1      20.608093   22.415645   21.746929 O.co2      1 MOL1        -0.6749
       3    O2      18.659610   22.329163   22.631026 O.co2      1 MOL1        -0.6749
       4    C2      19.131528   20.771094   20.925730 C.3        1 MOL1        -0.1955
       5    H1      19.666039   20.912830   19.979169 H          1 MOL1         0.0733
       6    H2      18.065440   20.858505   20.685865 H          1 MOL1         0.0733
       7    C3      19.419499   19.379341   21.470682 C.2        1 MOL1        -0.1395
       8    H3      19.149484   18.567803   20.796114 H          1 MOL1         0.0816
       9    C4      19.957627   19.097224   22.663085 C.2        1 MOL1        -0.1394
      10    H4      20.237444   19.889894   23.355983 H          1 MOL1         0.0816
      11    C5      20.222550   17.692917   23.158745 C.3        1 MOL1        -0.1826
      12    H5      19.838346   17.582551   24.181841 H          1 MOL1         0.0736
      13    H6      19.687691   16.958888   22.540455 H          1 MOL1         0.0736
      14    C6      21.730201   17.374111   23.139063 C.3        1 MOL1        -0.2882
      15    H7      21.916676   16.354634   23.500940 H          1 MOL1         0.0749
      16    H8      22.131991   17.453093   22.120279 H          1 MOL1         0.0749
      17    H9      22.286001   18.070518   23.780594 H          1 MOL1         0.0749
@<TRIPOS>BOND
    1     1     2    1
    2     1     3    2
    3     1     4    1
    4     4     5    1
    5     4     6    1
    6     4     7    1
    7     7     8    1
    8     7     9    2
    9     9    10    1
   10     9    11    1
   11    11    12    1
   12    11    13    1
   13    11    14    1
   14    14    15    1
   15    14    16    1
   16    14    17    1
@<TRIPOS>SUBSTRUCTURE
       1 MOL1            1 RESIDUE      1      MOL     
@<SCITEGIC>MOL_PROPERTY
VConf Rank
SciTegic.value.IntegerValue
295

@<SCITEGIC>MOL_PROPERTY
Conf_Id
SciTegic.value.IntegerValue
39

@<SCITEGIC>MOL_PROPERTY
Delta U+W
SciTegic.value.DoubleValue
-0.422

@<SCITEGIC>MOL_PROPERTY
U+W
SciTegic.value.DoubleValue
-49.849

@<SCITEGIC>MOL_PROPERTY
Grad RMS
SciTegic.value.DoubleValue
0.000000

@<SCITEGIC>MOL_PROPERTY
U
SciTegic.value.DoubleValue
14.465

@<SCITEGIC>MOL_PROPERTY
W
SciTegic.value.DoubleValue
-64.314

@<SCITEGIC>MOL_PROPERTY
W(PB)
SciTegic.value.DoubleValue
-66.406

@<SCITEGIC>MOL_PROPERTY
W(SA)
SciTegic.value.DoubleValue
2.093

@<SCITEGIC>MOL_PROPERTY
Valence
SciTegic.value.DoubleValue
14.072

@<SCITEGIC>MOL_PROPERTY
Coulomb
SciTegic.value.DoubleValue
-0.199

@<SCITEGIC>MOL_PROPERTY
VdW
SciTegic.value.DoubleValue
0.592

@<SCITEGIC>MOL_PROPERTY
VdW6
SciTegic.value.DoubleValue
-5.019

@<SCITEGIC>MOL_PROPERTY
VdW12
SciTegic.value.DoubleValue
5.611

@<SCITEGIC>MOL_PROPERTY
Bond
SciTegic.value.DoubleValue
0.085

@<SCITEGIC>MOL_PROPERTY
Angle
SciTegic.value.DoubleValue
2.748

@<SCITEGIC>MOL_PROPERTY
Pdih
SciTegic.value.DoubleValue
11.238

@<SCITEGIC>MOL_PROPERTY
Idih
SciTegic.value.DoubleValue
0.001

@<SCITEGIC>MOL_PROPERTY
Tether
SciTegic.value.DoubleValue
0.000

@<TRIPOS>MOLECULE
guest-s20_confgen4.mol2 : confsearch ligand conformer 296
          17          16           1
SMALL
USER_CHARGES
 
@<TRIPOS>ATOM
       1    C1      19.458560   16.713811   23.849178 C.2        1 MOL1         0.6132
       2    O1      19.627219   16.816620   25.048321 O.co2      1 MOL1        -0.6749
       3    O2      19.741986   15.717478   23.213718 O.co2      1 MOL1        -0.6749
       4    C2      18.853950   17.897239   23.105167 C.3        1 MOL1        -0.1955
       5    H1      18.052411   18.310527   23.728253 H          1 MOL1         0.0733
       6    H2      18.385653   17.522376   22.187117 H          1 MOL1         0.0733
       7    C3      19.877950   18.971942   22.793429 C.2        1 MOL1        -0.1395
       8    H3      20.271136   19.504689   23.658754 H          1 MOL1         0.0816
       9    C4      20.297928   19.274445   21.561220 C.2        1 MOL1        -0.1394
      10    H4      19.906551   18.739298   20.696638 H          1 MOL1         0.0816
      11    C5      21.321881   20.343834   21.252598 C.3        1 MOL1        -0.1826
      12    H5      21.847358   20.648535   22.168159 H          1 MOL1         0.0736
      13    H6      22.083650   19.941936   20.570893 H          1 MOL1         0.0736
      14    C6      20.657890   21.577733   20.610984 C.3        1 MOL1        -0.2882
      15    H7      19.909227   22.012850   21.286098 H          1 MOL1         0.0749
      16    H8      21.405858   22.349901   20.388754 H          1 MOL1         0.0749
      17    H9      20.156505   21.308894   19.671960 H          1 MOL1         0.0749
@<TRIPOS>BOND
    1     1     2    1
    2     1     3    2
    3     1     4    1
    4     4     5    1
    5     4     6    1
    6     4     7    1
    7     7     8    1
    8     7     9    2
    9     9    10    1
   10     9    11    1
   11    11    12    1
   12    11    13    1
   13    11    14    1
   14    14    15    1
   15    14    16    1
   16    14    17    1
@<TRIPOS>SUBSTRUCTURE
       1 MOL1            1 RESIDUE      1      MOL     
@<SCITEGIC>MOL_PROPERTY
VConf Rank
SciTegic.value.IntegerValue
296

@<SCITEGIC>MOL_PROPERTY
Conf_Id
SciTegic.value.IntegerValue
38

@<SCITEGIC>MOL_PROPERTY
Delta U+W
SciTegic.value.DoubleValue
0.000

@<SCITEGIC>MOL_PROPERTY
U+W
SciTegic.value.DoubleValue
-49.427

@<SCITEGIC>MOL_PROPERTY
Grad RMS
SciTegic.value.DoubleValue
0.000000

@<SCITEGIC>MOL_PROPERTY
U
SciTegic.value.DoubleValue
13.666

@<SCITEGIC>MOL_PROPERTY
W
SciTegic.value.DoubleValue
-63.093

@<SCITEGIC>MOL_PROPERTY
W(PB)
SciTegic.value.DoubleValue
-65.225

@<SCITEGIC>MOL_PROPERTY
W(SA)
SciTegic.value.DoubleValue
2.132

@<SCITEGIC>MOL_PROPERTY
Valence
SciTegic.value.DoubleValue
15.226

@<SCITEGIC>MOL_PROPERTY
Coulomb
SciTegic.value.DoubleValue
-1.822

@<SCITEGIC>MOL_PROPERTY
VdW
SciTegic.value.DoubleValue
0.261

@<SCITEGIC>MOL_PROPERTY
VdW6
SciTegic.value.DoubleValue
-4.165

@<SCITEGIC>MOL_PROPERTY
VdW12
SciTegic.value.DoubleValue
4.426

@<SCITEGIC>MOL_PROPERTY
Bond
SciTegic.value.DoubleValue
0.044

@<SCITEGIC>MOL_PROPERTY
Angle
SciTegic.value.DoubleValue
2.229

@<SCITEGIC>MOL_PROPERTY
Pdih
SciTegic.value.DoubleValue
12.953

@<SCITEGIC>MOL_PROPERTY
Idih
SciTegic.value.DoubleValue
0.000

@<SCITEGIC>MOL_PROPERTY
Tether
SciTegic.value.DoubleValue
0.000

@<TRIPOS>MOLECULE
guest-s20_confgen4.mol2 : confsearch ligand conformer 297
          17          16           1
SMALL
USER_CHARGES
 
@<TRIPOS>ATOM
       1    C1      22.472779   18.855820   20.067855 C.2        1 MOL1         0.6132
       2    O1      22.054597   18.985064   18.934172 O.co2      1 MOL1        -0.6749
       3    O2      23.321251   18.044711   20.382747 O.co2      1 MOL1        -0.6749
       4    C2      21.908113   19.762350   21.153655 C.3        1 MOL1        -0.1955
       5    H1      21.514483   20.667047   20.674887 H          1 MOL1         0.0733
       6    H2      22.740167   20.075161   21.795015 H          1 MOL1         0.0733
       7    C3      20.839266   19.077782   21.984123 C.2        1 MOL1        -0.1395
       8    H3      21.192048   18.263543   22.616389 H          1 MOL1         0.0816
       9    C4      19.546118   19.415108   21.969705 C.2        1 MOL1        -0.1394
      10    H4      19.193521   20.227321   21.334845 H          1 MOL1         0.0816
      11    C5      18.481082   18.728767   22.795510 C.3        1 MOL1        -0.1826
      12    H5      17.620839   18.481002   22.159014 H          1 MOL1         0.0736
      13    H6      18.859392   17.778986   23.198025 H          1 MOL1         0.0736
      14    C6      18.017614   19.627154   23.958764 C.3        1 MOL1        -0.2882
      15    H7      17.598606   20.569762   23.582800 H          1 MOL1         0.0749
      16    H8      17.244397   19.124118   24.553891 H          1 MOL1         0.0749
      17    H9      18.857252   19.867407   24.624262 H          1 MOL1         0.0749
@<TRIPOS>BOND
    1     1     2    1
    2     1     3    2
    3     1     4    1
    4     4     5    1
    5     4     6    1
    6     4     7    1
    7     7     8    1
    8     7     9    2
    9     9    10    1
   10     9    11    1
   11    11    12    1
   12    11    13    1
   13    11    14    1
   14    14    15    1
   15    14    16    1
   16    14    17    1
@<TRIPOS>SUBSTRUCTURE
       1 MOL1            1 RESIDUE      1      MOL     
@<SCITEGIC>MOL_PROPERTY
VConf Rank
SciTegic.value.IntegerValue
297

@<SCITEGIC>MOL_PROPERTY
Conf_Id
SciTegic.value.IntegerValue
35

@<SCITEGIC>MOL_PROPERTY
Delta U+W
SciTegic.value.DoubleValue
-0.102

@<SCITEGIC>MOL_PROPERTY
U+W
SciTegic.value.DoubleValue
-49.529

@<SCITEGIC>MOL_PROPERTY
Grad RMS
SciTegic.value.DoubleValue
0.000000

@<SCITEGIC>MOL_PROPERTY
U
SciTegic.value.DoubleValue
13.666

@<SCITEGIC>MOL_PROPERTY
W
SciTegic.value.DoubleValue
-63.195

@<SCITEGIC>MOL_PROPERTY
W(PB)
SciTegic.value.DoubleValue
-65.299

@<SCITEGIC>MOL_PROPERTY
W(SA)
SciTegic.value.DoubleValue
2.103

@<SCITEGIC>MOL_PROPERTY
Valence
SciTegic.value.DoubleValue
15.226

@<SCITEGIC>MOL_PROPERTY
Coulomb
SciTegic.value.DoubleValue
-1.822

@<SCITEGIC>MOL_PROPERTY
VdW
SciTegic.value.DoubleValue
0.261

@<SCITEGIC>MOL_PROPERTY
VdW6
SciTegic.value.DoubleValue
-4.165

@<SCITEGIC>MOL_PROPERTY
VdW12
SciTegic.value.DoubleValue
4.426

@<SCITEGIC>MOL_PROPERTY
Bond
SciTegic.value.DoubleValue
0.044

@<SCITEGIC>MOL_PROPERTY
Angle
SciTegic.value.DoubleValue
2.229

@<SCITEGIC>MOL_PROPERTY
Pdih
SciTegic.value.DoubleValue
12.953

@<SCITEGIC>MOL_PROPERTY
Idih
SciTegic.value.DoubleValue
0.000

@<SCITEGIC>MOL_PROPERTY
Tether
SciTegic.value.DoubleValue
0.000

@<TRIPOS>MOLECULE
guest-s20_confgen4.mol2 : confsearch ligand conformer 298
          17          16           1
SMALL
USER_CHARGES
 
@<TRIPOS>ATOM
       1    C1      19.546642   20.816906   19.901743 C.2        1 MOL1         0.6132
       2    O1      19.750790   21.981773   20.181707 O.co2      1 MOL1        -0.6749
       3    O2      19.889391   20.307854   18.852821 O.co2      1 MOL1        -0.6749
       4    C2      18.812777   19.952152   20.918275 C.3        1 MOL1        -0.1955
       5    H1      18.340645   19.119604   20.382980 H          1 MOL1         0.0733
       6    H2      18.005134   20.554889   21.349472 H          1 MOL1         0.0733
       7    C3      19.727576   19.445214   22.017166 C.2        1 MOL1        -0.1395
       8    H3      20.104646   20.216679   22.686307 H          1 MOL1         0.0816
       9    C4      20.066505   18.159329   22.173173 C.2        1 MOL1        -0.1394
      10    H4      19.672806   17.415766   21.480930 H          1 MOL1         0.0816
      11    C5      20.977252   17.584412   23.244901 C.3        1 MOL1        -0.1826
      12    H5      20.426509   16.818819   23.807977 H          1 MOL1         0.0736
      13    H6      21.807537   17.053603   22.759732 H          1 MOL1         0.0736
      14    C6      21.553399   18.620238   24.235430 C.3        1 MOL1        -0.2882
      15    H7      20.750220   19.133929   24.779881 H          1 MOL1         0.0749
      16    H8      22.199046   18.128312   24.974468 H          1 MOL1         0.0749
      17    H9      22.155989   19.373642   23.711256 H          1 MOL1         0.0749
@<TRIPOS>BOND
    1     1     2    1
    2     1     3    2
    3     1     4    1
    4     4     5    1
    5     4     6    1
    6     4     7    1
    7     7     8    1
    8     7     9    2
    9     9    10    1
   10     9    11    1
   11    11    12    1
   12    11    13    1
   13    11    14    1
   14    14    15    1
   15    14    16    1
   16    14    17    1
@<TRIPOS>SUBSTRUCTURE
       1 MOL1            1 RESIDUE      1      MOL     
@<SCITEGIC>MOL_PROPERTY
VConf Rank
SciTegic.value.IntegerValue
298

@<SCITEGIC>MOL_PROPERTY
Conf_Id
SciTegic.value.IntegerValue
19

@<SCITEGIC>MOL_PROPERTY
Delta U+W
SciTegic.value.DoubleValue
-0.496

@<SCITEGIC>MOL_PROPERTY
U+W
SciTegic.value.DoubleValue
-49.923

@<SCITEGIC>MOL_PROPERTY
Grad RMS
SciTegic.value.DoubleValue
0.000000

@<SCITEGIC>MOL_PROPERTY
U
SciTegic.value.DoubleValue
13.863

@<SCITEGIC>MOL_PROPERTY
W
SciTegic.value.DoubleValue
-63.786

@<SCITEGIC>MOL_PROPERTY
W(PB)
SciTegic.value.DoubleValue
-65.856

@<SCITEGIC>MOL_PROPERTY
W(SA)
SciTegic.value.DoubleValue
2.070

@<SCITEGIC>MOL_PROPERTY
Valence
SciTegic.value.DoubleValue
14.117

@<SCITEGIC>MOL_PROPERTY
Coulomb
SciTegic.value.DoubleValue
-1.228

@<SCITEGIC>MOL_PROPERTY
VdW
SciTegic.value.DoubleValue
0.974

@<SCITEGIC>MOL_PROPERTY
VdW6
SciTegic.value.DoubleValue
-4.885

@<SCITEGIC>MOL_PROPERTY
VdW12
SciTegic.value.DoubleValue
5.859

@<SCITEGIC>MOL_PROPERTY
Bond
SciTegic.value.DoubleValue
0.094

@<SCITEGIC>MOL_PROPERTY
Angle
SciTegic.value.DoubleValue
2.818

@<SCITEGIC>MOL_PROPERTY
Pdih
SciTegic.value.DoubleValue
11.205

@<SCITEGIC>MOL_PROPERTY
Idih
SciTegic.value.DoubleValue
0.000

@<SCITEGIC>MOL_PROPERTY
Tether
SciTegic.value.DoubleValue
0.000

@<TRIPOS>MOLECULE
guest-s20_confgen4.mol2 : confsearch ligand conformer 299
          17          16           1
SMALL
USER_CHARGES
 
@<TRIPOS>ATOM
       1    C1      21.584573   20.717318   24.174452 C.2        1 MOL1         0.6132
       2    O1      22.299177   21.399484   23.466778 O.co2      1 MOL1        -0.6749
       3    O2      20.922131   21.164107   25.090177 O.co2      1 MOL1        -0.6749
       4    C2      21.522447   19.219002   23.907958 C.3        1 MOL1        -0.1955
       5    H1      21.539870   18.705896   24.876412 H          1 MOL1         0.0733
       6    H2      22.434699   18.927320   23.373758 H          1 MOL1         0.0733
       7    C3      20.284387   18.818535   23.128472 C.2        1 MOL1        -0.1395
       8    H3      19.341268   18.935481   23.661451 H          1 MOL1         0.0816
       9    C4      20.302816   18.358374   21.873830 C.2        1 MOL1        -0.1394
      10    H4      21.245743   18.246510   21.339569 H          1 MOL1         0.0816
      11    C5      19.066865   17.962370   21.097337 C.3        1 MOL1        -0.1826
      12    H5      19.220842   16.980026   20.630633 H          1 MOL1         0.0736
      13    H6      18.205651   17.859626   21.771846 H          1 MOL1         0.0736
      14    C6      18.740329   19.003055   20.008604 C.3        1 MOL1        -0.2882
      15    H7      19.570348   19.098252   19.296262 H          1 MOL1         0.0749
      16    H8      17.842470   18.711025   19.448572 H          1 MOL1         0.0749
      17    H9      18.557960   19.989627   20.454809 H          1 MOL1         0.0749
@<TRIPOS>BOND
    1     1     2    1
    2     1     3    2
    3     1     4    1
    4     4     5    1
    5     4     6    1
    6     4     7    1
    7     7     8    1
    8     7     9    2
    9     9    10    1
   10     9    11    1
   11    11    12    1
   12    11    13    1
   13    11    14    1
   14    14    15    1
   15    14    16    1
   16    14    17    1
@<TRIPOS>SUBSTRUCTURE
       1 MOL1            1 RESIDUE      1      MOL     
@<SCITEGIC>MOL_PROPERTY
VConf Rank
SciTegic.value.IntegerValue
299

@<SCITEGIC>MOL_PROPERTY
Conf_Id
SciTegic.value.IntegerValue
7

@<SCITEGIC>MOL_PROPERTY
Delta U+W
SciTegic.value.DoubleValue
-0.041

@<SCITEGIC>MOL_PROPERTY
U+W
SciTegic.value.DoubleValue
-49.468

@<SCITEGIC>MOL_PROPERTY
Grad RMS
SciTegic.value.DoubleValue
0.000000

@<SCITEGIC>MOL_PROPERTY
U
SciTegic.value.DoubleValue
14.121

@<SCITEGIC>MOL_PROPERTY
W
SciTegic.value.DoubleValue
-63.589

@<SCITEGIC>MOL_PROPERTY
W(PB)
SciTegic.value.DoubleValue
-65.660

@<SCITEGIC>MOL_PROPERTY
W(SA)
SciTegic.value.DoubleValue
2.071

@<SCITEGIC>MOL_PROPERTY
Valence
SciTegic.value.DoubleValue
15.230

@<SCITEGIC>MOL_PROPERTY
Coulomb
SciTegic.value.DoubleValue
-1.333

@<SCITEGIC>MOL_PROPERTY
VdW
SciTegic.value.DoubleValue
0.224

@<SCITEGIC>MOL_PROPERTY
VdW6
SciTegic.value.DoubleValue
-4.212

@<SCITEGIC>MOL_PROPERTY
VdW12
SciTegic.value.DoubleValue
4.436

@<SCITEGIC>MOL_PROPERTY
Bond
SciTegic.value.DoubleValue
0.044

@<SCITEGIC>MOL_PROPERTY
Angle
SciTegic.value.DoubleValue
2.230

@<SCITEGIC>MOL_PROPERTY
Pdih
SciTegic.value.DoubleValue
12.956

@<SCITEGIC>MOL_PROPERTY
Idih
SciTegic.value.DoubleValue
0.000

@<SCITEGIC>MOL_PROPERTY
Tether
SciTegic.value.DoubleValue
0.000

@<TRIPOS>MOLECULE
guest-s20_confgen4.mol2 : confsearch ligand conformer 300
          17          16           1
SMALL
USER_CHARGES
 
@<TRIPOS>ATOM
       1    C1      22.841753   19.712706   21.985413 C.2        1 MOL1         0.6132
       2    O1      23.190697   18.673174   21.461386 O.co2      1 MOL1        -0.6749
       3    O2      23.342359   20.153354   23.001438 O.co2      1 MOL1        -0.6749
       4    C2      21.734848   20.522158   21.316739 C.3        1 MOL1        -0.1955
       5    H1      21.808809   20.363223   20.234594 H          1 MOL1         0.0733
       6    H2      21.949944   21.584495   21.480734 H          1 MOL1         0.0733
       7    C3      20.319717   20.210229   21.782554 C.2        1 MOL1        -0.1395
       8    H3      19.545256   20.799157   21.292738 H          1 MOL1         0.0816
       9    C4      19.977298   19.304481   22.706332 C.2        1 MOL1        -0.1394
      10    H4      20.731886   18.701839   23.210467 H          1 MOL1         0.0816
      11    C5      18.552381   19.033435   23.135385 C.3        1 MOL1        -0.1826
      12    H5      18.491562   19.021929   24.232056 H          1 MOL1         0.0736
      13    H6      17.887001   19.837220   22.791360 H          1 MOL1         0.0736
      14    C6      18.053630   17.685528   22.579121 C.3        1 MOL1        -0.2882
      15    H7      17.019903   17.493398   22.894643 H          1 MOL1         0.0749
      16    H8      18.081179   17.682717   21.481474 H          1 MOL1         0.0749
      17    H9      18.679185   16.858029   22.938820 H          1 MOL1         0.0749
@<TRIPOS>BOND
    1     1     2    1
    2     1     3    2
    3     1     4    1
    4     4     5    1
    5     4     6    1
    6     4     7    1
    7     7     8    1
    8     7     9    2
    9     9    10    1
   10     9    11    1
   11    11    12    1
   12    11    13    1
   13    11    14    1
   14    14    15    1
   15    14    16    1
   16    14    17    1
@<TRIPOS>SUBSTRUCTURE
       1 MOL1            1 RESIDUE      1      MOL     
@<SCITEGIC>MOL_PROPERTY
VConf Rank
SciTegic.value.IntegerValue
300

@<SCITEGIC>MOL_PROPERTY
Conf_Id
SciTegic.value.IntegerValue
39

@<SCITEGIC>MOL_PROPERTY
Delta U+W
SciTegic.value.DoubleValue
-0.422

@<SCITEGIC>MOL_PROPERTY
U+W
SciTegic.value.DoubleValue
-49.849

@<SCITEGIC>MOL_PROPERTY
Grad RMS
SciTegic.value.DoubleValue
0.000000

@<SCITEGIC>MOL_PROPERTY
U
SciTegic.value.DoubleValue
14.465

@<SCITEGIC>MOL_PROPERTY
W
SciTegic.value.DoubleValue
-64.314

@<SCITEGIC>MOL_PROPERTY
W(PB)
SciTegic.value.DoubleValue
-66.406

@<SCITEGIC>MOL_PROPERTY
W(SA)
SciTegic.value.DoubleValue
2.093

@<SCITEGIC>MOL_PROPERTY
Valence
SciTegic.value.DoubleValue
14.072

@<SCITEGIC>MOL_PROPERTY
Coulomb
SciTegic.value.DoubleValue
-0.199

@<SCITEGIC>MOL_PROPERTY
VdW
SciTegic.value.DoubleValue
0.592

@<SCITEGIC>MOL_PROPERTY
VdW6
SciTegic.value.DoubleValue
-5.019

@<SCITEGIC>MOL_PROPERTY
VdW12
SciTegic.value.DoubleValue
5.611

@<SCITEGIC>MOL_PROPERTY
Bond
SciTegic.value.DoubleValue
0.085

@<SCITEGIC>MOL_PROPERTY
Angle
SciTegic.value.DoubleValue
2.748

@<SCITEGIC>MOL_PROPERTY
Pdih
SciTegic.value.DoubleValue
11.238

@<SCITEGIC>MOL_PROPERTY
Idih
SciTegic.value.DoubleValue
0.001

@<SCITEGIC>MOL_PROPERTY
Tether
SciTegic.value.DoubleValue
0.000

@<TRIPOS>MOLECULE
guest-s20_confgen4.mol2 : confsearch ligand conformer 301
          17          16           1
SMALL
USER_CHARGES
 
@<TRIPOS>ATOM
       1    C1      20.079582   21.122635   19.536838 C.2        1 MOL1         0.6132
       2    O1      21.153117   21.556809   19.168087 O.co2      1 MOL1        -0.6749
       3    O2      19.052616   21.772291   19.526576 O.co2      1 MOL1        -0.6749
       4    C2      20.019218   19.684093   20.033383 C.3        1 MOL1        -0.1955
       5    H1      20.648475   19.075403   19.373807 H          1 MOL1         0.0733
       6    H2      18.989989   19.323848   19.916973 H          1 MOL1         0.0733
       7    C3      20.484418   19.545645   21.470451 C.2        1 MOL1        -0.1395
       8    H3      21.544958   19.732828   21.636041 H          1 MOL1         0.0816
       9    C4      19.684492   19.221834   22.490987 C.2        1 MOL1        -0.1394
      10    H4      18.623520   19.037707   22.325164 H          1 MOL1         0.0816
      11    C5      20.149394   19.087931   23.923906 C.3        1 MOL1        -0.1826
      12    H5      21.146515   19.532517   24.047649 H          1 MOL1         0.0736
      13    H6      19.472170   19.643366   24.586775 H          1 MOL1         0.0736
      14    C6      20.193032   17.609307   24.356141 C.3        1 MOL1        -0.2882
      15    H7      20.884587   17.038210   23.722736 H          1 MOL1         0.0749
      16    H8      20.530424   17.518563   25.396823 H          1 MOL1         0.0749
      17    H9      19.199204   17.149123   24.278905 H          1 MOL1         0.0749
@<TRIPOS>BOND
    1     1     2    1
    2     1     3    2
    3     1     4    1
    4     4     5    1
    5     4     6    1
    6     4     7    1
    7     7     8    1
    8     7     9    2
    9     9    10    1
   10     9    11    1
   11    11    12    1
   12    11    13    1
   13    11    14    1
   14    14    15    1
   15    14    16    1
   16    14    17    1
@<TRIPOS>SUBSTRUCTURE
       1 MOL1            1 RESIDUE      1      MOL     
@<SCITEGIC>MOL_PROPERTY
VConf Rank
SciTegic.value.IntegerValue
301

@<SCITEGIC>MOL_PROPERTY
Conf_Id
SciTegic.value.IntegerValue
38

@<SCITEGIC>MOL_PROPERTY
Delta U+W
SciTegic.value.DoubleValue
0.000

@<SCITEGIC>MOL_PROPERTY
U+W
SciTegic.value.DoubleValue
-49.427

@<SCITEGIC>MOL_PROPERTY
Grad RMS
SciTegic.value.DoubleValue
0.000000

@<SCITEGIC>MOL_PROPERTY
U
SciTegic.value.DoubleValue
13.666

@<SCITEGIC>MOL_PROPERTY
W
SciTegic.value.DoubleValue
-63.093

@<SCITEGIC>MOL_PROPERTY
W(PB)
SciTegic.value.DoubleValue
-65.225

@<SCITEGIC>MOL_PROPERTY
W(SA)
SciTegic.value.DoubleValue
2.132

@<SCITEGIC>MOL_PROPERTY
Valence
SciTegic.value.DoubleValue
15.226

@<SCITEGIC>MOL_PROPERTY
Coulomb
SciTegic.value.DoubleValue
-1.822

@<SCITEGIC>MOL_PROPERTY
VdW
SciTegic.value.DoubleValue
0.261

@<SCITEGIC>MOL_PROPERTY
VdW6
SciTegic.value.DoubleValue
-4.165

@<SCITEGIC>MOL_PROPERTY
VdW12
SciTegic.value.DoubleValue
4.426

@<SCITEGIC>MOL_PROPERTY
Bond
SciTegic.value.DoubleValue
0.044

@<SCITEGIC>MOL_PROPERTY
Angle
SciTegic.value.DoubleValue
2.229

@<SCITEGIC>MOL_PROPERTY
Pdih
SciTegic.value.DoubleValue
12.953

@<SCITEGIC>MOL_PROPERTY
Idih
SciTegic.value.DoubleValue
0.000

@<SCITEGIC>MOL_PROPERTY
Tether
SciTegic.value.DoubleValue
0.000

@<TRIPOS>MOLECULE
guest-s20_confgen4.mol2 : confsearch ligand conformer 302
          17          16           1
SMALL
USER_CHARGES
 
@<TRIPOS>ATOM
       1    C1      16.950637   18.916044   21.854805 C.2        1 MOL1         0.6132
       2    O1      16.500856   18.581228   22.932958 O.co2      1 MOL1        -0.6749
       3    O2      16.534682   18.495388   20.793207 O.co2      1 MOL1        -0.6749
       4    C2      18.094269   19.921578   21.830130 C.3        1 MOL1        -0.1955
       5    H1      18.062485   20.500255   22.761132 H          1 MOL1         0.0733
       6    H2      17.905419   20.623553   21.009719 H          1 MOL1         0.0733
       7    C3      19.446477   19.258997   21.647746 C.2        1 MOL1        -0.1395
       8    H3      19.611134   18.798395   20.674127 H          1 MOL1         0.0816
       9    C4      20.395469   19.217465   22.587916 C.2        1 MOL1        -0.1394
      10    H4      20.228944   19.675481   23.562365 H          1 MOL1         0.0816
      11    C5      21.741730   18.552876   22.405639 C.3        1 MOL1        -0.1826
      12    H5      21.954539   17.904363   23.266264 H          1 MOL1         0.0736
      13    H6      21.733939   17.905883   21.517631 H          1 MOL1         0.0736
      14    C6      22.862184   19.601345   22.262956 C.3        1 MOL1        -0.2882
      15    H7      22.917999   20.238877   23.155069 H          1 MOL1         0.0749
      16    H8      23.836632   19.113177   22.131702 H          1 MOL1         0.0749
      17    H9      22.684130   20.246200   21.392291 H          1 MOL1         0.0749
@<TRIPOS>BOND
    1     1     2    1
    2     1     3    2
    3     1     4    1
    4     4     5    1
    5     4     6    1
    6     4     7    1
    7     7     8    1
    8     7     9    2
    9     9    10    1
   10     9    11    1
   11    11    12    1
   12    11    13    1
   13    11    14    1
   14    14    15    1
   15    14    16    1
   16    14    17    1
@<TRIPOS>SUBSTRUCTURE
       1 MOL1            1 RESIDUE      1      MOL     
@<SCITEGIC>MOL_PROPERTY
VConf Rank
SciTegic.value.IntegerValue
302

@<SCITEGIC>MOL_PROPERTY
Conf_Id
SciTegic.value.IntegerValue
35

@<SCITEGIC>MOL_PROPERTY
Delta U+W
SciTegic.value.DoubleValue
-0.102

@<SCITEGIC>MOL_PROPERTY
U+W
SciTegic.value.DoubleValue
-49.529

@<SCITEGIC>MOL_PROPERTY
Grad RMS
SciTegic.value.DoubleValue
0.000000

@<SCITEGIC>MOL_PROPERTY
U
SciTegic.value.DoubleValue
13.666

@<SCITEGIC>MOL_PROPERTY
W
SciTegic.value.DoubleValue
-63.195

@<SCITEGIC>MOL_PROPERTY
W(PB)
SciTegic.value.DoubleValue
-65.299

@<SCITEGIC>MOL_PROPERTY
W(SA)
SciTegic.value.DoubleValue
2.103

@<SCITEGIC>MOL_PROPERTY
Valence
SciTegic.value.DoubleValue
15.226

@<SCITEGIC>MOL_PROPERTY
Coulomb
SciTegic.value.DoubleValue
-1.822

@<SCITEGIC>MOL_PROPERTY
VdW
SciTegic.value.DoubleValue
0.261

@<SCITEGIC>MOL_PROPERTY
VdW6
SciTegic.value.DoubleValue
-4.165

@<SCITEGIC>MOL_PROPERTY
VdW12
SciTegic.value.DoubleValue
4.426

@<SCITEGIC>MOL_PROPERTY
Bond
SciTegic.value.DoubleValue
0.044

@<SCITEGIC>MOL_PROPERTY
Angle
SciTegic.value.DoubleValue
2.229

@<SCITEGIC>MOL_PROPERTY
Pdih
SciTegic.value.DoubleValue
12.953

@<SCITEGIC>MOL_PROPERTY
Idih
SciTegic.value.DoubleValue
0.000

@<SCITEGIC>MOL_PROPERTY
Tether
SciTegic.value.DoubleValue
0.000

@<TRIPOS>MOLECULE
guest-s20_confgen4.mol2 : confsearch ligand conformer 303
          17          16           1
SMALL
USER_CHARGES
 
@<TRIPOS>ATOM
       1    C1      20.264672   20.918656   24.525744 C.2        1 MOL1         0.6132
       2    O1      20.297759   20.273714   25.555271 O.co2      1 MOL1        -0.6749
       3    O2      20.967628   21.887738   24.316984 O.co2      1 MOL1        -0.6749
       4    C2      19.281290   20.493220   23.443312 C.3        1 MOL1        -0.1955
       5    H1      19.063518   21.365734   22.815715 H          1 MOL1         0.0733
       6    H2      18.343522   20.210483   23.935411 H          1 MOL1         0.0733
       7    C3      19.800475   19.337336   22.609174 C.2        1 MOL1        -0.1395
       8    H3      19.887302   18.393584   23.144787 H          1 MOL1         0.0816
       9    C4      20.138288   19.440561   21.317687 C.2        1 MOL1        -0.1394
      10    H4      20.042033   20.402933   20.816031 H          1 MOL1         0.0816
      11    C5      20.666570   18.329393   20.426163 C.3        1 MOL1        -0.1826
      12    H5      20.002180   18.222229   19.558058 H          1 MOL1         0.0736
      13    H6      21.639756   18.632988   20.017190 H          1 MOL1         0.0736
      14    C6      20.817904   16.955844   21.116446 C.3        1 MOL1        -0.2882
      15    H7      19.851242   16.594557   21.491196 H          1 MOL1         0.0749
      16    H8      21.204072   16.210238   20.409356 H          1 MOL1         0.0749
      17    H9      21.518652   17.013913   21.959695 H          1 MOL1         0.0749
@<TRIPOS>BOND
    1     1     2    1
    2     1     3    2
    3     1     4    1
    4     4     5    1
    5     4     6    1
    6     4     7    1
    7     7     8    1
    8     7     9    2
    9     9    10    1
   10     9    11    1
   11    11    12    1
   12    11    13    1
   13    11    14    1
   14    14    15    1
   15    14    16    1
   16    14    17    1
@<TRIPOS>SUBSTRUCTURE
       1 MOL1            1 RESIDUE      1      MOL     
@<SCITEGIC>MOL_PROPERTY
VConf Rank
SciTegic.value.IntegerValue
303

@<SCITEGIC>MOL_PROPERTY
Conf_Id
SciTegic.value.IntegerValue
19

@<SCITEGIC>MOL_PROPERTY
Delta U+W
SciTegic.value.DoubleValue
-0.496

@<SCITEGIC>MOL_PROPERTY
U+W
SciTegic.value.DoubleValue
-49.923

@<SCITEGIC>MOL_PROPERTY
Grad RMS
SciTegic.value.DoubleValue
0.000000

@<SCITEGIC>MOL_PROPERTY
U
SciTegic.value.DoubleValue
13.863

@<SCITEGIC>MOL_PROPERTY
W
SciTegic.value.DoubleValue
-63.786

@<SCITEGIC>MOL_PROPERTY
W(PB)
SciTegic.value.DoubleValue
-65.856

@<SCITEGIC>MOL_PROPERTY
W(SA)
SciTegic.value.DoubleValue
2.070

@<SCITEGIC>MOL_PROPERTY
Valence
SciTegic.value.DoubleValue
14.117

@<SCITEGIC>MOL_PROPERTY
Coulomb
SciTegic.value.DoubleValue
-1.228

@<SCITEGIC>MOL_PROPERTY
VdW
SciTegic.value.DoubleValue
0.974

@<SCITEGIC>MOL_PROPERTY
VdW6
SciTegic.value.DoubleValue
-4.885

@<SCITEGIC>MOL_PROPERTY
VdW12
SciTegic.value.DoubleValue
5.859

@<SCITEGIC>MOL_PROPERTY
Bond
SciTegic.value.DoubleValue
0.094

@<SCITEGIC>MOL_PROPERTY
Angle
SciTegic.value.DoubleValue
2.818

@<SCITEGIC>MOL_PROPERTY
Pdih
SciTegic.value.DoubleValue
11.205

@<SCITEGIC>MOL_PROPERTY
Idih
SciTegic.value.DoubleValue
0.000

@<SCITEGIC>MOL_PROPERTY
Tether
SciTegic.value.DoubleValue
0.000

@<TRIPOS>MOLECULE
guest-s20_confgen4.mol2 : confsearch ligand conformer 304
          17          16           1
SMALL
USER_CHARGES
 
@<TRIPOS>ATOM
       1    C1      19.057033   19.437657   24.907901 C.2        1 MOL1         0.6132
       2    O1      19.947399   20.045795   25.468461 O.co2      1 MOL1        -0.6749
       3    O2      17.884274   19.749125   24.975930 O.co2      1 MOL1        -0.6749
       4    C2      19.427437   18.211770   24.083383 C.3        1 MOL1        -0.1955
       5    H1      18.681849   17.434321   24.286253 H          1 MOL1         0.0733
       6    H2      20.391549   17.833866   24.444396 H          1 MOL1         0.0733
       7    C3      19.481344   18.506501   22.596443 C.2        1 MOL1        -0.1395
       8    H3      18.522865   18.739287   22.133469 H          1 MOL1         0.0816
       9    C4      20.602845   18.500049   21.869525 C.2        1 MOL1        -0.1394
      10    H4      21.561697   18.272261   22.334040 H          1 MOL1         0.0816
      11    C5      20.654806   18.797097   20.387500 C.3        1 MOL1        -0.1826
      12    H5      21.245942   18.026055   19.875080 H          1 MOL1         0.0736
      13    H6      19.646306   18.762119   19.952859 H          1 MOL1         0.0736
      14    C6      21.276446   20.182082   20.122220 C.3        1 MOL1        -0.2882
      15    H7      22.301328   20.232675   20.512710 H          1 MOL1         0.0749
      16    H8      21.311298   20.392683   19.045419 H          1 MOL1         0.0749
      17    H9      20.687159   20.972667   20.605332 H          1 MOL1         0.0749
@<TRIPOS>BOND
    1     1     2    1
    2     1     3    2
    3     1     4    1
    4     4     5    1
    5     4     6    1
    6     4     7    1
    7     7     8    1
    8     7     9    2
    9     9    10    1
   10     9    11    1
   11    11    12    1
   12    11    13    1
   13    11    14    1
   14    14    15    1
   15    14    16    1
   16    14    17    1
@<TRIPOS>SUBSTRUCTURE
       1 MOL1            1 RESIDUE      1      MOL     
@<SCITEGIC>MOL_PROPERTY
VConf Rank
SciTegic.value.IntegerValue
304

@<SCITEGIC>MOL_PROPERTY
Conf_Id
SciTegic.value.IntegerValue
7

@<SCITEGIC>MOL_PROPERTY
Delta U+W
SciTegic.value.DoubleValue
-0.041

@<SCITEGIC>MOL_PROPERTY
U+W
SciTegic.value.DoubleValue
-49.468

@<SCITEGIC>MOL_PROPERTY
Grad RMS
SciTegic.value.DoubleValue
0.000000

@<SCITEGIC>MOL_PROPERTY
U
SciTegic.value.DoubleValue
14.121

@<SCITEGIC>MOL_PROPERTY
W
SciTegic.value.DoubleValue
-63.589

@<SCITEGIC>MOL_PROPERTY
W(PB)
SciTegic.value.DoubleValue
-65.660

@<SCITEGIC>MOL_PROPERTY
W(SA)
SciTegic.value.DoubleValue
2.071

@<SCITEGIC>MOL_PROPERTY
Valence
SciTegic.value.DoubleValue
15.230

@<SCITEGIC>MOL_PROPERTY
Coulomb
SciTegic.value.DoubleValue
-1.333

@<SCITEGIC>MOL_PROPERTY
VdW
SciTegic.value.DoubleValue
0.224

@<SCITEGIC>MOL_PROPERTY
VdW6
SciTegic.value.DoubleValue
-4.212

@<SCITEGIC>MOL_PROPERTY
VdW12
SciTegic.value.DoubleValue
4.436

@<SCITEGIC>MOL_PROPERTY
Bond
SciTegic.value.DoubleValue
0.044

@<SCITEGIC>MOL_PROPERTY
Angle
SciTegic.value.DoubleValue
2.230

@<SCITEGIC>MOL_PROPERTY
Pdih
SciTegic.value.DoubleValue
12.956

@<SCITEGIC>MOL_PROPERTY
Idih
SciTegic.value.DoubleValue
0.000

@<SCITEGIC>MOL_PROPERTY
Tether
SciTegic.value.DoubleValue
0.000

@<TRIPOS>MOLECULE
guest-s20_confgen4.mol2 : confsearch ligand conformer 305
          17          16           1
SMALL
USER_CHARGES
 
@<TRIPOS>ATOM
       1    C1      20.375642   21.774933   23.408809 C.2        1 MOL1         0.6132
       2    O1      20.830620   21.486934   24.498324 O.co2      1 MOL1        -0.6749
       3    O2      19.376077   22.449096   23.255648 O.co2      1 MOL1        -0.6749
       4    C2      21.114473   21.287458   22.166201 C.3        1 MOL1        -0.1955
       5    H1      22.183672   21.247096   22.404852 H          1 MOL1         0.0733
       6    H2      21.007683   22.053986   21.389831 H          1 MOL1         0.0733
       7    C3      20.662751   19.940753   21.619200 C.2        1 MOL1        -0.1395
       8    H3      21.202922   19.611819   20.732316 H          1 MOL1         0.0816
       9    C4      19.695770   19.168828   22.129174 C.2        1 MOL1        -0.1394
      10    H4      19.140952   19.473816   23.015680 H          1 MOL1         0.0816
      11    C5      19.283327   17.835960   21.544968 C.3        1 MOL1        -0.1826
      12    H5      18.189450   17.793671   21.454620 H          1 MOL1         0.0736
      13    H6      19.688044   17.718320   20.530316 H          1 MOL1         0.0736
      14    C6      19.771332   16.670159   22.426895 C.3        1 MOL1        -0.2882
      15    H7      19.468129   15.705748   21.999063 H          1 MOL1         0.0749
      16    H8      20.866087   16.676782   22.510922 H          1 MOL1         0.0749
      17    H9      19.350475   16.741714   23.438437 H          1 MOL1         0.0749
@<TRIPOS>BOND
    1     1     2    1
    2     1     3    2
    3     1     4    1
    4     4     5    1
    5     4     6    1
    6     4     7    1
    7     7     8    1
    8     7     9    2
    9     9    10    1
   10     9    11    1
   11    11    12    1
   12    11    13    1
   13    11    14    1
   14    14    15    1
   15    14    16    1
   16    14    17    1
@<TRIPOS>SUBSTRUCTURE
       1 MOL1            1 RESIDUE      1      MOL     
@<SCITEGIC>MOL_PROPERTY
VConf Rank
SciTegic.value.IntegerValue
305

@<SCITEGIC>MOL_PROPERTY
Conf_Id
SciTegic.value.IntegerValue
39

@<SCITEGIC>MOL_PROPERTY
Delta U+W
SciTegic.value.DoubleValue
-0.422

@<SCITEGIC>MOL_PROPERTY
U+W
SciTegic.value.DoubleValue
-49.849

@<SCITEGIC>MOL_PROPERTY
Grad RMS
SciTegic.value.DoubleValue
0.000000

@<SCITEGIC>MOL_PROPERTY
U
SciTegic.value.DoubleValue
14.465

@<SCITEGIC>MOL_PROPERTY
W
SciTegic.value.DoubleValue
-64.314

@<SCITEGIC>MOL_PROPERTY
W(PB)
SciTegic.value.DoubleValue
-66.406

@<SCITEGIC>MOL_PROPERTY
W(SA)
SciTegic.value.DoubleValue
2.093

@<SCITEGIC>MOL_PROPERTY
Valence
SciTegic.value.DoubleValue
14.072

@<SCITEGIC>MOL_PROPERTY
Coulomb
SciTegic.value.DoubleValue
-0.199

@<SCITEGIC>MOL_PROPERTY
VdW
SciTegic.value.DoubleValue
0.592

@<SCITEGIC>MOL_PROPERTY
VdW6
SciTegic.value.DoubleValue
-5.019

@<SCITEGIC>MOL_PROPERTY
VdW12
SciTegic.value.DoubleValue
5.611

@<SCITEGIC>MOL_PROPERTY
Bond
SciTegic.value.DoubleValue
0.085

@<SCITEGIC>MOL_PROPERTY
Angle
SciTegic.value.DoubleValue
2.748

@<SCITEGIC>MOL_PROPERTY
Pdih
SciTegic.value.DoubleValue
11.238

@<SCITEGIC>MOL_PROPERTY
Idih
SciTegic.value.DoubleValue
0.001

@<SCITEGIC>MOL_PROPERTY
Tether
SciTegic.value.DoubleValue
0.000

@<TRIPOS>MOLECULE
guest-s20_confgen4.mol2 : confsearch ligand conformer 306
          17          16           1
SMALL
USER_CHARGES
 
@<TRIPOS>ATOM
       1    C1      19.085931   18.039723   24.834353 C.2        1 MOL1         0.6132
       2    O1      18.019675   18.449365   25.249387 O.co2      1 MOL1        -0.6749
       3    O2      20.041261   17.808707   25.549052 O.co2      1 MOL1        -0.6749
       4    C2      19.228756   17.798292   23.337384 C.3        1 MOL1        -0.1955
       5    H1      18.299715   17.337542   22.982277 H          1 MOL1         0.0733
       6    H2      20.029735   17.065338   23.182942 H          1 MOL1         0.0733
       7    C3      19.504419   19.075356   22.566759 C.2        1 MOL1        -0.1395
       8    H3      18.681991   19.789597   22.540816 H          1 MOL1         0.0816
       9    C4      20.659277   19.346754   21.951233 C.2        1 MOL1        -0.1394
      10    H4      21.482286   18.633393   21.980087 H          1 MOL1         0.0816
      11    C5      20.933667   20.622350   21.186455 C.3        1 MOL1        -0.1826
      12    H5      20.172913   21.380551   21.417986 H          1 MOL1         0.0736
      13    H6      21.900457   21.040562   21.497822 H          1 MOL1         0.0736
      14    C6      20.950839   20.364437   19.667163 C.3        1 MOL1        -0.2882
      15    H7      19.984199   19.969390   19.327830 H          1 MOL1         0.0749
      16    H8      21.151013   21.293437   19.117642 H          1 MOL1         0.0749
      17    H9      21.729581   19.637315   19.402054 H          1 MOL1         0.0749
@<TRIPOS>BOND
    1     1     2    1
    2     1     3    2
    3     1     4    1
    4     4     5    1
    5     4     6    1
    6     4     7    1
    7     7     8    1
    8     7     9    2
    9     9    10    1
   10     9    11    1
   11    11    12    1
   12    11    13    1
   13    11    14    1
   14    14    15    1
   15    14    16    1
   16    14    17    1
@<TRIPOS>SUBSTRUCTURE
       1 MOL1            1 RESIDUE      1      MOL     
@<SCITEGIC>MOL_PROPERTY
VConf Rank
SciTegic.value.IntegerValue
306

@<SCITEGIC>MOL_PROPERTY
Conf_Id
SciTegic.value.IntegerValue
38

@<SCITEGIC>MOL_PROPERTY
Delta U+W
SciTegic.value.DoubleValue
0.000

@<SCITEGIC>MOL_PROPERTY
U+W
SciTegic.value.DoubleValue
-49.427

@<SCITEGIC>MOL_PROPERTY
Grad RMS
SciTegic.value.DoubleValue
0.000000

@<SCITEGIC>MOL_PROPERTY
U
SciTegic.value.DoubleValue
13.666

@<SCITEGIC>MOL_PROPERTY
W
SciTegic.value.DoubleValue
-63.093

@<SCITEGIC>MOL_PROPERTY
W(PB)
SciTegic.value.DoubleValue
-65.225

@<SCITEGIC>MOL_PROPERTY
W(SA)
SciTegic.value.DoubleValue
2.132

@<SCITEGIC>MOL_PROPERTY
Valence
SciTegic.value.DoubleValue
15.226

@<SCITEGIC>MOL_PROPERTY
Coulomb
SciTegic.value.DoubleValue
-1.822

@<SCITEGIC>MOL_PROPERTY
VdW
SciTegic.value.DoubleValue
0.261

@<SCITEGIC>MOL_PROPERTY
VdW6
SciTegic.value.DoubleValue
-4.165

@<SCITEGIC>MOL_PROPERTY
VdW12
SciTegic.value.DoubleValue
4.426

@<SCITEGIC>MOL_PROPERTY
Bond
SciTegic.value.DoubleValue
0.044

@<SCITEGIC>MOL_PROPERTY
Angle
SciTegic.value.DoubleValue
2.229

@<SCITEGIC>MOL_PROPERTY
Pdih
SciTegic.value.DoubleValue
12.953

@<SCITEGIC>MOL_PROPERTY
Idih
SciTegic.value.DoubleValue
0.000

@<SCITEGIC>MOL_PROPERTY
Tether
SciTegic.value.DoubleValue
0.000

@<TRIPOS>MOLECULE
guest-s20_confgen4.mol2 : confsearch ligand conformer 307
          17          16           1
SMALL
USER_CHARGES
 
@<TRIPOS>ATOM
       1    C1      21.907067   21.743580   22.860227 C.2        1 MOL1         0.6132
       2    O1      21.265293   22.514579   23.546160 O.co2      1 MOL1        -0.6749
       3    O2      22.713007   22.099858   22.023276 O.co2      1 MOL1        -0.6749
       4    C2      21.695374   20.248979   23.062608 C.3        1 MOL1        -0.1955
       5    H1      21.304233   20.091836   24.075008 H          1 MOL1         0.0733
       6    H2      22.676799   19.762757   23.019033 H          1 MOL1         0.0733
       7    C3      20.769497   19.647378   22.022620 C.2        1 MOL1        -0.1395
       8    H3      21.164499   19.621790   21.007475 H          1 MOL1         0.0816
       9    C4      19.548354   19.173638   22.288343 C.2        1 MOL1        -0.1394
      10    H4      19.152745   19.202442   23.303096 H          1 MOL1         0.0816
      11    C5      18.624956   18.577721   21.249334 C.3        1 MOL1        -0.1826
      12    H5      17.624182   19.020158   21.345423 H          1 MOL1         0.0736
      13    H6      18.979636   18.817036   20.237331 H          1 MOL1         0.0736
      14    C6      18.527600   17.047795   21.407154 C.3        1 MOL1        -0.2882
      15    H7      18.138555   16.780216   22.398352 H          1 MOL1         0.0749
      16    H8      17.855735   16.621210   20.651040 H          1 MOL1         0.0749
      17    H9      19.513994   16.580132   21.289177 H          1 MOL1         0.0749
@<TRIPOS>BOND
    1     1     2    1
    2     1     3    2
    3     1     4    1
    4     4     5    1
    5     4     6    1
    6     4     7    1
    7     7     8    1
    8     7     9    2
    9     9    10    1
   10     9    11    1
   11    11    12    1
   12    11    13    1
   13    11    14    1
   14    14    15    1
   15    14    16    1
   16    14    17    1
@<TRIPOS>SUBSTRUCTURE
       1 MOL1            1 RESIDUE      1      MOL     
@<SCITEGIC>MOL_PROPERTY
VConf Rank
SciTegic.value.IntegerValue
307

@<SCITEGIC>MOL_PROPERTY
Conf_Id
SciTegic.value.IntegerValue
35

@<SCITEGIC>MOL_PROPERTY
Delta U+W
SciTegic.value.DoubleValue
-0.102

@<SCITEGIC>MOL_PROPERTY
U+W
SciTegic.value.DoubleValue
-49.529

@<SCITEGIC>MOL_PROPERTY
Grad RMS
SciTegic.value.DoubleValue
0.000000

@<SCITEGIC>MOL_PROPERTY
U
SciTegic.value.DoubleValue
13.666

@<SCITEGIC>MOL_PROPERTY
W
SciTegic.value.DoubleValue
-63.195

@<SCITEGIC>MOL_PROPERTY
W(PB)
SciTegic.value.DoubleValue
-65.299

@<SCITEGIC>MOL_PROPERTY
W(SA)
SciTegic.value.DoubleValue
2.103

@<SCITEGIC>MOL_PROPERTY
Valence
SciTegic.value.DoubleValue
15.226

@<SCITEGIC>MOL_PROPERTY
Coulomb
SciTegic.value.DoubleValue
-1.822

@<SCITEGIC>MOL_PROPERTY
VdW
SciTegic.value.DoubleValue
0.261

@<SCITEGIC>MOL_PROPERTY
VdW6
SciTegic.value.DoubleValue
-4.165

@<SCITEGIC>MOL_PROPERTY
VdW12
SciTegic.value.DoubleValue
4.426

@<SCITEGIC>MOL_PROPERTY
Bond
SciTegic.value.DoubleValue
0.044

@<SCITEGIC>MOL_PROPERTY
Angle
SciTegic.value.DoubleValue
2.229

@<SCITEGIC>MOL_PROPERTY
Pdih
SciTegic.value.DoubleValue
12.953

@<SCITEGIC>MOL_PROPERTY
Idih
SciTegic.value.DoubleValue
0.000

@<SCITEGIC>MOL_PROPERTY
Tether
SciTegic.value.DoubleValue
0.000

@<TRIPOS>MOLECULE
guest-s20_confgen4.mol2 : confsearch ligand conformer 308
          17          16           1
SMALL
USER_CHARGES
 
@<TRIPOS>ATOM
       1    C1      20.592976   16.187629   21.898699 C.2        1 MOL1         0.6132
       2    O1      20.375518   15.630632   22.956734 O.co2      1 MOL1        -0.6749
       3    O2      20.162961   15.795316   20.831916 O.co2      1 MOL1        -0.6749
       4    C2      21.459652   17.439988   21.911437 C.3        1 MOL1        -0.1955
       5    H1      21.904705   17.559160   20.916293 H          1 MOL1         0.0733
       6    H2      22.284457   17.269138   22.612876 H          1 MOL1         0.0733
       7    C3      20.682790   18.679458   22.313440 C.2        1 MOL1        -0.1395
       8    H3      20.348326   18.689865   23.349353 H          1 MOL1         0.0816
       9    C4      20.409997   19.692625   21.481701 C.2        1 MOL1        -0.1394
      10    H4      20.757563   19.644833   20.450199 H          1 MOL1         0.0816
      11    C5      19.636894   20.957458   21.815018 C.3        1 MOL1        -0.1826
      12    H5      20.271023   21.829178   21.604094 H          1 MOL1         0.0736
      13    H6      18.781326   21.042672   21.131451 H          1 MOL1         0.0736
      14    C6      19.127886   21.046055   23.270727 C.3        1 MOL1        -0.2882
      15    H7      19.963273   21.018574   23.982609 H          1 MOL1         0.0749
      16    H8      18.580823   21.984221   23.430716 H          1 MOL1         0.0749
      17    H9      18.446696   20.216318   23.500957 H          1 MOL1         0.0749
@<TRIPOS>BOND
    1     1     2    1
    2     1     3    2
    3     1     4    1
    4     4     5    1
    5     4     6    1
    6     4     7    1
    7     7     8    1
    8     7     9    2
    9     9    10    1
   10     9    11    1
   11    11    12    1
   12    11    13    1
   13    11    14    1
   14    14    15    1
   15    14    16    1
   16    14    17    1
@<TRIPOS>SUBSTRUCTURE
       1 MOL1            1 RESIDUE      1      MOL     
@<SCITEGIC>MOL_PROPERTY
VConf Rank
SciTegic.value.IntegerValue
308

@<SCITEGIC>MOL_PROPERTY
Conf_Id
SciTegic.value.IntegerValue
19

@<SCITEGIC>MOL_PROPERTY
Delta U+W
SciTegic.value.DoubleValue
-0.496

@<SCITEGIC>MOL_PROPERTY
U+W
SciTegic.value.DoubleValue
-49.923

@<SCITEGIC>MOL_PROPERTY
Grad RMS
SciTegic.value.DoubleValue
0.000000

@<SCITEGIC>MOL_PROPERTY
U
SciTegic.value.DoubleValue
13.863

@<SCITEGIC>MOL_PROPERTY
W
SciTegic.value.DoubleValue
-63.786

@<SCITEGIC>MOL_PROPERTY
W(PB)
SciTegic.value.DoubleValue
-65.856

@<SCITEGIC>MOL_PROPERTY
W(SA)
SciTegic.value.DoubleValue
2.070

@<SCITEGIC>MOL_PROPERTY
Valence
SciTegic.value.DoubleValue
14.117

@<SCITEGIC>MOL_PROPERTY
Coulomb
SciTegic.value.DoubleValue
-1.228

@<SCITEGIC>MOL_PROPERTY
VdW
SciTegic.value.DoubleValue
0.974

@<SCITEGIC>MOL_PROPERTY
VdW6
SciTegic.value.DoubleValue
-4.885

@<SCITEGIC>MOL_PROPERTY
VdW12
SciTegic.value.DoubleValue
5.859

@<SCITEGIC>MOL_PROPERTY
Bond
SciTegic.value.DoubleValue
0.094

@<SCITEGIC>MOL_PROPERTY
Angle
SciTegic.value.DoubleValue
2.818

@<SCITEGIC>MOL_PROPERTY
Pdih
SciTegic.value.DoubleValue
11.205

@<SCITEGIC>MOL_PROPERTY
Idih
SciTegic.value.DoubleValue
0.000

@<SCITEGIC>MOL_PROPERTY
Tether
SciTegic.value.DoubleValue
0.000

@<TRIPOS>MOLECULE
guest-s20_confgen4.mol2 : confsearch ligand conformer 309
          17          16           1
SMALL
USER_CHARGES
 
@<TRIPOS>ATOM
       1    C1      19.519265   18.935077   25.074560 C.2        1 MOL1         0.6132
       2    O1      20.612605   18.760095   25.575361 O.co2      1 MOL1        -0.6749
       3    O2      18.713162   19.745688   25.487005 O.co2      1 MOL1        -0.6749
       4    C2      19.131694   18.085928   23.870998 C.3        1 MOL1        -0.1955
       5    H1      18.087545   17.778620   24.000618 H          1 MOL1         0.0733
       6    H2      19.739079   17.172947   23.885234 H          1 MOL1         0.0733
       7    C3      19.297079   18.828533   22.558768 C.2        1 MOL1        -0.1395
       8    H3      18.611784   19.661830   22.406446 H          1 MOL1         0.0816
       9    C4      20.209586   18.521608   21.631760 C.2        1 MOL1        -0.1394
      10    H4      20.897983   17.691483   21.786877 H          1 MOL1         0.0816
      11    C5      20.374758   19.265231   20.325207 C.3        1 MOL1        -0.1826
      12    H5      20.430210   18.548400   19.494786 H          1 MOL1         0.0736
      13    H6      19.501323   19.903528   20.133122 H          1 MOL1         0.0736
      14    C6      21.647580   20.133964   20.340044 C.3        1 MOL1        -0.2882
      15    H7      22.542039   19.515648   20.491878 H          1 MOL1         0.0749
      16    H8      21.762294   20.671625   19.389870 H          1 MOL1         0.0749
      17    H9      21.603592   20.875802   21.148388 H          1 MOL1         0.0749
@<TRIPOS>BOND
    1     1     2    1
    2     1     3    2
    3     1     4    1
    4     4     5    1
    5     4     6    1
    6     4     7    1
    7     7     8    1
    8     7     9    2
    9     9    10    1
   10     9    11    1
   11    11    12    1
   12    11    13    1
   13    11    14    1
   14    14    15    1
   15    14    16    1
   16    14    17    1
@<TRIPOS>SUBSTRUCTURE
       1 MOL1            1 RESIDUE      1      MOL     
@<SCITEGIC>MOL_PROPERTY
VConf Rank
SciTegic.value.IntegerValue
309

@<SCITEGIC>MOL_PROPERTY
Conf_Id
SciTegic.value.IntegerValue
7

@<SCITEGIC>MOL_PROPERTY
Delta U+W
SciTegic.value.DoubleValue
-0.041

@<SCITEGIC>MOL_PROPERTY
U+W
SciTegic.value.DoubleValue
-49.468

@<SCITEGIC>MOL_PROPERTY
Grad RMS
SciTegic.value.DoubleValue
0.000000

@<SCITEGIC>MOL_PROPERTY
U
SciTegic.value.DoubleValue
14.121

@<SCITEGIC>MOL_PROPERTY
W
SciTegic.value.DoubleValue
-63.589

@<SCITEGIC>MOL_PROPERTY
W(PB)
SciTegic.value.DoubleValue
-65.660

@<SCITEGIC>MOL_PROPERTY
W(SA)
SciTegic.value.DoubleValue
2.071

@<SCITEGIC>MOL_PROPERTY
Valence
SciTegic.value.DoubleValue
15.230

@<SCITEGIC>MOL_PROPERTY
Coulomb
SciTegic.value.DoubleValue
-1.333

@<SCITEGIC>MOL_PROPERTY
VdW
SciTegic.value.DoubleValue
0.224

@<SCITEGIC>MOL_PROPERTY
VdW6
SciTegic.value.DoubleValue
-4.212

@<SCITEGIC>MOL_PROPERTY
VdW12
SciTegic.value.DoubleValue
4.436

@<SCITEGIC>MOL_PROPERTY
Bond
SciTegic.value.DoubleValue
0.044

@<SCITEGIC>MOL_PROPERTY
Angle
SciTegic.value.DoubleValue
2.230

@<SCITEGIC>MOL_PROPERTY
Pdih
SciTegic.value.DoubleValue
12.956

@<SCITEGIC>MOL_PROPERTY
Idih
SciTegic.value.DoubleValue
0.000

@<SCITEGIC>MOL_PROPERTY
Tether
SciTegic.value.DoubleValue
0.000

@<TRIPOS>MOLECULE
guest-s20_confgen4.mol2 : confsearch ligand conformer 310
          17          16           1
SMALL
USER_CHARGES
 
@<TRIPOS>ATOM
       1    C1      20.345787   21.684889   20.938840 C.2        1 MOL1         0.6132
       2    O1      20.962589   22.342031   21.754139 O.co2      1 MOL1        -0.6749
       3    O2      19.288707   22.037494   20.453728 O.co2      1 MOL1        -0.6749
       4    C2      20.944204   20.359094   20.478685 C.3        1 MOL1        -0.1955
       5    H1      22.035871   20.455807   20.504692 H          1 MOL1         0.0733
       6    H2      20.679071   20.219088   19.424255 H          1 MOL1         0.0733
       7    C3      20.521417   19.134707   21.278062 C.2        1 MOL1        -0.1395
       8    H3      20.959850   18.199210   20.932855 H          1 MOL1         0.0816
       9    C4      19.689936   19.128477   22.326679 C.2        1 MOL1        -0.1394
      10    H4      19.238704   20.050010   22.692603 H          1 MOL1         0.0816
      11    C5      19.299973   17.880635   23.087441 C.3        1 MOL1        -0.1826
      12    H5      18.209800   17.852357   23.218751 H          1 MOL1         0.0736
      13    H6      19.572130   16.981395   22.517835 H          1 MOL1         0.0736
      14    C6      19.984844   17.836824   24.467322 C.3        1 MOL1        -0.2882
      15    H7      19.697274   16.930186   25.015383 H          1 MOL1         0.0749
      16    H8      21.077608   17.838322   24.360279 H          1 MOL1         0.0749
      17    H9      19.699642   18.706546   25.073705 H          1 MOL1         0.0749
@<TRIPOS>BOND
    1     1     2    1
    2     1     3    2
    3     1     4    1
    4     4     5    1
    5     4     6    1
    6     4     7    1
    7     7     8    1
    8     7     9    2
    9     9    10    1
   10     9    11    1
   11    11    12    1
   12    11    13    1
   13    11    14    1
   14    14    15    1
   15    14    16    1
   16    14    17    1
@<TRIPOS>SUBSTRUCTURE
       1 MOL1            1 RESIDUE      1      MOL     
@<SCITEGIC>MOL_PROPERTY
VConf Rank
SciTegic.value.IntegerValue
310

@<SCITEGIC>MOL_PROPERTY
Conf_Id
SciTegic.value.IntegerValue
39

@<SCITEGIC>MOL_PROPERTY
Delta U+W
SciTegic.value.DoubleValue
-0.422

@<SCITEGIC>MOL_PROPERTY
U+W
SciTegic.value.DoubleValue
-49.849

@<SCITEGIC>MOL_PROPERTY
Grad RMS
SciTegic.value.DoubleValue
0.000000

@<SCITEGIC>MOL_PROPERTY
U
SciTegic.value.DoubleValue
14.465

@<SCITEGIC>MOL_PROPERTY
W
SciTegic.value.DoubleValue
-64.314

@<SCITEGIC>MOL_PROPERTY
W(PB)
SciTegic.value.DoubleValue
-66.406

@<SCITEGIC>MOL_PROPERTY
W(SA)
SciTegic.value.DoubleValue
2.093

@<SCITEGIC>MOL_PROPERTY
Valence
SciTegic.value.DoubleValue
14.072

@<SCITEGIC>MOL_PROPERTY
Coulomb
SciTegic.value.DoubleValue
-0.199

@<SCITEGIC>MOL_PROPERTY
VdW
SciTegic.value.DoubleValue
0.592

@<SCITEGIC>MOL_PROPERTY
VdW6
SciTegic.value.DoubleValue
-5.019

@<SCITEGIC>MOL_PROPERTY
VdW12
SciTegic.value.DoubleValue
5.611

@<SCITEGIC>MOL_PROPERTY
Bond
SciTegic.value.DoubleValue
0.085

@<SCITEGIC>MOL_PROPERTY
Angle
SciTegic.value.DoubleValue
2.748

@<SCITEGIC>MOL_PROPERTY
Pdih
SciTegic.value.DoubleValue
11.238

@<SCITEGIC>MOL_PROPERTY
Idih
SciTegic.value.DoubleValue
0.001

@<SCITEGIC>MOL_PROPERTY
Tether
SciTegic.value.DoubleValue
0.000

@<TRIPOS>MOLECULE
guest-s20_confgen4.mol2 : confsearch ligand conformer 311
          17          16           1
SMALL
USER_CHARGES
 
@<TRIPOS>ATOM
       1    C1      22.053990   17.706373   24.049130 C.2        1 MOL1         0.6132
       2    O1      23.042061   17.210352   23.544511 O.co2      1 MOL1        -0.6749
       3    O2      21.397250   17.163205   24.915433 O.co2      1 MOL1        -0.6749
       4    C2      21.620084   19.086184   23.572211 C.3        1 MOL1        -0.1955
       5    H1      22.522370   19.695118   23.443415 H          1 MOL1         0.0733
       6    H2      21.028354   19.553961   24.368251 H          1 MOL1         0.0733
       7    C3      20.838211   19.032575   22.273540 C.2        1 MOL1        -0.1395
       8    H3      21.410998   18.728144   21.398076 H          1 MOL1         0.0816
       9    C4      19.538910   19.326791   22.166379 C.2        1 MOL1        -0.1394
      10    H4      18.966056   19.628260   23.042743 H          1 MOL1         0.0816
      11    C5      18.760035   19.269132   20.871253 C.3        1 MOL1        -0.1826
      12    H5      19.326320   18.720196   20.106262 H          1 MOL1         0.0736
      13    H6      17.823098   18.717220   21.026419 H          1 MOL1         0.0736
      14    C6      18.442324   20.685125   20.352519 C.3        1 MOL1        -0.2882
      15    H7      19.366200   21.248172   20.165350 H          1 MOL1         0.0749
      16    H8      17.876577   20.636832   19.413007 H          1 MOL1         0.0749
      17    H9      17.842875   21.244468   21.082742 H          1 MOL1         0.0749
@<TRIPOS>BOND
    1     1     2    1
    2     1     3    2
    3     1     4    1
    4     4     5    1
    5     4     6    1
    6     4     7    1
    7     7     8    1
    8     7     9    2
    9     9    10    1
   10     9    11    1
   11    11    12    1
   12    11    13    1
   13    11    14    1
   14    14    15    1
   15    14    16    1
   16    14    17    1
@<TRIPOS>SUBSTRUCTURE
       1 MOL1            1 RESIDUE      1      MOL     
@<SCITEGIC>MOL_PROPERTY
VConf Rank
SciTegic.value.IntegerValue
311

@<SCITEGIC>MOL_PROPERTY
Conf_Id
SciTegic.value.IntegerValue
38

@<SCITEGIC>MOL_PROPERTY
Delta U+W
SciTegic.value.DoubleValue
0.000

@<SCITEGIC>MOL_PROPERTY
U+W
SciTegic.value.DoubleValue
-49.427

@<SCITEGIC>MOL_PROPERTY
Grad RMS
SciTegic.value.DoubleValue
0.000000

@<SCITEGIC>MOL_PROPERTY
U
SciTegic.value.DoubleValue
13.666

@<SCITEGIC>MOL_PROPERTY
W
SciTegic.value.DoubleValue
-63.093

@<SCITEGIC>MOL_PROPERTY
W(PB)
SciTegic.value.DoubleValue
-65.225

@<SCITEGIC>MOL_PROPERTY
W(SA)
SciTegic.value.DoubleValue
2.132

@<SCITEGIC>MOL_PROPERTY
Valence
SciTegic.value.DoubleValue
15.226

@<SCITEGIC>MOL_PROPERTY
Coulomb
SciTegic.value.DoubleValue
-1.822

@<SCITEGIC>MOL_PROPERTY
VdW
SciTegic.value.DoubleValue
0.261

@<SCITEGIC>MOL_PROPERTY
VdW6
SciTegic.value.DoubleValue
-4.165

@<SCITEGIC>MOL_PROPERTY
VdW12
SciTegic.value.DoubleValue
4.426

@<SCITEGIC>MOL_PROPERTY
Bond
SciTegic.value.DoubleValue
0.044

@<SCITEGIC>MOL_PROPERTY
Angle
SciTegic.value.DoubleValue
2.229

@<SCITEGIC>MOL_PROPERTY
Pdih
SciTegic.value.DoubleValue
12.953

@<SCITEGIC>MOL_PROPERTY
Idih
SciTegic.value.DoubleValue
0.000

@<SCITEGIC>MOL_PROPERTY
Tether
SciTegic.value.DoubleValue
0.000

@<TRIPOS>MOLECULE
guest-s20_confgen4.mol2 : confsearch ligand conformer 312
          17          16           1
SMALL
USER_CHARGES
 
@<TRIPOS>ATOM
       1    C1      20.363228   18.876679   25.233431 C.2        1 MOL1         0.6132
       2    O1      20.279187   19.959612   25.778418 O.co2      1 MOL1        -0.6749
       3    O2      21.109886   17.993088   25.605893 O.co2      1 MOL1        -0.6749
       4    C2      19.481823   18.608118   24.020746 C.3        1 MOL1        -0.1955
       5    H1      18.613108   19.275346   24.073472 H          1 MOL1         0.0733
       6    H2      19.103719   17.582478   24.102038 H          1 MOL1         0.0733
       7    C3      20.225743   18.786639   22.710991 C.2        1 MOL1        -0.1395
       8    H3      21.004798   18.050638   22.514584 H          1 MOL1         0.0816
       9    C4      19.977748   19.763716   21.833468 C.2        1 MOL1        -0.1394
      10    H4      19.200739   20.501220   22.031980 H          1 MOL1         0.0816
      11    C5      20.723244   19.942503   20.529784 C.3        1 MOL1        -0.1826
      12    H5      21.038316   20.989387   20.423495 H          1 MOL1         0.0736
      13    H6      21.639077   19.335511   20.524315 H          1 MOL1         0.0736
      14    C6      19.841937   19.546804   19.329043 C.3        1 MOL1        -0.2882
      15    H7      18.935654   20.165165   19.287691 H          1 MOL1         0.0749
      16    H8      20.387971   19.679309   18.385976 H          1 MOL1         0.0749
      17    H9      19.535348   18.494891   19.400332 H          1 MOL1         0.0749
@<TRIPOS>BOND
    1     1     2    1
    2     1     3    2
    3     1     4    1
    4     4     5    1
    5     4     6    1
    6     4     7    1
    7     7     8    1
    8     7     9    2
    9     9    10    1
   10     9    11    1
   11    11    12    1
   12    11    13    1
   13    11    14    1
   14    14    15    1
   15    14    16    1
   16    14    17    1
@<TRIPOS>SUBSTRUCTURE
       1 MOL1            1 RESIDUE      1      MOL     
@<SCITEGIC>MOL_PROPERTY
VConf Rank
SciTegic.value.IntegerValue
312

@<SCITEGIC>MOL_PROPERTY
Conf_Id
SciTegic.value.IntegerValue
35

@<SCITEGIC>MOL_PROPERTY
Delta U+W
SciTegic.value.DoubleValue
-0.102

@<SCITEGIC>MOL_PROPERTY
U+W
SciTegic.value.DoubleValue
-49.529

@<SCITEGIC>MOL_PROPERTY
Grad RMS
SciTegic.value.DoubleValue
0.000000

@<SCITEGIC>MOL_PROPERTY
U
SciTegic.value.DoubleValue
13.666

@<SCITEGIC>MOL_PROPERTY
W
SciTegic.value.DoubleValue
-63.195

@<SCITEGIC>MOL_PROPERTY
W(PB)
SciTegic.value.DoubleValue
-65.299

@<SCITEGIC>MOL_PROPERTY
W(SA)
SciTegic.value.DoubleValue
2.103

@<SCITEGIC>MOL_PROPERTY
Valence
SciTegic.value.DoubleValue
15.226

@<SCITEGIC>MOL_PROPERTY
Coulomb
SciTegic.value.DoubleValue
-1.822

@<SCITEGIC>MOL_PROPERTY
VdW
SciTegic.value.DoubleValue
0.261

@<SCITEGIC>MOL_PROPERTY
VdW6
SciTegic.value.DoubleValue
-4.165

@<SCITEGIC>MOL_PROPERTY
VdW12
SciTegic.value.DoubleValue
4.426

@<SCITEGIC>MOL_PROPERTY
Bond
SciTegic.value.DoubleValue
0.044

@<SCITEGIC>MOL_PROPERTY
Angle
SciTegic.value.DoubleValue
2.229

@<SCITEGIC>MOL_PROPERTY
Pdih
SciTegic.value.DoubleValue
12.953

@<SCITEGIC>MOL_PROPERTY
Idih
SciTegic.value.DoubleValue
0.000

@<SCITEGIC>MOL_PROPERTY
Tether
SciTegic.value.DoubleValue
0.000

@<TRIPOS>MOLECULE
guest-s20_confgen4.mol2 : confsearch ligand conformer 313
          17          16           1
SMALL
USER_CHARGES
 
@<TRIPOS>ATOM
       1    C1      19.507868   21.961528   22.234245 C.2        1 MOL1         0.6132
       2    O1      19.882317   22.491853   21.206863 O.co2      1 MOL1        -0.6749
       3    O2      18.407903   22.138552   22.719620 O.co2      1 MOL1        -0.6749
       4    C2      20.474727   21.032218   22.956229 C.3        1 MOL1        -0.1955
       5    H1      20.185924   20.991002   24.013338 H          1 MOL1         0.0733
       6    H2      21.471042   21.487266   22.913832 H          1 MOL1         0.0733
       7    C3      20.510257   19.643768   22.346025 C.2        1 MOL1        -0.1395
       8    H3      20.939462   19.597600   21.346654 H          1 MOL1         0.0816
       9    C4      20.052783   18.545702   22.960582 C.2        1 MOL1        -0.1394
      10    H4      19.625734   18.631665   23.959244 H          1 MOL1         0.0816
      11    C5      20.053669   17.129971   22.408952 C.3        1 MOL1        -0.1826
      12    H5      20.607452   16.478716   23.098660 H          1 MOL1         0.0736
      13    H6      19.023724   16.748234   22.405588 H          1 MOL1         0.0736
      14    C6      20.648774   16.982953   20.991115 C.3        1 MOL1        -0.2882
      15    H7      21.698014   17.305442   20.968797 H          1 MOL1         0.0749
      16    H8      20.612234   15.935374   20.665120 H          1 MOL1         0.0749
      17    H9      20.084982   17.581276   20.263353 H          1 MOL1         0.0749
@<TRIPOS>BOND
    1     1     2    1
    2     1     3    2
    3     1     4    1
    4     4     5    1
    5     4     6    1
    6     4     7    1
    7     7     8    1
    8     7     9    2
    9     9    10    1
   10     9    11    1
   11    11    12    1
   12    11    13    1
   13    11    14    1
   14    14    15    1
   15    14    16    1
   16    14    17    1
@<TRIPOS>SUBSTRUCTURE
       1 MOL1            1 RESIDUE      1      MOL     
@<SCITEGIC>MOL_PROPERTY
VConf Rank
SciTegic.value.IntegerValue
313

@<SCITEGIC>MOL_PROPERTY
Conf_Id
SciTegic.value.IntegerValue
19

@<SCITEGIC>MOL_PROPERTY
Delta U+W
SciTegic.value.DoubleValue
-0.496

@<SCITEGIC>MOL_PROPERTY
U+W
SciTegic.value.DoubleValue
-49.923

@<SCITEGIC>MOL_PROPERTY
Grad RMS
SciTegic.value.DoubleValue
0.000000

@<SCITEGIC>MOL_PROPERTY
U
SciTegic.value.DoubleValue
13.863

@<SCITEGIC>MOL_PROPERTY
W
SciTegic.value.DoubleValue
-63.786

@<SCITEGIC>MOL_PROPERTY
W(PB)
SciTegic.value.DoubleValue
-65.856

@<SCITEGIC>MOL_PROPERTY
W(SA)
SciTegic.value.DoubleValue
2.070

@<SCITEGIC>MOL_PROPERTY
Valence
SciTegic.value.DoubleValue
14.117

@<SCITEGIC>MOL_PROPERTY
Coulomb
SciTegic.value.DoubleValue
-1.228

@<SCITEGIC>MOL_PROPERTY
VdW
SciTegic.value.DoubleValue
0.974

@<SCITEGIC>MOL_PROPERTY
VdW6
SciTegic.value.DoubleValue
-4.885

@<SCITEGIC>MOL_PROPERTY
VdW12
SciTegic.value.DoubleValue
5.859

@<SCITEGIC>MOL_PROPERTY
Bond
SciTegic.value.DoubleValue
0.094

@<SCITEGIC>MOL_PROPERTY
Angle
SciTegic.value.DoubleValue
2.818

@<SCITEGIC>MOL_PROPERTY
Pdih
SciTegic.value.DoubleValue
11.205

@<SCITEGIC>MOL_PROPERTY
Idih
SciTegic.value.DoubleValue
0.000

@<SCITEGIC>MOL_PROPERTY
Tether
SciTegic.value.DoubleValue
0.000

@<TRIPOS>MOLECULE
guest-s20_confgen4.mol2 : confsearch ligand conformer 314
          17          16           1
SMALL
USER_CHARGES
 
@<TRIPOS>ATOM
       1    C1      22.859704   18.110299   21.572582 C.2        1 MOL1         0.6132
       2    O1      22.931731   17.085117   22.221140 O.co2      1 MOL1        -0.6749
       3    O2      23.203410   18.195540   20.409998 O.co2      1 MOL1        -0.6749
       4    C2      22.319637   19.360342   22.254891 C.3        1 MOL1        -0.1955
       5    H1      22.944123   20.206511   21.945858 H          1 MOL1         0.0733
       6    H2      22.449911   19.243850   23.337533 H          1 MOL1         0.0733
       7    C3      20.867903   19.630236   21.907918 C.2        1 MOL1        -0.1395
       8    H3      20.681611   19.908738   20.871121 H          1 MOL1         0.0816
       9    C4      19.857727   19.536989   22.778013 C.2        1 MOL1        -0.1394
      10    H4      20.043976   19.253444   23.813374 H          1 MOL1         0.0816
      11    C5      18.410464   19.803695   22.429255 C.3        1 MOL1        -0.1826
      12    H5      17.965003   20.471103   23.179358 H          1 MOL1         0.0736
      13    H6      18.337048   20.321542   21.462998 H          1 MOL1         0.0736
      14    C6      17.605439   18.491066   22.366568 C.3        1 MOL1        -0.2882
      15    H7      17.629320   17.970438   23.332902 H          1 MOL1         0.0749
      16    H8      16.556193   18.690349   22.112725 H          1 MOL1         0.0749
      17    H9      18.018376   17.816749   21.604688 H          1 MOL1         0.0749
@<TRIPOS>BOND
    1     1     2    1
    2     1     3    2
    3     1     4    1
    4     4     5    1
    5     4     6    1
    6     4     7    1
    7     7     8    1
    8     7     9    2
    9     9    10    1
   10     9    11    1
   11    11    12    1
   12    11    13    1
   13    11    14    1
   14    14    15    1
   15    14    16    1
   16    14    17    1
@<TRIPOS>SUBSTRUCTURE
       1 MOL1            1 RESIDUE      1      MOL     
@<SCITEGIC>MOL_PROPERTY
VConf Rank
SciTegic.value.IntegerValue
314

@<SCITEGIC>MOL_PROPERTY
Conf_Id
SciTegic.value.IntegerValue
7

@<SCITEGIC>MOL_PROPERTY
Delta U+W
SciTegic.value.DoubleValue
-0.041

@<SCITEGIC>MOL_PROPERTY
U+W
SciTegic.value.DoubleValue
-49.468

@<SCITEGIC>MOL_PROPERTY
Grad RMS
SciTegic.value.DoubleValue
0.000000

@<SCITEGIC>MOL_PROPERTY
U
SciTegic.value.DoubleValue
14.121

@<SCITEGIC>MOL_PROPERTY
W
SciTegic.value.DoubleValue
-63.589

@<SCITEGIC>MOL_PROPERTY
W(PB)
SciTegic.value.DoubleValue
-65.660

@<SCITEGIC>MOL_PROPERTY
W(SA)
SciTegic.value.DoubleValue
2.071

@<SCITEGIC>MOL_PROPERTY
Valence
SciTegic.value.DoubleValue
15.230

@<SCITEGIC>MOL_PROPERTY
Coulomb
SciTegic.value.DoubleValue
-1.333

@<SCITEGIC>MOL_PROPERTY
VdW
SciTegic.value.DoubleValue
0.224

@<SCITEGIC>MOL_PROPERTY
VdW6
SciTegic.value.DoubleValue
-4.212

@<SCITEGIC>MOL_PROPERTY
VdW12
SciTegic.value.DoubleValue
4.436

@<SCITEGIC>MOL_PROPERTY
Bond
SciTegic.value.DoubleValue
0.044

@<SCITEGIC>MOL_PROPERTY
Angle
SciTegic.value.DoubleValue
2.230

@<SCITEGIC>MOL_PROPERTY
Pdih
SciTegic.value.DoubleValue
12.956

@<SCITEGIC>MOL_PROPERTY
Idih
SciTegic.value.DoubleValue
0.000

@<SCITEGIC>MOL_PROPERTY
Tether
SciTegic.value.DoubleValue
0.000

@<TRIPOS>MOLECULE
guest-s20_confgen4.mol2 : confsearch ligand conformer 315
          17          16           1
SMALL
USER_CHARGES
 
@<TRIPOS>ATOM
       1    C1      19.188882   21.505038   20.940156 C.2        1 MOL1         0.6132
       2    O1      18.103006   21.645548   21.467530 O.co2      1 MOL1        -0.6749
       3    O2      19.345693   21.424049   19.737686 O.co2      1 MOL1        -0.6749
       4    C2      20.424412   21.455594   21.833799 C.3        1 MOL1        -0.1955
       5    H1      20.232747   22.088729   22.707968 H          1 MOL1         0.0733
       6    H2      21.249893   21.931745   21.291968 H          1 MOL1         0.0733
       7    C3      20.848480   20.067543   22.292446 C.2        1 MOL1        -0.1395
       8    H3      21.732314   20.055059   22.929020 H          1 MOL1         0.0816
       9    C4      20.238691   18.916790   21.984353 C.2        1 MOL1        -0.1394
      10    H4      19.352782   18.901419   21.350585 H          1 MOL1         0.0816
      11    C5      20.702653   17.560153   22.466241 C.3        1 MOL1        -0.1826
      12    H5      20.739305   16.859480   21.621118 H          1 MOL1         0.0736
      13    H6      21.723257   17.622524   22.868277 H          1 MOL1         0.0736
      14    C6      19.759836   17.006224   23.552194 C.3        1 MOL1        -0.2882
      15    H7      20.100424   16.021291   23.897109 H          1 MOL1         0.0749
      16    H8      19.726869   17.678586   24.419625 H          1 MOL1         0.0749
      17    H9      18.738164   16.897300   23.165180 H          1 MOL1         0.0749
@<TRIPOS>BOND
    1     1     2    1
    2     1     3    2
    3     1     4    1
    4     4     5    1
    5     4     6    1
    6     4     7    1
    7     7     8    1
    8     7     9    2
    9     9    10    1
   10     9    11    1
   11    11    12    1
   12    11    13    1
   13    11    14    1
   14    14    15    1
   15    14    16    1
   16    14    17    1
@<TRIPOS>SUBSTRUCTURE
       1 MOL1            1 RESIDUE      1      MOL     
@<SCITEGIC>MOL_PROPERTY
VConf Rank
SciTegic.value.IntegerValue
315

@<SCITEGIC>MOL_PROPERTY
Conf_Id
SciTegic.value.IntegerValue
39

@<SCITEGIC>MOL_PROPERTY
Delta U+W
SciTegic.value.DoubleValue
-0.422

@<SCITEGIC>MOL_PROPERTY
U+W
SciTegic.value.DoubleValue
-49.849

@<SCITEGIC>MOL_PROPERTY
Grad RMS
SciTegic.value.DoubleValue
0.000000

@<SCITEGIC>MOL_PROPERTY
U
SciTegic.value.DoubleValue
14.465

@<SCITEGIC>MOL_PROPERTY
W
SciTegic.value.DoubleValue
-64.314

@<SCITEGIC>MOL_PROPERTY
W(PB)
SciTegic.value.DoubleValue
-66.406

@<SCITEGIC>MOL_PROPERTY
W(SA)
SciTegic.value.DoubleValue
2.093

@<SCITEGIC>MOL_PROPERTY
Valence
SciTegic.value.DoubleValue
14.072

@<SCITEGIC>MOL_PROPERTY
Coulomb
SciTegic.value.DoubleValue
-0.199

@<SCITEGIC>MOL_PROPERTY
VdW
SciTegic.value.DoubleValue
0.592

@<SCITEGIC>MOL_PROPERTY
VdW6
SciTegic.value.DoubleValue
-5.019

@<SCITEGIC>MOL_PROPERTY
VdW12
SciTegic.value.DoubleValue
5.611

@<SCITEGIC>MOL_PROPERTY
Bond
SciTegic.value.DoubleValue
0.085

@<SCITEGIC>MOL_PROPERTY
Angle
SciTegic.value.DoubleValue
2.748

@<SCITEGIC>MOL_PROPERTY
Pdih
SciTegic.value.DoubleValue
11.238

@<SCITEGIC>MOL_PROPERTY
Idih
SciTegic.value.DoubleValue
0.001

@<SCITEGIC>MOL_PROPERTY
Tether
SciTegic.value.DoubleValue
0.000

@<TRIPOS>MOLECULE
guest-s20_confgen4.mol2 : confsearch ligand conformer 316
          17          16           1
SMALL
USER_CHARGES
 
@<TRIPOS>ATOM
       1    C1      23.130682   18.340552   21.976253 C.2        1 MOL1         0.6132
       2    O1      23.711658   18.233521   23.038313 O.co2      1 MOL1        -0.6749
       3    O2      23.643992   18.793536   20.972192 O.co2      1 MOL1        -0.6749
       4    C2      21.682196   17.876093   21.900307 C.3        1 MOL1        -0.1955
       5    H1      21.599909   16.941658   22.467379 H          1 MOL1         0.0733
       6    H2      21.452588   17.638046   20.854719 H          1 MOL1         0.0733
       7    C3      20.712626   18.905419   22.449094 C.2        1 MOL1        -0.1395
       8    H3      20.774769   19.076518   23.523368 H          1 MOL1         0.0816
       9    C4      19.830943   19.578993   21.704002 C.2        1 MOL1        -0.1394
      10    H4      19.771377   19.409574   20.629381 H          1 MOL1         0.0816
      11    C5      18.867496   20.607765   22.252380 C.3        1 MOL1        -0.1826
      12    H5      19.159697   20.904533   23.269124 H          1 MOL1         0.0736
      13    H6      18.904709   21.516144   21.635941 H          1 MOL1         0.0736
      14    C6      17.426868   20.060825   22.274894 C.3        1 MOL1        -0.2882
      15    H7      17.359588   19.165516   22.906952 H          1 MOL1         0.0749
      16    H8      16.732342   20.811913   22.673123 H          1 MOL1         0.0749
      17    H9      17.094273   19.791503   21.263818 H          1 MOL1         0.0749
@<TRIPOS>BOND
    1     1     2    1
    2     1     3    2
    3     1     4    1
    4     4     5    1
    5     4     6    1
    6     4     7    1
    7     7     8    1
    8     7     9    2
    9     9    10    1
   10     9    11    1
   11    11    12    1
   12    11    13    1
   13    11    14    1
   14    14    15    1
   15    14    16    1
   16    14    17    1
@<TRIPOS>SUBSTRUCTURE
       1 MOL1            1 RESIDUE      1      MOL     
@<SCITEGIC>MOL_PROPERTY
VConf Rank
SciTegic.value.IntegerValue
316

@<SCITEGIC>MOL_PROPERTY
Conf_Id
SciTegic.value.IntegerValue
38

@<SCITEGIC>MOL_PROPERTY
Delta U+W
SciTegic.value.DoubleValue
0.000

@<SCITEGIC>MOL_PROPERTY
U+W
SciTegic.value.DoubleValue
-49.427

@<SCITEGIC>MOL_PROPERTY
Grad RMS
SciTegic.value.DoubleValue
0.000000

@<SCITEGIC>MOL_PROPERTY
U
SciTegic.value.DoubleValue
13.666

@<SCITEGIC>MOL_PROPERTY
W
SciTegic.value.DoubleValue
-63.093

@<SCITEGIC>MOL_PROPERTY
W(PB)
SciTegic.value.DoubleValue
-65.225

@<SCITEGIC>MOL_PROPERTY
W(SA)
SciTegic.value.DoubleValue
2.132

@<SCITEGIC>MOL_PROPERTY
Valence
SciTegic.value.DoubleValue
15.226

@<SCITEGIC>MOL_PROPERTY
Coulomb
SciTegic.value.DoubleValue
-1.822

@<SCITEGIC>MOL_PROPERTY
VdW
SciTegic.value.DoubleValue
0.261

@<SCITEGIC>MOL_PROPERTY
VdW6
SciTegic.value.DoubleValue
-4.165

@<SCITEGIC>MOL_PROPERTY
VdW12
SciTegic.value.DoubleValue
4.426

@<SCITEGIC>MOL_PROPERTY
Bond
SciTegic.value.DoubleValue
0.044

@<SCITEGIC>MOL_PROPERTY
Angle
SciTegic.value.DoubleValue
2.229

@<SCITEGIC>MOL_PROPERTY
Pdih
SciTegic.value.DoubleValue
12.953

@<SCITEGIC>MOL_PROPERTY
Idih
SciTegic.value.DoubleValue
0.000

@<SCITEGIC>MOL_PROPERTY
Tether
SciTegic.value.DoubleValue
0.000

@<TRIPOS>MOLECULE
guest-s20_confgen4.mol2 : confsearch ligand conformer 317
          17          16           1
SMALL
USER_CHARGES
 
@<TRIPOS>ATOM
       1    C1      20.988282   16.234591   22.053781 C.2        1 MOL1         0.6132
       2    O1      20.493832   15.689027   21.086983 O.co2      1 MOL1        -0.6749
       3    O2      21.129985   15.692197   23.132061 O.co2      1 MOL1        -0.6749
       4    C2      21.461787   17.674657   21.906785 C.3        1 MOL1        -0.1955
       5    H1      21.662214   17.863267   20.845232 H          1 MOL1         0.0733
       6    H2      22.417583   17.768554   22.435126 H          1 MOL1         0.0733
       7    C3      20.462114   18.673875   22.457204 C.2        1 MOL1        -0.1395
       8    H3      20.331217   18.653136   23.538702 H          1 MOL1         0.0816
       9    C4      19.768155   19.533857   21.705486 C.2        1 MOL1        -0.1394
      10    H4      19.897191   19.551882   20.623781 H          1 MOL1         0.0816
      11    C5      18.768830   20.526811   22.255680 C.3        1 MOL1        -0.1826
      12    H5      17.837385   20.475311   21.675775 H          1 MOL1         0.0736
      13    H6      18.508608   20.275537   23.293160 H          1 MOL1         0.0736
      14    C6      19.327880   21.962007   22.203367 C.3        1 MOL1        -0.2882
      15    H7      19.561268   22.254096   21.171067 H          1 MOL1         0.0749
      16    H8      18.598118   22.678016   22.603200 H          1 MOL1         0.0749
      17    H9      20.247077   22.044284   22.798268 H          1 MOL1         0.0749
@<TRIPOS>BOND
    1     1     2    1
    2     1     3    2
    3     1     4    1
    4     4     5    1
    5     4     6    1
    6     4     7    1
    7     7     8    1
    8     7     9    2
    9     9    10    1
   10     9    11    1
   11    11    12    1
   12    11    13    1
   13    11    14    1
   14    14    15    1
   15    14    16    1
   16    14    17    1
@<TRIPOS>SUBSTRUCTURE
       1 MOL1            1 RESIDUE      1      MOL     
@<SCITEGIC>MOL_PROPERTY
VConf Rank
SciTegic.value.IntegerValue
317

@<SCITEGIC>MOL_PROPERTY
Conf_Id
SciTegic.value.IntegerValue
35

@<SCITEGIC>MOL_PROPERTY
Delta U+W
SciTegic.value.DoubleValue
-0.102

@<SCITEGIC>MOL_PROPERTY
U+W
SciTegic.value.DoubleValue
-49.529

@<SCITEGIC>MOL_PROPERTY
Grad RMS
SciTegic.value.DoubleValue
0.000000

@<SCITEGIC>MOL_PROPERTY
U
SciTegic.value.DoubleValue
13.666

@<SCITEGIC>MOL_PROPERTY
W
SciTegic.value.DoubleValue
-63.195

@<SCITEGIC>MOL_PROPERTY
W(PB)
SciTegic.value.DoubleValue
-65.299

@<SCITEGIC>MOL_PROPERTY
W(SA)
SciTegic.value.DoubleValue
2.103

@<SCITEGIC>MOL_PROPERTY
Valence
SciTegic.value.DoubleValue
15.226

@<SCITEGIC>MOL_PROPERTY
Coulomb
SciTegic.value.DoubleValue
-1.822

@<SCITEGIC>MOL_PROPERTY
VdW
SciTegic.value.DoubleValue
0.261

@<SCITEGIC>MOL_PROPERTY
VdW6
SciTegic.value.DoubleValue
-4.165

@<SCITEGIC>MOL_PROPERTY
VdW12
SciTegic.value.DoubleValue
4.426

@<SCITEGIC>MOL_PROPERTY
Bond
SciTegic.value.DoubleValue
0.044

@<SCITEGIC>MOL_PROPERTY
Angle
SciTegic.value.DoubleValue
2.229

@<SCITEGIC>MOL_PROPERTY
Pdih
SciTegic.value.DoubleValue
12.953

@<SCITEGIC>MOL_PROPERTY
Idih
SciTegic.value.DoubleValue
0.000

@<SCITEGIC>MOL_PROPERTY
Tether
SciTegic.value.DoubleValue
0.000

@<TRIPOS>MOLECULE
guest-s20_confgen4.mol2 : confsearch ligand conformer 318
          17          16           1
SMALL
USER_CHARGES
 
@<TRIPOS>ATOM
       1    C1      19.259030   20.366691   19.719425 C.2        1 MOL1         0.6132
       2    O1      19.180356   21.569655   19.873245 O.co2      1 MOL1        -0.6749
       3    O2      19.748681   19.845473   18.736866 O.co2      1 MOL1        -0.6749
       4    C2      18.704639   19.465064   20.814601 C.3        1 MOL1        -0.1955
       5    H1      18.456243   18.495137   20.367245 H          1 MOL1         0.0733
       6    H2      17.764732   19.905486   21.166899 H          1 MOL1         0.0733
       7    C3      19.668894   19.299972   21.974068 C.2        1 MOL1        -0.1395
       8    H3      19.833735   20.202598   22.559887 H          1 MOL1         0.0816
       9    C4      20.287015   18.150727   22.273856 C.2        1 MOL1        -0.1394
      10    H4      20.100486   17.268856   21.661814 H          1 MOL1         0.0816
      11    C5      21.263918   17.916139   23.413688 C.3        1 MOL1        -0.1826
      12    H5      20.882128   17.106074   24.049720 H          1 MOL1         0.0736
      13    H6      22.211429   17.544971   23.000192 H          1 MOL1         0.0736
      14    C6      21.549717   19.153755   24.292695 C.3        1 MOL1        -0.2882
      15    H7      20.630246   19.520759   24.767336 H          1 MOL1         0.0749
      16    H8      22.262359   18.903713   25.089344 H          1 MOL1         0.0749
      17    H9      21.983256   19.968052   23.697335 H          1 MOL1         0.0749
@<TRIPOS>BOND
    1     1     2    1
    2     1     3    2
    3     1     4    1
    4     4     5    1
    5     4     6    1
    6     4     7    1
    7     7     8    1
    8     7     9    2
    9     9    10    1
   10     9    11    1
   11    11    12    1
   12    11    13    1
   13    11    14    1
   14    14    15    1
   15    14    16    1
   16    14    17    1
@<TRIPOS>SUBSTRUCTURE
       1 MOL1            1 RESIDUE      1      MOL     
@<SCITEGIC>MOL_PROPERTY
VConf Rank
SciTegic.value.IntegerValue
318

@<SCITEGIC>MOL_PROPERTY
Conf_Id
SciTegic.value.IntegerValue
19

@<SCITEGIC>MOL_PROPERTY
Delta U+W
SciTegic.value.DoubleValue
-0.496

@<SCITEGIC>MOL_PROPERTY
U+W
SciTegic.value.DoubleValue
-49.923

@<SCITEGIC>MOL_PROPERTY
Grad RMS
SciTegic.value.DoubleValue
0.000000

@<SCITEGIC>MOL_PROPERTY
U
SciTegic.value.DoubleValue
13.863

@<SCITEGIC>MOL_PROPERTY
W
SciTegic.value.DoubleValue
-63.786

@<SCITEGIC>MOL_PROPERTY
W(PB)
SciTegic.value.DoubleValue
-65.856

@<SCITEGIC>MOL_PROPERTY
W(SA)
SciTegic.value.DoubleValue
2.070

@<SCITEGIC>MOL_PROPERTY
Valence
SciTegic.value.DoubleValue
14.117

@<SCITEGIC>MOL_PROPERTY
Coulomb
SciTegic.value.DoubleValue
-1.228

@<SCITEGIC>MOL_PROPERTY
VdW
SciTegic.value.DoubleValue
0.974

@<SCITEGIC>MOL_PROPERTY
VdW6
SciTegic.value.DoubleValue
-4.885

@<SCITEGIC>MOL_PROPERTY
VdW12
SciTegic.value.DoubleValue
5.859

@<SCITEGIC>MOL_PROPERTY
Bond
SciTegic.value.DoubleValue
0.094

@<SCITEGIC>MOL_PROPERTY
Angle
SciTegic.value.DoubleValue
2.818

@<SCITEGIC>MOL_PROPERTY
Pdih
SciTegic.value.DoubleValue
11.205

@<SCITEGIC>MOL_PROPERTY
Idih
SciTegic.value.DoubleValue
0.000

@<SCITEGIC>MOL_PROPERTY
Tether
SciTegic.value.DoubleValue
0.000

@<TRIPOS>MOLECULE
guest-s20_confgen4.mol2 : confsearch ligand conformer 319
          17          16           1
SMALL
USER_CHARGES
 
@<TRIPOS>ATOM
       1    C1      23.091644   18.981095   22.141557 C.2        1 MOL1         0.6132
       2    O1      23.347159   18.157015   22.997371 O.co2      1 MOL1        -0.6749
       3    O2      23.607643   18.989371   21.041248 O.co2      1 MOL1        -0.6749
       4    C2      22.077812   20.070131   22.467090 C.3        1 MOL1        -0.1955
       5    H1      22.462363   21.015566   22.067391 H          1 MOL1         0.0733
       6    H2      22.028984   20.178786   23.557257 H          1 MOL1         0.0733
       7    C3      20.706522   19.779045   21.887783 C.2        1 MOL1        -0.1395
       8    H3      20.645098   19.809402   20.800345 H          1 MOL1         0.0816
       9    C4      19.626402   19.493340   22.621218 C.2        1 MOL1        -0.1394
      10    H4      19.689590   19.458056   23.708334 H          1 MOL1         0.0816
      11    C5      18.260593   19.200506   22.041434 C.3        1 MOL1        -0.1826
      12    H5      17.499273   19.791053   22.568851 H          1 MOL1         0.0736
      13    H6      18.218384   19.502198   20.985778 H          1 MOL1         0.0736
      14    C6      17.919955   17.701999   22.157339 C.3        1 MOL1        -0.2882
      15    H7      17.916752   17.381147   23.207325 H          1 MOL1         0.0749
      16    H8      16.928151   17.495040   21.734775 H          1 MOL1         0.0749
      17    H9      18.655252   17.092260   21.615825 H          1 MOL1         0.0749
@<TRIPOS>BOND
    1     1     2    1
    2     1     3    2
    3     1     4    1
    4     4     5    1
    5     4     6    1
    6     4     7    1
    7     7     8    1
    8     7     9    2
    9     9    10    1
   10     9    11    1
   11    11    12    1
   12    11    13    1
   13    11    14    1
   14    14    15    1
   15    14    16    1
   16    14    17    1
@<TRIPOS>SUBSTRUCTURE
       1 MOL1            1 RESIDUE      1      MOL     
@<SCITEGIC>MOL_PROPERTY
VConf Rank
SciTegic.value.IntegerValue
319

@<SCITEGIC>MOL_PROPERTY
Conf_Id
SciTegic.value.IntegerValue
7

@<SCITEGIC>MOL_PROPERTY
Delta U+W
SciTegic.value.DoubleValue
-0.041

@<SCITEGIC>MOL_PROPERTY
U+W
SciTegic.value.DoubleValue
-49.468

@<SCITEGIC>MOL_PROPERTY
Grad RMS
SciTegic.value.DoubleValue
0.000000

@<SCITEGIC>MOL_PROPERTY
U
SciTegic.value.DoubleValue
14.121

@<SCITEGIC>MOL_PROPERTY
W
SciTegic.value.DoubleValue
-63.589

@<SCITEGIC>MOL_PROPERTY
W(PB)
SciTegic.value.DoubleValue
-65.660

@<SCITEGIC>MOL_PROPERTY
W(SA)
SciTegic.value.DoubleValue
2.071

@<SCITEGIC>MOL_PROPERTY
Valence
SciTegic.value.DoubleValue
15.230

@<SCITEGIC>MOL_PROPERTY
Coulomb
SciTegic.value.DoubleValue
-1.333

@<SCITEGIC>MOL_PROPERTY
VdW
SciTegic.value.DoubleValue
0.224

@<SCITEGIC>MOL_PROPERTY
VdW6
SciTegic.value.DoubleValue
-4.212

@<SCITEGIC>MOL_PROPERTY
VdW12
SciTegic.value.DoubleValue
4.436

@<SCITEGIC>MOL_PROPERTY
Bond
SciTegic.value.DoubleValue
0.044

@<SCITEGIC>MOL_PROPERTY
Angle
SciTegic.value.DoubleValue
2.230

@<SCITEGIC>MOL_PROPERTY
Pdih
SciTegic.value.DoubleValue
12.956

@<SCITEGIC>MOL_PROPERTY
Idih
SciTegic.value.DoubleValue
0.000

@<SCITEGIC>MOL_PROPERTY
Tether
SciTegic.value.DoubleValue
0.000

@<TRIPOS>MOLECULE
guest-s20_confgen4.mol2 : confsearch ligand conformer 320
          17          16           1
SMALL
USER_CHARGES
 
@<TRIPOS>ATOM
       1    C1      21.746249   17.364261   21.095013 C.2        1 MOL1         0.6132
       2    O1      21.558622   16.418250   21.834508 O.co2      1 MOL1        -0.6749
       3    O2      22.849288   17.799000   20.827828 O.co2      1 MOL1        -0.6749
       4    C2      20.533856   18.024109   20.445180 C.3        1 MOL1        -0.1955
       5    H1      19.774007   17.249891   20.287118 H          1 MOL1         0.0733
       6    H2      20.831367   18.362871   19.445957 H          1 MOL1         0.0733
       7    C3      19.925288   19.185910   21.217669 C.2        1 MOL1        -0.1395
       8    H3      19.061366   19.642354   20.736167 H          1 MOL1         0.0816
       9    C4      20.356087   19.661290   22.392157 C.2        1 MOL1        -0.1394
      10    H4      21.216964   19.222523   22.895255 H          1 MOL1         0.0816
      11    C5      19.714877   20.822321   23.119342 C.3        1 MOL1        -0.1826
      12    H5      20.489193   21.533925   23.436477 H          1 MOL1         0.0736
      13    H6      19.038670   21.370548   22.449010 H          1 MOL1         0.0736
      14    C6      18.927651   20.336714   24.352021 C.3        1 MOL1        -0.2882
      15    H7      18.465778   21.183263   24.876508 H          1 MOL1         0.0749
      16    H8      18.129952   19.642548   24.056379 H          1 MOL1         0.0749
      17    H9      19.588191   19.817295   25.058667 H          1 MOL1         0.0749
@<TRIPOS>BOND
    1     1     2    1
    2     1     3    2
    3     1     4    1
    4     4     5    1
    5     4     6    1
    6     4     7    1
    7     7     8    1
    8     7     9    2
    9     9    10    1
   10     9    11    1
   11    11    12    1
   12    11    13    1
   13    11    14    1
   14    14    15    1
   15    14    16    1
   16    14    17    1
@<TRIPOS>SUBSTRUCTURE
       1 MOL1            1 RESIDUE      1      MOL     
@<SCITEGIC>MOL_PROPERTY
VConf Rank
SciTegic.value.IntegerValue
320

@<SCITEGIC>MOL_PROPERTY
Conf_Id
SciTegic.value.IntegerValue
39

@<SCITEGIC>MOL_PROPERTY
Delta U+W
SciTegic.value.DoubleValue
-0.422

@<SCITEGIC>MOL_PROPERTY
U+W
SciTegic.value.DoubleValue
-49.849

@<SCITEGIC>MOL_PROPERTY
Grad RMS
SciTegic.value.DoubleValue
0.000000

@<SCITEGIC>MOL_PROPERTY
U
SciTegic.value.DoubleValue
14.465

@<SCITEGIC>MOL_PROPERTY
W
SciTegic.value.DoubleValue
-64.314

@<SCITEGIC>MOL_PROPERTY
W(PB)
SciTegic.value.DoubleValue
-66.406

@<SCITEGIC>MOL_PROPERTY
W(SA)
SciTegic.value.DoubleValue
2.093

@<SCITEGIC>MOL_PROPERTY
Valence
SciTegic.value.DoubleValue
14.072

@<SCITEGIC>MOL_PROPERTY
Coulomb
SciTegic.value.DoubleValue
-0.199

@<SCITEGIC>MOL_PROPERTY
VdW
SciTegic.value.DoubleValue
0.592

@<SCITEGIC>MOL_PROPERTY
VdW6
SciTegic.value.DoubleValue
-5.019

@<SCITEGIC>MOL_PROPERTY
VdW12
SciTegic.value.DoubleValue
5.611

@<SCITEGIC>MOL_PROPERTY
Bond
SciTegic.value.DoubleValue
0.085

@<SCITEGIC>MOL_PROPERTY
Angle
SciTegic.value.DoubleValue
2.748

@<SCITEGIC>MOL_PROPERTY
Pdih
SciTegic.value.DoubleValue
11.238

@<SCITEGIC>MOL_PROPERTY
Idih
SciTegic.value.DoubleValue
0.001

@<SCITEGIC>MOL_PROPERTY
Tether
SciTegic.value.DoubleValue
0.000

@<TRIPOS>MOLECULE
guest-s20_confgen4.mol2 : confsearch ligand conformer 321
          17          16           1
SMALL
USER_CHARGES
 
@<TRIPOS>ATOM
       1    C1      17.836475   20.664400   23.813488 C.2        1 MOL1         0.6132
       2    O1      17.243323   21.582665   23.282526 O.co2      1 MOL1        -0.6749
       3    O2      18.161671   20.662190   24.984411 O.co2      1 MOL1        -0.6749
       4    C2      18.185499   19.448929   22.964714 C.3        1 MOL1        -0.1955
       5    H1      17.326305   19.233350   22.319099 H          1 MOL1         0.0733
       6    H2      18.308806   18.587970   23.632684 H          1 MOL1         0.0733
       7    C3      19.428237   19.666037   22.122566 C.2        1 MOL1        -0.1395
       8    H3      19.326636   20.400775   21.324419 H          1 MOL1         0.0816
       9    C4      20.585806   19.025683   22.312849 C.2        1 MOL1        -0.1394
      10    H4      20.687602   18.293277   23.113024 H          1 MOL1         0.0816
      11    C5      21.825094   19.246216   21.474486 C.3        1 MOL1        -0.1826
      12    H5      21.725679   20.161532   20.874874 H          1 MOL1         0.0736
      13    H6      22.694767   19.391450   22.129552 H          1 MOL1         0.0736
      14    C6      22.081040   18.048774   20.538705 C.3        1 MOL1        -0.2882
      15    H7      21.234307   17.899747   19.855745 H          1 MOL1         0.0749
      16    H8      22.981807   18.214289   19.933471 H          1 MOL1         0.0749
      17    H9      22.222661   17.124824   21.114629 H          1 MOL1         0.0749
@<TRIPOS>BOND
    1     1     2    1
    2     1     3    2
    3     1     4    1
    4     4     5    1
    5     4     6    1
    6     4     7    1
    7     7     8    1
    8     7     9    2
    9     9    10    1
   10     9    11    1
   11    11    12    1
   12    11    13    1
   13    11    14    1
   14    14    15    1
   15    14    16    1
   16    14    17    1
@<TRIPOS>SUBSTRUCTURE
       1 MOL1            1 RESIDUE      1      MOL     
@<SCITEGIC>MOL_PROPERTY
VConf Rank
SciTegic.value.IntegerValue
321

@<SCITEGIC>MOL_PROPERTY
Conf_Id
SciTegic.value.IntegerValue
38

@<SCITEGIC>MOL_PROPERTY
Delta U+W
SciTegic.value.DoubleValue
0.000

@<SCITEGIC>MOL_PROPERTY
U+W
SciTegic.value.DoubleValue
-49.427

@<SCITEGIC>MOL_PROPERTY
Grad RMS
SciTegic.value.DoubleValue
0.000000

@<SCITEGIC>MOL_PROPERTY
U
SciTegic.value.DoubleValue
13.666

@<SCITEGIC>MOL_PROPERTY
W
SciTegic.value.DoubleValue
-63.093

@<SCITEGIC>MOL_PROPERTY
W(PB)
SciTegic.value.DoubleValue
-65.225

@<SCITEGIC>MOL_PROPERTY
W(SA)
SciTegic.value.DoubleValue
2.132

@<SCITEGIC>MOL_PROPERTY
Valence
SciTegic.value.DoubleValue
15.226

@<SCITEGIC>MOL_PROPERTY
Coulomb
SciTegic.value.DoubleValue
-1.822

@<SCITEGIC>MOL_PROPERTY
VdW
SciTegic.value.DoubleValue
0.261

@<SCITEGIC>MOL_PROPERTY
VdW6
SciTegic.value.DoubleValue
-4.165

@<SCITEGIC>MOL_PROPERTY
VdW12
SciTegic.value.DoubleValue
4.426

@<SCITEGIC>MOL_PROPERTY
Bond
SciTegic.value.DoubleValue
0.044

@<SCITEGIC>MOL_PROPERTY
Angle
SciTegic.value.DoubleValue
2.229

@<SCITEGIC>MOL_PROPERTY
Pdih
SciTegic.value.DoubleValue
12.953

@<SCITEGIC>MOL_PROPERTY
Idih
SciTegic.value.DoubleValue
0.000

@<SCITEGIC>MOL_PROPERTY
Tether
SciTegic.value.DoubleValue
0.000

@<TRIPOS>MOLECULE
guest-s20_confgen4.mol2 : confsearch ligand conformer 322
          17          16           1
SMALL
USER_CHARGES
 
@<TRIPOS>ATOM
       1    C1      21.777404   18.183627   24.550531 C.2        1 MOL1         0.6132
       2    O1      21.485707   18.815388   25.546829 O.co2      1 MOL1        -0.6749
       3    O2      22.903946   17.800233   24.303806 O.co2      1 MOL1        -0.6749
       4    C2      20.671529   17.848313   23.558458 C.3        1 MOL1        -0.1955
       5    H1      19.713814   17.869005   24.092307 H          1 MOL1         0.0733
       6    H2      20.827188   16.817736   23.219066 H          1 MOL1         0.0733
       7    C3      20.651954   18.790646   22.370026 C.2        1 MOL1        -0.1395
       8    H3      21.505967   18.709718   21.698227 H          1 MOL1         0.0816
       9    C4      19.678697   19.674024   22.127863 C.2        1 MOL1        -0.1394
      10    H4      18.826589   19.756626   22.801769 H          1 MOL1         0.0816
      11    C5      19.662817   20.615624   20.944453 C.3        1 MOL1        -0.1826
      12    H5      19.436964   21.635208   21.285001 H          1 MOL1         0.0736
      13    H6      20.653212   20.653739   20.470233 H          1 MOL1         0.0736
      14    C6      18.614957   20.178052   19.902541 C.3        1 MOL1        -0.2882
      15    H7      17.608017   20.168045   20.340034 H          1 MOL1         0.0749
      16    H8      18.607602   20.865402   19.046632 H          1 MOL1         0.0749
      17    H9      18.835161   19.169717   19.527880 H          1 MOL1         0.0749
@<TRIPOS>BOND
    1     1     2    1
    2     1     3    2
    3     1     4    1
    4     4     5    1
    5     4     6    1
    6     4     7    1
    7     7     8    1
    8     7     9    2
    9     9    10    1
   10     9    11    1
   11    11    12    1
   12    11    13    1
   13    11    14    1
   14    14    15    1
   15    14    16    1
   16    14    17    1
@<TRIPOS>SUBSTRUCTURE
       1 MOL1            1 RESIDUE      1      MOL     
@<SCITEGIC>MOL_PROPERTY
VConf Rank
SciTegic.value.IntegerValue
322

@<SCITEGIC>MOL_PROPERTY
Conf_Id
SciTegic.value.IntegerValue
35

@<SCITEGIC>MOL_PROPERTY
Delta U+W
SciTegic.value.DoubleValue
-0.102

@<SCITEGIC>MOL_PROPERTY
U+W
SciTegic.value.DoubleValue
-49.529

@<SCITEGIC>MOL_PROPERTY
Grad RMS
SciTegic.value.DoubleValue
0.000000

@<SCITEGIC>MOL_PROPERTY
U
SciTegic.value.DoubleValue
13.666

@<SCITEGIC>MOL_PROPERTY
W
SciTegic.value.DoubleValue
-63.195

@<SCITEGIC>MOL_PROPERTY
W(PB)
SciTegic.value.DoubleValue
-65.299

@<SCITEGIC>MOL_PROPERTY
W(SA)
SciTegic.value.DoubleValue
2.103

@<SCITEGIC>MOL_PROPERTY
Valence
SciTegic.value.DoubleValue
15.226

@<SCITEGIC>MOL_PROPERTY
Coulomb
SciTegic.value.DoubleValue
-1.822

@<SCITEGIC>MOL_PROPERTY
VdW
SciTegic.value.DoubleValue
0.261

@<SCITEGIC>MOL_PROPERTY
VdW6
SciTegic.value.DoubleValue
-4.165

@<SCITEGIC>MOL_PROPERTY
VdW12
SciTegic.value.DoubleValue
4.426

@<SCITEGIC>MOL_PROPERTY
Bond
SciTegic.value.DoubleValue
0.044

@<SCITEGIC>MOL_PROPERTY
Angle
SciTegic.value.DoubleValue
2.229

@<SCITEGIC>MOL_PROPERTY
Pdih
SciTegic.value.DoubleValue
12.953

@<SCITEGIC>MOL_PROPERTY
Idih
SciTegic.value.DoubleValue
0.000

@<SCITEGIC>MOL_PROPERTY
Tether
SciTegic.value.DoubleValue
0.000

@<TRIPOS>MOLECULE
guest-s20_confgen4.mol2 : confsearch ligand conformer 323
          17          16           1
SMALL
USER_CHARGES
 
@<TRIPOS>ATOM
       1    C1      21.966974   20.050736   20.022149 C.2        1 MOL1         0.6132
       2    O1      23.131374   19.976787   20.362261 O.co2      1 MOL1        -0.6749
       3    O2      21.559335   19.685452   18.937138 O.co2      1 MOL1        -0.6749
       4    C2      20.967445   20.642450   21.007293 C.3        1 MOL1        -0.1955
       5    H1      20.113864   21.030285   20.438462 H          1 MOL1         0.0733
       6    H2      21.444957   21.500907   21.493651 H          1 MOL1         0.0733
       7    C3      20.516365   19.637690   22.050552 C.2        1 MOL1        -0.1395
       8    H3      21.290848   19.332466   22.752054 H          1 MOL1         0.0816
       9    C4      19.274062   19.143733   22.124038 C.2        1 MOL1        -0.1394
      10    H4      18.526470   19.469541   21.401514 H          1 MOL1         0.0816
      11    C5      18.756552   18.135850   23.136433 C.3        1 MOL1        -0.1826
      12    H5      17.901456   18.572795   23.669722 H          1 MOL1         0.0736
      13    H6      18.355936   17.265257   22.599688 H          1 MOL1         0.0736
      14    C6      19.799926   17.653612   24.168347 C.3        1 MOL1        -0.2882
      15    H7      20.183674   18.493289   24.762554 H          1 MOL1         0.0749
      16    H8      19.350530   16.929802   24.860570 H          1 MOL1         0.0749
      17    H9      20.647098   17.162466   23.671794 H          1 MOL1         0.0749
@<TRIPOS>BOND
    1     1     2    1
    2     1     3    2
    3     1     4    1
    4     4     5    1
    5     4     6    1
    6     4     7    1
    7     7     8    1
    8     7     9    2
    9     9    10    1
   10     9    11    1
   11    11    12    1
   12    11    13    1
   13    11    14    1
   14    14    15    1
   15    14    16    1
   16    14    17    1
@<TRIPOS>SUBSTRUCTURE
       1 MOL1            1 RESIDUE      1      MOL     
@<SCITEGIC>MOL_PROPERTY
VConf Rank
SciTegic.value.IntegerValue
323

@<SCITEGIC>MOL_PROPERTY
Conf_Id
SciTegic.value.IntegerValue
19

@<SCITEGIC>MOL_PROPERTY
Delta U+W
SciTegic.value.DoubleValue
-0.496

@<SCITEGIC>MOL_PROPERTY
U+W
SciTegic.value.DoubleValue
-49.923

@<SCITEGIC>MOL_PROPERTY
Grad RMS
SciTegic.value.DoubleValue
0.000000

@<SCITEGIC>MOL_PROPERTY
U
SciTegic.value.DoubleValue
13.863

@<SCITEGIC>MOL_PROPERTY
W
SciTegic.value.DoubleValue
-63.786

@<SCITEGIC>MOL_PROPERTY
W(PB)
SciTegic.value.DoubleValue
-65.856

@<SCITEGIC>MOL_PROPERTY
W(SA)
SciTegic.value.DoubleValue
2.070

@<SCITEGIC>MOL_PROPERTY
Valence
SciTegic.value.DoubleValue
14.117

@<SCITEGIC>MOL_PROPERTY
Coulomb
SciTegic.value.DoubleValue
-1.228

@<SCITEGIC>MOL_PROPERTY
VdW
SciTegic.value.DoubleValue
0.974

@<SCITEGIC>MOL_PROPERTY
VdW6
SciTegic.value.DoubleValue
-4.885

@<SCITEGIC>MOL_PROPERTY
VdW12
SciTegic.value.DoubleValue
5.859

@<SCITEGIC>MOL_PROPERTY
Bond
SciTegic.value.DoubleValue
0.094

@<SCITEGIC>MOL_PROPERTY
Angle
SciTegic.value.DoubleValue
2.818

@<SCITEGIC>MOL_PROPERTY
Pdih
SciTegic.value.DoubleValue
11.205

@<SCITEGIC>MOL_PROPERTY
Idih
SciTegic.value.DoubleValue
0.000

@<SCITEGIC>MOL_PROPERTY
Tether
SciTegic.value.DoubleValue
0.000

@<TRIPOS>MOLECULE
guest-s20_confgen4.mol2 : confsearch ligand conformer 324
          17          16           1
SMALL
USER_CHARGES
 
@<TRIPOS>ATOM
       1    C1      18.433612   21.244275   21.265500 C.2        1 MOL1         0.6132
       2    O1      18.200868   20.910864   20.120302 O.co2      1 MOL1        -0.6749
       3    O2      17.580749   21.634820   22.038223 O.co2      1 MOL1        -0.6749
       4    C2      19.873424   21.180248   21.758117 C.3        1 MOL1        -0.1955
       5    H1      20.065166   22.082977   22.349556 H          1 MOL1         0.0733
       6    H2      20.536752   21.221187   20.885779 H          1 MOL1         0.0733
       7    C3      20.147552   19.943195   22.591974 C.2        1 MOL1        -0.1395
       8    H3      19.637196   19.908400   23.554025 H          1 MOL1         0.0816
       9    C4      20.944200   18.940655   22.209247 C.2        1 MOL1        -0.1394
      10    H4      21.450210   18.973599   21.244919 H          1 MOL1         0.0816
      11    C5      21.213895   17.706640   23.040996 C.3        1 MOL1        -0.1826
      12    H5      22.294516   17.513291   23.078344 H          1 MOL1         0.0736
      13    H6      20.885333   17.862545   24.077794 H          1 MOL1         0.0736
      14    C6      20.491698   16.476922   22.456857 C.3        1 MOL1        -0.2882
      15    H7      20.830175   16.273977   21.432322 H          1 MOL1         0.0749
      16    H8      20.690429   15.584497   23.064435 H          1 MOL1         0.0749
      17    H9      19.405802   16.637916   22.432531 H          1 MOL1         0.0749
@<TRIPOS>BOND
    1     1     2    1
    2     1     3    2
    3     1     4    1
    4     4     5    1
    5     4     6    1
    6     4     7    1
    7     7     8    1
    8     7     9    2
    9     9    10    1
   10     9    11    1
   11    11    12    1
   12    11    13    1
   13    11    14    1
   14    14    15    1
   15    14    16    1
   16    14    17    1
@<TRIPOS>SUBSTRUCTURE
       1 MOL1            1 RESIDUE      1      MOL     
@<SCITEGIC>MOL_PROPERTY
VConf Rank
SciTegic.value.IntegerValue
324

@<SCITEGIC>MOL_PROPERTY
Conf_Id
SciTegic.value.IntegerValue
7

@<SCITEGIC>MOL_PROPERTY
Delta U+W
SciTegic.value.DoubleValue
-0.041

@<SCITEGIC>MOL_PROPERTY
U+W
SciTegic.value.DoubleValue
-49.468

@<SCITEGIC>MOL_PROPERTY
Grad RMS
SciTegic.value.DoubleValue
0.000000

@<SCITEGIC>MOL_PROPERTY
U
SciTegic.value.DoubleValue
14.121

@<SCITEGIC>MOL_PROPERTY
W
SciTegic.value.DoubleValue
-63.589

@<SCITEGIC>MOL_PROPERTY
W(PB)
SciTegic.value.DoubleValue
-65.660

@<SCITEGIC>MOL_PROPERTY
W(SA)
SciTegic.value.DoubleValue
2.071

@<SCITEGIC>MOL_PROPERTY
Valence
SciTegic.value.DoubleValue
15.230

@<SCITEGIC>MOL_PROPERTY
Coulomb
SciTegic.value.DoubleValue
-1.333

@<SCITEGIC>MOL_PROPERTY
VdW
SciTegic.value.DoubleValue
0.224

@<SCITEGIC>MOL_PROPERTY
VdW6
SciTegic.value.DoubleValue
-4.212

@<SCITEGIC>MOL_PROPERTY
VdW12
SciTegic.value.DoubleValue
4.436

@<SCITEGIC>MOL_PROPERTY
Bond
SciTegic.value.DoubleValue
0.044

@<SCITEGIC>MOL_PROPERTY
Angle
SciTegic.value.DoubleValue
2.230

@<SCITEGIC>MOL_PROPERTY
Pdih
SciTegic.value.DoubleValue
12.956

@<SCITEGIC>MOL_PROPERTY
Idih
SciTegic.value.DoubleValue
0.000

@<SCITEGIC>MOL_PROPERTY
Tether
SciTegic.value.DoubleValue
0.000

@<TRIPOS>MOLECULE
guest-s20_confgen4.mol2 : confsearch ligand conformer 325
          17          16           1
SMALL
USER_CHARGES
 
@<TRIPOS>ATOM
       1    C1      21.540664   16.929705   22.648895 C.2        1 MOL1         0.6132
       2    O1      20.876839   16.151347   21.992779 O.co2      1 MOL1        -0.6749
       3    O2      21.824527   16.751033   23.817048 O.co2      1 MOL1        -0.6749
       4    C2      22.069556   18.184970   21.961757 C.3        1 MOL1        -0.1955
       5    H1      22.255284   17.939508   20.909606 H          1 MOL1         0.0733
       6    H2      23.049600   18.417014   22.394645 H          1 MOL1         0.0733
       7    C3      21.170347   19.410019   22.048681 C.2        1 MOL1        -0.1395
       8    H3      21.566762   20.294669   21.551896 H          1 MOL1         0.0816
       9    C4      19.982439   19.471996   22.661893 C.2        1 MOL1        -0.1394
      10    H4      19.562862   18.601770   23.165277 H          1 MOL1         0.0816
      11    C5      19.126735   20.717891   22.720688 C.3        1 MOL1        -0.1826
      12    H5      18.788841   20.886872   23.752091 H          1 MOL1         0.0736
      13    H6      19.712572   21.601514   22.432315 H          1 MOL1         0.0736
      14    C6      17.902431   20.592883   21.793062 C.3        1 MOL1        -0.2882
      15    H7      17.284491   21.498938   21.840765 H          1 MOL1         0.0749
      16    H8      18.216262   20.448717   20.750795 H          1 MOL1         0.0749
      17    H9      17.277194   19.738227   22.083061 H          1 MOL1         0.0749
@<TRIPOS>BOND
    1     1     2    1
    2     1     3    2
    3     1     4    1
    4     4     5    1
    5     4     6    1
    6     4     7    1
    7     7     8    1
    8     7     9    2
    9     9    10    1
   10     9    11    1
   11    11    12    1
   12    11    13    1
   13    11    14    1
   14    14    15    1
   15    14    16    1
   16    14    17    1
@<TRIPOS>SUBSTRUCTURE
       1 MOL1            1 RESIDUE      1      MOL     
@<SCITEGIC>MOL_PROPERTY
VConf Rank
SciTegic.value.IntegerValue
325

@<SCITEGIC>MOL_PROPERTY
Conf_Id
SciTegic.value.IntegerValue
39

@<SCITEGIC>MOL_PROPERTY
Delta U+W
SciTegic.value.DoubleValue
-0.422

@<SCITEGIC>MOL_PROPERTY
U+W
SciTegic.value.DoubleValue
-49.849

@<SCITEGIC>MOL_PROPERTY
Grad RMS
SciTegic.value.DoubleValue
0.000000

@<SCITEGIC>MOL_PROPERTY
U
SciTegic.value.DoubleValue
14.465

@<SCITEGIC>MOL_PROPERTY
W
SciTegic.value.DoubleValue
-64.314

@<SCITEGIC>MOL_PROPERTY
W(PB)
SciTegic.value.DoubleValue
-66.406

@<SCITEGIC>MOL_PROPERTY
W(SA)
SciTegic.value.DoubleValue
2.093

@<SCITEGIC>MOL_PROPERTY
Valence
SciTegic.value.DoubleValue
14.072

@<SCITEGIC>MOL_PROPERTY
Coulomb
SciTegic.value.DoubleValue
-0.199

@<SCITEGIC>MOL_PROPERTY
VdW
SciTegic.value.DoubleValue
0.592

@<SCITEGIC>MOL_PROPERTY
VdW6
SciTegic.value.DoubleValue
-5.019

@<SCITEGIC>MOL_PROPERTY
VdW12
SciTegic.value.DoubleValue
5.611

@<SCITEGIC>MOL_PROPERTY
Bond
SciTegic.value.DoubleValue
0.085

@<SCITEGIC>MOL_PROPERTY
Angle
SciTegic.value.DoubleValue
2.748

@<SCITEGIC>MOL_PROPERTY
Pdih
SciTegic.value.DoubleValue
11.238

@<SCITEGIC>MOL_PROPERTY
Idih
SciTegic.value.DoubleValue
0.001

@<SCITEGIC>MOL_PROPERTY
Tether
SciTegic.value.DoubleValue
0.000

@<TRIPOS>MOLECULE
guest-s20_confgen4.mol2 : confsearch ligand conformer 326
          17          16           1
SMALL
USER_CHARGES
 
@<TRIPOS>ATOM
       1    C1      23.249708   19.009809   22.395692 C.2        1 MOL1         0.6132
       2    O1      23.923014   19.728227   21.683305 O.co2      1 MOL1        -0.6749
       3    O2      23.530415   17.853126   22.640861 O.co2      1 MOL1        -0.6749
       4    C2      21.988800   19.594572   23.018401 C.3        1 MOL1        -0.1955
       5    H1      22.219338   20.614755   23.346409 H          1 MOL1         0.0733
       6    H2      21.749732   19.014725   23.917992 H          1 MOL1         0.0733
       7    C3      20.817986   19.609602   22.054184 C.2        1 MOL1        -0.1395
       8    H3      20.918091   20.293265   21.211696 H          1 MOL1         0.0816
       9    C4      19.724239   18.853435   22.188931 C.2        1 MOL1        -0.1394
      10    H4      19.626098   18.167845   23.029999 H          1 MOL1         0.0816
      11    C5      18.559402   18.866997   21.224415 C.3        1 MOL1        -0.1826
      12    H5      18.839452   19.373722   20.290593 H          1 MOL1         0.0736
      13    H6      18.289004   17.836965   20.955244 H          1 MOL1         0.0736
      14    C6      17.337300   19.574336   21.841828 C.3        1 MOL1        -0.2882
      15    H7      17.576569   20.615394   22.095895 H          1 MOL1         0.0749
      16    H8      16.495178   19.580465   21.137641 H          1 MOL1         0.0749
      17    H9      17.011387   19.064871   22.758155 H          1 MOL1         0.0749
@<TRIPOS>BOND
    1     1     2    1
    2     1     3    2
    3     1     4    1
    4     4     5    1
    5     4     6    1
    6     4     7    1
    7     7     8    1
    8     7     9    2
    9     9    10    1
   10     9    11    1
   11    11    12    1
   12    11    13    1
   13    11    14    1
   14    14    15    1
   15    14    16    1
   16    14    17    1
@<TRIPOS>SUBSTRUCTURE
       1 MOL1            1 RESIDUE      1      MOL     
@<SCITEGIC>MOL_PROPERTY
VConf Rank
SciTegic.value.IntegerValue
326

@<SCITEGIC>MOL_PROPERTY
Conf_Id
SciTegic.value.IntegerValue
38

@<SCITEGIC>MOL_PROPERTY
Delta U+W
SciTegic.value.DoubleValue
0.000

@<SCITEGIC>MOL_PROPERTY
U+W
SciTegic.value.DoubleValue
-49.427

@<SCITEGIC>MOL_PROPERTY
Grad RMS
SciTegic.value.DoubleValue
0.000000

@<SCITEGIC>MOL_PROPERTY
U
SciTegic.value.DoubleValue
13.666

@<SCITEGIC>MOL_PROPERTY
W
SciTegic.value.DoubleValue
-63.093

@<SCITEGIC>MOL_PROPERTY
W(PB)
SciTegic.value.DoubleValue
-65.225

@<SCITEGIC>MOL_PROPERTY
W(SA)
SciTegic.value.DoubleValue
2.132

@<SCITEGIC>MOL_PROPERTY
Valence
SciTegic.value.DoubleValue
15.226

@<SCITEGIC>MOL_PROPERTY
Coulomb
SciTegic.value.DoubleValue
-1.822

@<SCITEGIC>MOL_PROPERTY
VdW
SciTegic.value.DoubleValue
0.261

@<SCITEGIC>MOL_PROPERTY
VdW6
SciTegic.value.DoubleValue
-4.165

@<SCITEGIC>MOL_PROPERTY
VdW12
SciTegic.value.DoubleValue
4.426

@<SCITEGIC>MOL_PROPERTY
Bond
SciTegic.value.DoubleValue
0.044

@<SCITEGIC>MOL_PROPERTY
Angle
SciTegic.value.DoubleValue
2.229

@<SCITEGIC>MOL_PROPERTY
Pdih
SciTegic.value.DoubleValue
12.953

@<SCITEGIC>MOL_PROPERTY
Idih
SciTegic.value.DoubleValue
0.000

@<SCITEGIC>MOL_PROPERTY
Tether
SciTegic.value.DoubleValue
0.000

@<TRIPOS>MOLECULE
guest-s20_confgen4.mol2 : confsearch ligand conformer 327
          17          16           1
SMALL
USER_CHARGES
 
@<TRIPOS>ATOM
       1    C1      21.815210   21.605541   23.354402 C.2        1 MOL1         0.6132
       2    O1      22.985457   21.277915   23.354775 O.co2      1 MOL1        -0.6749
       3    O2      21.296638   22.246848   24.247021 O.co2      1 MOL1        -0.6749
       4    C2      20.950917   21.195860   22.169175 C.3        1 MOL1        -0.1955
       5    H1      21.608042   21.026065   21.307783 H          1 MOL1         0.0733
       6    H2      20.304440   22.044350   21.916908 H          1 MOL1         0.0733
       7    C3      20.108991   19.968363   22.460994 C.2        1 MOL1        -0.1395
       8    H3      19.319988   20.110288   23.198918 H          1 MOL1         0.0816
       9    C4      20.289348   18.778383   21.879919 C.2        1 MOL1        -0.1394
      10    H4      21.080537   18.636330   21.144459 H          1 MOL1         0.0816
      11    C5      19.451378   17.554449   22.175065 C.3        1 MOL1        -0.1826
      12    H5      20.106519   16.692018   22.358195 H          1 MOL1         0.0736
      13    H6      18.862737   17.703297   23.090798 H          1 MOL1         0.0736
      14    C6      18.501138   17.238188   21.003705 C.3        1 MOL1        -0.2882
      15    H7      19.065915   17.046849   20.081835 H          1 MOL1         0.0749
      16    H8      17.896292   16.348809   21.223365 H          1 MOL1         0.0749
      17    H9      17.817978   18.077552   20.818339 H          1 MOL1         0.0749
@<TRIPOS>BOND
    1     1     2    1
    2     1     3    2
    3     1     4    1
    4     4     5    1
    5     4     6    1
    6     4     7    1
    7     7     8    1
    8     7     9    2
    9     9    10    1
   10     9    11    1
   11    11    12    1
   12    11    13    1
   13    11    14    1
   14    14    15    1
   15    14    16    1
   16    14    17    1
@<TRIPOS>SUBSTRUCTURE
       1 MOL1            1 RESIDUE      1      MOL     
@<SCITEGIC>MOL_PROPERTY
VConf Rank
SciTegic.value.IntegerValue
327

@<SCITEGIC>MOL_PROPERTY
Conf_Id
SciTegic.value.IntegerValue
35

@<SCITEGIC>MOL_PROPERTY
Delta U+W
SciTegic.value.DoubleValue
-0.102

@<SCITEGIC>MOL_PROPERTY
U+W
SciTegic.value.DoubleValue
-49.529

@<SCITEGIC>MOL_PROPERTY
Grad RMS
SciTegic.value.DoubleValue
0.000000

@<SCITEGIC>MOL_PROPERTY
U
SciTegic.value.DoubleValue
13.666

@<SCITEGIC>MOL_PROPERTY
W
SciTegic.value.DoubleValue
-63.195

@<SCITEGIC>MOL_PROPERTY
W(PB)
SciTegic.value.DoubleValue
-65.299

@<SCITEGIC>MOL_PROPERTY
W(SA)
SciTegic.value.DoubleValue
2.103

@<SCITEGIC>MOL_PROPERTY
Valence
SciTegic.value.DoubleValue
15.226

@<SCITEGIC>MOL_PROPERTY
Coulomb
SciTegic.value.DoubleValue
-1.822

@<SCITEGIC>MOL_PROPERTY
VdW
SciTegic.value.DoubleValue
0.261

@<SCITEGIC>MOL_PROPERTY
VdW6
SciTegic.value.DoubleValue
-4.165

@<SCITEGIC>MOL_PROPERTY
VdW12
SciTegic.value.DoubleValue
4.426

@<SCITEGIC>MOL_PROPERTY
Bond
SciTegic.value.DoubleValue
0.044

@<SCITEGIC>MOL_PROPERTY
Angle
SciTegic.value.DoubleValue
2.229

@<SCITEGIC>MOL_PROPERTY
Pdih
SciTegic.value.DoubleValue
12.953

@<SCITEGIC>MOL_PROPERTY
Idih
SciTegic.value.DoubleValue
0.000

@<SCITEGIC>MOL_PROPERTY
Tether
SciTegic.value.DoubleValue
0.000

@<TRIPOS>MOLECULE
guest-s20_confgen4.mol2 : confsearch ligand conformer 328
          17          16           1
SMALL
USER_CHARGES
 
@<TRIPOS>ATOM
       1    C1      19.601966   18.519606   25.029191 C.2        1 MOL1         0.6132
       2    O1      18.841846   17.573967   25.099590 O.co2      1 MOL1        -0.6749
       3    O2      20.583955   18.646338   25.733809 O.co2      1 MOL1        -0.6749
       4    C2      19.300384   19.608716   24.008123 C.3        1 MOL1        -0.1955
       5    H1      19.776776   20.536896   24.345938 H          1 MOL1         0.0733
       6    H2      18.218256   19.783260   24.014626 H          1 MOL1         0.0733
       7    C3      19.759335   19.237406   22.610661 C.2        1 MOL1        -0.1395
       8    H3      19.209181   18.415893   22.155100 H          1 MOL1         0.0816
       9    C4      20.761105   19.848827   21.966197 C.2        1 MOL1        -0.1394
      10    H4      21.291792   20.664601   22.456063 H          1 MOL1         0.0816
      11    C5      21.273767   19.527277   20.572506 C.3        1 MOL1        -0.1826
      12    H5      21.206680   20.430180   19.950596 H          1 MOL1         0.0736
      13    H6      22.344426   19.289412   20.632772 H          1 MOL1         0.0736
      14    C6      20.541098   18.369510   19.859205 C.3        1 MOL1        -0.2882
      15    H7      19.474487   18.596860   19.732492 H          1 MOL1         0.0749
      16    H8      20.969020   18.199147   18.862767 H          1 MOL1         0.0749
      17    H9      20.632791   17.435224   20.428583 H          1 MOL1         0.0749
@<TRIPOS>BOND
    1     1     2    1
    2     1     3    2
    3     1     4    1
    4     4     5    1
    5     4     6    1
    6     4     7    1
    7     7     8    1
    8     7     9    2
    9     9    10    1
   10     9    11    1
   11    11    12    1
   12    11    13    1
   13    11    14    1
   14    14    15    1
   15    14    16    1
   16    14    17    1
@<TRIPOS>SUBSTRUCTURE
       1 MOL1            1 RESIDUE      1      MOL     
@<SCITEGIC>MOL_PROPERTY
VConf Rank
SciTegic.value.IntegerValue
328

@<SCITEGIC>MOL_PROPERTY
Conf_Id
SciTegic.value.IntegerValue
19

@<SCITEGIC>MOL_PROPERTY
Delta U+W
SciTegic.value.DoubleValue
-0.496

@<SCITEGIC>MOL_PROPERTY
U+W
SciTegic.value.DoubleValue
-49.923

@<SCITEGIC>MOL_PROPERTY
Grad RMS
SciTegic.value.DoubleValue
0.000000

@<SCITEGIC>MOL_PROPERTY
U
SciTegic.value.DoubleValue
13.863

@<SCITEGIC>MOL_PROPERTY
W
SciTegic.value.DoubleValue
-63.786

@<SCITEGIC>MOL_PROPERTY
W(PB)
SciTegic.value.DoubleValue
-65.856

@<SCITEGIC>MOL_PROPERTY
W(SA)
SciTegic.value.DoubleValue
2.070

@<SCITEGIC>MOL_PROPERTY
Valence
SciTegic.value.DoubleValue
14.117

@<SCITEGIC>MOL_PROPERTY
Coulomb
SciTegic.value.DoubleValue
-1.228

@<SCITEGIC>MOL_PROPERTY
VdW
SciTegic.value.DoubleValue
0.974

@<SCITEGIC>MOL_PROPERTY
VdW6
SciTegic.value.DoubleValue
-4.885

@<SCITEGIC>MOL_PROPERTY
VdW12
SciTegic.value.DoubleValue
5.859

@<SCITEGIC>MOL_PROPERTY
Bond
SciTegic.value.DoubleValue
0.094

@<SCITEGIC>MOL_PROPERTY
Angle
SciTegic.value.DoubleValue
2.818

@<SCITEGIC>MOL_PROPERTY
Pdih
SciTegic.value.DoubleValue
11.205

@<SCITEGIC>MOL_PROPERTY
Idih
SciTegic.value.DoubleValue
0.000

@<SCITEGIC>MOL_PROPERTY
Tether
SciTegic.value.DoubleValue
0.000

@<TRIPOS>MOLECULE
guest-s20_confgen4.mol2 : confsearch ligand conformer 329
          17          16           1
SMALL
USER_CHARGES
 
@<TRIPOS>ATOM
       1    C1      20.825833   16.223729   22.533564 C.2        1 MOL1         0.6132
       2    O1      21.243088   16.184141   23.674241 O.co2      1 MOL1        -0.6749
       3    O2      20.028998   15.425223   22.081409 O.co2      1 MOL1        -0.6749
       4    C2      21.336021   17.326842   21.615589 C.3        1 MOL1        -0.1955
       5    H1      21.529107   16.881634   20.632740 H          1 MOL1         0.0733
       6    H2      22.299686   17.678025   22.003756 H          1 MOL1         0.0733
       7    C3      20.352420   18.473966   21.483684 C.2        1 MOL1        -0.1395
       8    H3      19.425877   18.234489   20.962737 H          1 MOL1         0.0816
       9    C4      20.563211   19.703236   21.963972 C.2        1 MOL1        -0.1394
      10    H4      21.487687   19.940751   22.489320 H          1 MOL1         0.0816
      11    C5      19.579835   20.844900   21.833927 C.3        1 MOL1        -0.1826
      12    H5      20.099543   21.742971   21.473516 H          1 MOL1         0.0736
      13    H6      18.809441   20.605568   21.087990 H          1 MOL1         0.0736
      14    C6      18.903985   21.149668   23.184977 C.3        1 MOL1        -0.2882
      15    H7      19.648941   21.430365   23.941070 H          1 MOL1         0.0749
      16    H8      18.191180   21.978486   23.084796 H          1 MOL1         0.0749
      17    H9      18.356723   20.272014   23.553635 H          1 MOL1         0.0749
@<TRIPOS>BOND
    1     1     2    1
    2     1     3    2
    3     1     4    1
    4     4     5    1
    5     4     6    1
    6     4     7    1
    7     7     8    1
    8     7     9    2
    9     9    10    1
   10     9    11    1
   11    11    12    1
   12    11    13    1
   13    11    14    1
   14    14    15    1
   15    14    16    1
   16    14    17    1
@<TRIPOS>SUBSTRUCTURE
       1 MOL1            1 RESIDUE      1      MOL     
@<SCITEGIC>MOL_PROPERTY
VConf Rank
SciTegic.value.IntegerValue
329

@<SCITEGIC>MOL_PROPERTY
Conf_Id
SciTegic.value.IntegerValue
7

@<SCITEGIC>MOL_PROPERTY
Delta U+W
SciTegic.value.DoubleValue
-0.041

@<SCITEGIC>MOL_PROPERTY
U+W
SciTegic.value.DoubleValue
-49.468

@<SCITEGIC>MOL_PROPERTY
Grad RMS
SciTegic.value.DoubleValue
0.000000

@<SCITEGIC>MOL_PROPERTY
U
SciTegic.value.DoubleValue
14.121

@<SCITEGIC>MOL_PROPERTY
W
SciTegic.value.DoubleValue
-63.589

@<SCITEGIC>MOL_PROPERTY
W(PB)
SciTegic.value.DoubleValue
-65.660

@<SCITEGIC>MOL_PROPERTY
W(SA)
SciTegic.value.DoubleValue
2.071

@<SCITEGIC>MOL_PROPERTY
Valence
SciTegic.value.DoubleValue
15.230

@<SCITEGIC>MOL_PROPERTY
Coulomb
SciTegic.value.DoubleValue
-1.333

@<SCITEGIC>MOL_PROPERTY
VdW
SciTegic.value.DoubleValue
0.224

@<SCITEGIC>MOL_PROPERTY
VdW6
SciTegic.value.DoubleValue
-4.212

@<SCITEGIC>MOL_PROPERTY
VdW12
SciTegic.value.DoubleValue
4.436

@<SCITEGIC>MOL_PROPERTY
Bond
SciTegic.value.DoubleValue
0.044

@<SCITEGIC>MOL_PROPERTY
Angle
SciTegic.value.DoubleValue
2.230

@<SCITEGIC>MOL_PROPERTY
Pdih
SciTegic.value.DoubleValue
12.956

@<SCITEGIC>MOL_PROPERTY
Idih
SciTegic.value.DoubleValue
0.000

@<SCITEGIC>MOL_PROPERTY
Tether
SciTegic.value.DoubleValue
0.000

@<TRIPOS>MOLECULE
guest-s20_confgen4.mol2 : confsearch ligand conformer 330
          17          16           1
SMALL
USER_CHARGES
 
@<TRIPOS>ATOM
       1    C1      21.998937   17.685353   20.995984 C.2        1 MOL1         0.6132
       2    O1      22.890644   18.488403   20.803728 O.co2      1 MOL1        -0.6749
       3    O2      21.503777   17.008666   20.116214 O.co2      1 MOL1        -0.6749
       4    C2      21.492977   17.496311   22.422814 C.3        1 MOL1        -0.1955
       5    H1      22.334641   17.668766   23.103718 H          1 MOL1         0.0733
       6    H2      21.217923   16.442156   22.544563 H          1 MOL1         0.0733
       7    C3      20.320879   18.379427   22.826757 C.2        1 MOL1        -0.1395
       8    H3      19.975563   18.228289   23.848746 H          1 MOL1         0.0816
       9    C4      19.715611   19.286721   22.051217 C.2        1 MOL1        -0.1394
      10    H4      20.041777   19.458137   21.026051 H          1 MOL1         0.0816
      11    C5      18.550659   20.139868   22.501736 C.3        1 MOL1        -0.1826
      12    H5      17.756592   20.112859   21.743285 H          1 MOL1         0.0736
      13    H6      18.115539   19.739623   23.427818 H          1 MOL1         0.0736
      14    C6      18.989964   21.598712   22.733731 C.3        1 MOL1        -0.2882
      15    H7      18.140600   22.213368   23.059059 H          1 MOL1         0.0749
      16    H8      19.766710   21.653419   23.507854 H          1 MOL1         0.0749
      17    H9      19.394613   22.036994   21.811979 H          1 MOL1         0.0749
@<TRIPOS>BOND
    1     1     2    1
    2     1     3    2
    3     1     4    1
    4     4     5    1
    5     4     6    1
    6     4     7    1
    7     7     8    1
    8     7     9    2
    9     9    10    1
   10     9    11    1
   11    11    12    1
   12    11    13    1
   13    11    14    1
   14    14    15    1
   15    14    16    1
   16    14    17    1
@<TRIPOS>SUBSTRUCTURE
       1 MOL1            1 RESIDUE      1      MOL     
@<SCITEGIC>MOL_PROPERTY
VConf Rank
SciTegic.value.IntegerValue
330

@<SCITEGIC>MOL_PROPERTY
Conf_Id
SciTegic.value.IntegerValue
39

@<SCITEGIC>MOL_PROPERTY
Delta U+W
SciTegic.value.DoubleValue
-0.422

@<SCITEGIC>MOL_PROPERTY
U+W
SciTegic.value.DoubleValue
-49.849

@<SCITEGIC>MOL_PROPERTY
Grad RMS
SciTegic.value.DoubleValue
0.000000

@<SCITEGIC>MOL_PROPERTY
U
SciTegic.value.DoubleValue
14.465

@<SCITEGIC>MOL_PROPERTY
W
SciTegic.value.DoubleValue
-64.314

@<SCITEGIC>MOL_PROPERTY
W(PB)
SciTegic.value.DoubleValue
-66.406

@<SCITEGIC>MOL_PROPERTY
W(SA)
SciTegic.value.DoubleValue
2.093

@<SCITEGIC>MOL_PROPERTY
Valence
SciTegic.value.DoubleValue
14.072

@<SCITEGIC>MOL_PROPERTY
Coulomb
SciTegic.value.DoubleValue
-0.199

@<SCITEGIC>MOL_PROPERTY
VdW
SciTegic.value.DoubleValue
0.592

@<SCITEGIC>MOL_PROPERTY
VdW6
SciTegic.value.DoubleValue
-5.019

@<SCITEGIC>MOL_PROPERTY
VdW12
SciTegic.value.DoubleValue
5.611

@<SCITEGIC>MOL_PROPERTY
Bond
SciTegic.value.DoubleValue
0.085

@<SCITEGIC>MOL_PROPERTY
Angle
SciTegic.value.DoubleValue
2.748

@<SCITEGIC>MOL_PROPERTY
Pdih
SciTegic.value.DoubleValue
11.238

@<SCITEGIC>MOL_PROPERTY
Idih
SciTegic.value.DoubleValue
0.001

@<SCITEGIC>MOL_PROPERTY
Tether
SciTegic.value.DoubleValue
0.000

@<TRIPOS>MOLECULE
guest-s20_confgen4.mol2 : confsearch ligand conformer 331
          17          16           1
SMALL
USER_CHARGES
 
@<TRIPOS>ATOM
       1    C1      21.397991   17.225132   20.065901 C.2        1 MOL1         0.6132
       2    O1      21.478244   17.588652   18.909020 O.co2      1 MOL1        -0.6749
       3    O2      21.098780   16.094427   20.395744 O.co2      1 MOL1        -0.6749
       4    C2      21.694207   18.242176   21.160196 C.3        1 MOL1        -0.1955
       5    H1      22.558795   18.835506   20.840890 H          1 MOL1         0.0733
       6    H2      21.995056   17.697034   22.062942 H          1 MOL1         0.0733
       7    C3      20.513846   19.151999   21.442536 C.2        1 MOL1        -0.1395
       8    H3      20.257041   19.843120   20.640286 H          1 MOL1         0.0816
       9    C4      19.809930   19.138441   22.578558 C.2        1 MOL1        -0.1394
      10    H4      20.065404   18.445046   23.379181 H          1 MOL1         0.0816
      11    C5      18.630871   20.043815   22.856839 C.3        1 MOL1        -0.1826
      12    H5      18.281827   20.516697   21.928522 H          1 MOL1         0.0736
      13    H6      17.791127   19.450608   23.243453 H          1 MOL1         0.0736
      14    C6      19.000902   21.136956   23.878200 C.3        1 MOL1        -0.2882
      15    H7      19.822812   21.760125   23.501733 H          1 MOL1         0.0749
      16    H8      18.141322   21.790304   24.076552 H          1 MOL1         0.0749
      17    H9      19.317560   20.692071   24.830689 H          1 MOL1         0.0749
@<TRIPOS>BOND
    1     1     2    1
    2     1     3    2
    3     1     4    1
    4     4     5    1
    5     4     6    1
    6     4     7    1
    7     7     8    1
    8     7     9    2
    9     9    10    1
   10     9    11    1
   11    11    12    1
   12    11    13    1
   13    11    14    1
   14    14    15    1
   15    14    16    1
   16    14    17    1
@<TRIPOS>SUBSTRUCTURE
       1 MOL1            1 RESIDUE      1      MOL     
@<SCITEGIC>MOL_PROPERTY
VConf Rank
SciTegic.value.IntegerValue
331

@<SCITEGIC>MOL_PROPERTY
Conf_Id
SciTegic.value.IntegerValue
38

@<SCITEGIC>MOL_PROPERTY
Delta U+W
SciTegic.value.DoubleValue
0.000

@<SCITEGIC>MOL_PROPERTY
U+W
SciTegic.value.DoubleValue
-49.427

@<SCITEGIC>MOL_PROPERTY
Grad RMS
SciTegic.value.DoubleValue
0.000000

@<SCITEGIC>MOL_PROPERTY
U
SciTegic.value.DoubleValue
13.666

@<SCITEGIC>MOL_PROPERTY
W
SciTegic.value.DoubleValue
-63.093

@<SCITEGIC>MOL_PROPERTY
W(PB)
SciTegic.value.DoubleValue
-65.225

@<SCITEGIC>MOL_PROPERTY
W(SA)
SciTegic.value.DoubleValue
2.132

@<SCITEGIC>MOL_PROPERTY
Valence
SciTegic.value.DoubleValue
15.226

@<SCITEGIC>MOL_PROPERTY
Coulomb
SciTegic.value.DoubleValue
-1.822

@<SCITEGIC>MOL_PROPERTY
VdW
SciTegic.value.DoubleValue
0.261

@<SCITEGIC>MOL_PROPERTY
VdW6
SciTegic.value.DoubleValue
-4.165

@<SCITEGIC>MOL_PROPERTY
VdW12
SciTegic.value.DoubleValue
4.426

@<SCITEGIC>MOL_PROPERTY
Bond
SciTegic.value.DoubleValue
0.044

@<SCITEGIC>MOL_PROPERTY
Angle
SciTegic.value.DoubleValue
2.229

@<SCITEGIC>MOL_PROPERTY
Pdih
SciTegic.value.DoubleValue
12.953

@<SCITEGIC>MOL_PROPERTY
Idih
SciTegic.value.DoubleValue
0.000

@<SCITEGIC>MOL_PROPERTY
Tether
SciTegic.value.DoubleValue
0.000

@<TRIPOS>MOLECULE
guest-s20_confgen4.mol2 : confsearch ligand conformer 332
          17          16           1
SMALL
USER_CHARGES
 
@<TRIPOS>ATOM
       1    C1      19.035472   22.203338   21.561746 C.2        1 MOL1         0.6132
       2    O1      19.498570   22.603332   20.511811 O.co2      1 MOL1        -0.6749
       3    O2      18.871671   22.910275   22.536615 O.co2      1 MOL1        -0.6749
       4    C2      18.632725   20.737937   21.661747 C.3        1 MOL1        -0.1955
       5    H1      18.437491   20.365872   20.648785 H          1 MOL1         0.0733
       6    H2      17.684858   20.687741   22.209958 H          1 MOL1         0.0733
       7    C3      19.682534   19.893227   22.358246 C.2        1 MOL1        -0.1395
       8    H3      19.816655   20.099957   23.419602 H          1 MOL1         0.0816
       9    C4      20.414857   18.954260   21.751392 C.2        1 MOL1        -0.1394
      10    H4      20.282461   18.750258   20.689359 H          1 MOL1         0.0816
      11    C5      21.464009   18.115665   22.446634 C.3        1 MOL1        -0.1826
      12    H5      22.389430   18.114356   21.854917 H          1 MOL1         0.0736
      13    H6      21.715788   18.548298   23.424722 H          1 MOL1         0.0736
      14    C6      20.975968   16.666736   22.640229 C.3        1 MOL1        -0.2882
      15    H7      20.753018   16.196051   21.673701 H          1 MOL1         0.0749
      16    H8      21.741661   16.062987   23.144499 H          1 MOL1         0.0749
      17    H9      20.064355   16.640815   23.251695 H          1 MOL1         0.0749
@<TRIPOS>BOND
    1     1     2    1
    2     1     3    2
    3     1     4    1
    4     4     5    1
    5     4     6    1
    6     4     7    1
    7     7     8    1
    8     7     9    2
    9     9    10    1
   10     9    11    1
   11    11    12    1
   12    11    13    1
   13    11    14    1
   14    14    15    1
   15    14    16    1
   16    14    17    1
@<TRIPOS>SUBSTRUCTURE
       1 MOL1            1 RESIDUE      1      MOL     
@<SCITEGIC>MOL_PROPERTY
VConf Rank
SciTegic.value.IntegerValue
332

@<SCITEGIC>MOL_PROPERTY
Conf_Id
SciTegic.value.IntegerValue
35

@<SCITEGIC>MOL_PROPERTY
Delta U+W
SciTegic.value.DoubleValue
-0.102

@<SCITEGIC>MOL_PROPERTY
U+W
SciTegic.value.DoubleValue
-49.529

@<SCITEGIC>MOL_PROPERTY
Grad RMS
SciTegic.value.DoubleValue
0.000000

@<SCITEGIC>MOL_PROPERTY
U
SciTegic.value.DoubleValue
13.666

@<SCITEGIC>MOL_PROPERTY
W
SciTegic.value.DoubleValue
-63.195

@<SCITEGIC>MOL_PROPERTY
W(PB)
SciTegic.value.DoubleValue
-65.299

@<SCITEGIC>MOL_PROPERTY
W(SA)
SciTegic.value.DoubleValue
2.103

@<SCITEGIC>MOL_PROPERTY
Valence
SciTegic.value.DoubleValue
15.226

@<SCITEGIC>MOL_PROPERTY
Coulomb
SciTegic.value.DoubleValue
-1.822

@<SCITEGIC>MOL_PROPERTY
VdW
SciTegic.value.DoubleValue
0.261

@<SCITEGIC>MOL_PROPERTY
VdW6
SciTegic.value.DoubleValue
-4.165

@<SCITEGIC>MOL_PROPERTY
VdW12
SciTegic.value.DoubleValue
4.426

@<SCITEGIC>MOL_PROPERTY
Bond
SciTegic.value.DoubleValue
0.044

@<SCITEGIC>MOL_PROPERTY
Angle
SciTegic.value.DoubleValue
2.229

@<SCITEGIC>MOL_PROPERTY
Pdih
SciTegic.value.DoubleValue
12.953

@<SCITEGIC>MOL_PROPERTY
Idih
SciTegic.value.DoubleValue
0.000

@<SCITEGIC>MOL_PROPERTY
Tether
SciTegic.value.DoubleValue
0.000

@<TRIPOS>MOLECULE
guest-s20_confgen4.mol2 : confsearch ligand conformer 333
          17          16           1
SMALL
USER_CHARGES
 
@<TRIPOS>ATOM
       1    C1      19.185739   20.656813   19.922223 C.2        1 MOL1         0.6132
       2    O1      18.902042   21.781489   20.284977 O.co2      1 MOL1        -0.6749
       3    O2      19.802269   20.414837   18.903308 O.co2      1 MOL1        -0.6749
       4    C2      18.734897   19.487916   20.788316 C.3        1 MOL1        -0.1955
       5    H1      18.672303   18.595401   20.154214 H          1 MOL1         0.0733
       6    H2      17.719052   19.703528   21.139144 H          1 MOL1         0.0733
       7    C3      19.655217   19.253072   21.971221 C.2        1 MOL1        -0.1395
       8    H3      19.639838   20.041009   22.722226 H          1 MOL1         0.0816
       9    C4      20.439210   18.176027   22.105542 C.2        1 MOL1        -0.1394
      10    H4      20.431082   17.409921   21.330881 H          1 MOL1         0.0816
      11    C5      21.384428   17.879509   23.257596 C.3        1 MOL1        -0.1826
      12    H5      21.110973   16.913825   23.703895 H          1 MOL1         0.0736
      13    H6      22.399323   17.743934   22.859944 H          1 MOL1         0.0736
      14    C6      21.418517   18.954489   24.366327 C.3        1 MOL1        -0.2882
      15    H7      20.428935   19.078593   24.825378 H          1 MOL1         0.0749
      16    H8      22.122783   18.668363   25.158267 H          1 MOL1         0.0749
      17    H9      21.740256   19.924395   23.964759 H          1 MOL1         0.0749
@<TRIPOS>BOND
    1     1     2    1
    2     1     3    2
    3     1     4    1
    4     4     5    1
    5     4     6    1
    6     4     7    1
    7     7     8    1
    8     7     9    2
    9     9    10    1
   10     9    11    1
   11    11    12    1
   12    11    13    1
   13    11    14    1
   14    14    15    1
   15    14    16    1
   16    14    17    1
@<TRIPOS>SUBSTRUCTURE
       1 MOL1            1 RESIDUE      1      MOL     
@<SCITEGIC>MOL_PROPERTY
VConf Rank
SciTegic.value.IntegerValue
333

@<SCITEGIC>MOL_PROPERTY
Conf_Id
SciTegic.value.IntegerValue
19

@<SCITEGIC>MOL_PROPERTY
Delta U+W
SciTegic.value.DoubleValue
-0.496

@<SCITEGIC>MOL_PROPERTY
U+W
SciTegic.value.DoubleValue
-49.923

@<SCITEGIC>MOL_PROPERTY
Grad RMS
SciTegic.value.DoubleValue
0.000000

@<SCITEGIC>MOL_PROPERTY
U
SciTegic.value.DoubleValue
13.863

@<SCITEGIC>MOL_PROPERTY
W
SciTegic.value.DoubleValue
-63.786

@<SCITEGIC>MOL_PROPERTY
W(PB)
SciTegic.value.DoubleValue
-65.856

@<SCITEGIC>MOL_PROPERTY
W(SA)
SciTegic.value.DoubleValue
2.070

@<SCITEGIC>MOL_PROPERTY
Valence
SciTegic.value.DoubleValue
14.117

@<SCITEGIC>MOL_PROPERTY
Coulomb
SciTegic.value.DoubleValue
-1.228

@<SCITEGIC>MOL_PROPERTY
VdW
SciTegic.value.DoubleValue
0.974

@<SCITEGIC>MOL_PROPERTY
VdW6
SciTegic.value.DoubleValue
-4.885

@<SCITEGIC>MOL_PROPERTY
VdW12
SciTegic.value.DoubleValue
5.859

@<SCITEGIC>MOL_PROPERTY
Bond
SciTegic.value.DoubleValue
0.094

@<SCITEGIC>MOL_PROPERTY
Angle
SciTegic.value.DoubleValue
2.818

@<SCITEGIC>MOL_PROPERTY
Pdih
SciTegic.value.DoubleValue
11.205

@<SCITEGIC>MOL_PROPERTY
Idih
SciTegic.value.DoubleValue
0.000

@<SCITEGIC>MOL_PROPERTY
Tether
SciTegic.value.DoubleValue
0.000

@<TRIPOS>MOLECULE
guest-s20_confgen4.mol2 : confsearch ligand conformer 334
          17          16           1
SMALL
USER_CHARGES
 
@<TRIPOS>ATOM
       1    C1      18.631399   16.792487   21.149721 C.2        1 MOL1         0.6132
       2    O1      18.237266   16.249801   22.163113 O.co2      1 MOL1        -0.6749
       3    O2      17.922265   17.018018   20.188853 O.co2      1 MOL1        -0.6749
       4    C2      20.095968   17.203592   21.073177 C.3        1 MOL1        -0.1955
       5    H1      20.462317   16.951577   20.071298 H          1 MOL1         0.0733
       6    H2      20.662008   16.591156   21.785339 H          1 MOL1         0.0733
       7    C3      20.299311   18.681833   21.345607 C.2        1 MOL1        -0.1395
       8    H3      19.894507   19.354001   20.589605 H          1 MOL1         0.0816
       9    C4      20.917447   19.168499   22.426014 C.2        1 MOL1        -0.1394
      10    H4      21.317488   18.496045   23.184191 H          1 MOL1         0.0816
      11    C5      21.116576   20.642996   22.697200 C.3        1 MOL1        -0.1826
      12    H5      22.161880   20.830804   22.977541 H          1 MOL1         0.0736
      13    H6      20.923134   21.230417   21.789057 H          1 MOL1         0.0736
      14    C6      20.186579   21.128527   23.826075 C.3        1 MOL1        -0.2882
      15    H7      20.385173   20.584033   24.758551 H          1 MOL1         0.0749
      16    H8      20.334877   22.199079   24.018414 H          1 MOL1         0.0749
      17    H9      19.133382   20.973141   23.557167 H          1 MOL1         0.0749
@<TRIPOS>BOND
    1     1     2    1
    2     1     3    2
    3     1     4    1
    4     4     5    1
    5     4     6    1
    6     4     7    1
    7     7     8    1
    8     7     9    2
    9     9    10    1
   10     9    11    1
   11    11    12    1
   12    11    13    1
   13    11    14    1
   14    14    15    1
   15    14    16    1
   16    14    17    1
@<TRIPOS>SUBSTRUCTURE
       1 MOL1            1 RESIDUE      1      MOL     
@<SCITEGIC>MOL_PROPERTY
VConf Rank
SciTegic.value.IntegerValue
334

@<SCITEGIC>MOL_PROPERTY
Conf_Id
SciTegic.value.IntegerValue
7

@<SCITEGIC>MOL_PROPERTY
Delta U+W
SciTegic.value.DoubleValue
-0.041

@<SCITEGIC>MOL_PROPERTY
U+W
SciTegic.value.DoubleValue
-49.468

@<SCITEGIC>MOL_PROPERTY
Grad RMS
SciTegic.value.DoubleValue
0.000000

@<SCITEGIC>MOL_PROPERTY
U
SciTegic.value.DoubleValue
14.121

@<SCITEGIC>MOL_PROPERTY
W
SciTegic.value.DoubleValue
-63.589

@<SCITEGIC>MOL_PROPERTY
W(PB)
SciTegic.value.DoubleValue
-65.660

@<SCITEGIC>MOL_PROPERTY
W(SA)
SciTegic.value.DoubleValue
2.071

@<SCITEGIC>MOL_PROPERTY
Valence
SciTegic.value.DoubleValue
15.230

@<SCITEGIC>MOL_PROPERTY
Coulomb
SciTegic.value.DoubleValue
-1.333

@<SCITEGIC>MOL_PROPERTY
VdW
SciTegic.value.DoubleValue
0.224

@<SCITEGIC>MOL_PROPERTY
VdW6
SciTegic.value.DoubleValue
-4.212

@<SCITEGIC>MOL_PROPERTY
VdW12
SciTegic.value.DoubleValue
4.436

@<SCITEGIC>MOL_PROPERTY
Bond
SciTegic.value.DoubleValue
0.044

@<SCITEGIC>MOL_PROPERTY
Angle
SciTegic.value.DoubleValue
2.230

@<SCITEGIC>MOL_PROPERTY
Pdih
SciTegic.value.DoubleValue
12.956

@<SCITEGIC>MOL_PROPERTY
Idih
SciTegic.value.DoubleValue
0.000

@<SCITEGIC>MOL_PROPERTY
Tether
SciTegic.value.DoubleValue
0.000

@<TRIPOS>MOLECULE
guest-s20_confgen4.mol2 : confsearch ligand conformer 335
          17          16           1
SMALL
USER_CHARGES
 
@<TRIPOS>ATOM
       1    C1      21.578100   19.842775   24.547523 C.2        1 MOL1         0.6132
       2    O1      21.960012   20.970145   24.302226 O.co2      1 MOL1        -0.6749
       3    O2      22.323430   18.933868   24.856479 O.co2      1 MOL1        -0.6749
       4    C2      20.079928   19.560005   24.491829 C.3        1 MOL1        -0.1955
       5    H1      19.553742   20.475082   24.787686 H          1 MOL1         0.0733
       6    H2      19.849630   18.816836   25.264086 H          1 MOL1         0.0733
       7    C3      19.551448   19.079654   23.147638 C.2        1 MOL1        -0.1395
       8    H3      18.480082   18.883674   23.129961 H          1 MOL1         0.0816
       9    C4      20.276693   18.892456   22.038597 C.2        1 MOL1        -0.1394
      10    H4      21.349427   19.081881   22.029012 H          1 MOL1         0.0816
      11    C5      19.701564   18.410944   20.725085 C.3        1 MOL1        -0.1826
      12    H5      20.320913   17.596314   20.325955 H          1 MOL1         0.0736
      13    H6      18.694672   17.997256   20.874032 H          1 MOL1         0.0736
      14    C6      19.635016   19.556800   19.696676 C.3        1 MOL1        -0.2882
      15    H7      19.218323   19.201488   18.745267 H          1 MOL1         0.0749
      16    H8      18.999224   20.373345   20.063577 H          1 MOL1         0.0749
      17    H9      20.635202   19.964548   19.499627 H          1 MOL1         0.0749
@<TRIPOS>BOND
    1     1     2    1
    2     1     3    2
    3     1     4    1
    4     4     5    1
    5     4     6    1
    6     4     7    1
    7     7     8    1
    8     7     9    2
    9     9    10    1
   10     9    11    1
   11    11    12    1
   12    11    13    1
   13    11    14    1
   14    14    15    1
   15    14    16    1
   16    14    17    1
@<TRIPOS>SUBSTRUCTURE
       1 MOL1            1 RESIDUE      1      MOL     
@<SCITEGIC>MOL_PROPERTY
VConf Rank
SciTegic.value.IntegerValue
335

@<SCITEGIC>MOL_PROPERTY
Conf_Id
SciTegic.value.IntegerValue
39

@<SCITEGIC>MOL_PROPERTY
Delta U+W
SciTegic.value.DoubleValue
-0.422

@<SCITEGIC>MOL_PROPERTY
U+W
SciTegic.value.DoubleValue
-49.849

@<SCITEGIC>MOL_PROPERTY
Grad RMS
SciTegic.value.DoubleValue
0.000000

@<SCITEGIC>MOL_PROPERTY
U
SciTegic.value.DoubleValue
14.465

@<SCITEGIC>MOL_PROPERTY
W
SciTegic.value.DoubleValue
-64.314

@<SCITEGIC>MOL_PROPERTY
W(PB)
SciTegic.value.DoubleValue
-66.406

@<SCITEGIC>MOL_PROPERTY
W(SA)
SciTegic.value.DoubleValue
2.093

@<SCITEGIC>MOL_PROPERTY
Valence
SciTegic.value.DoubleValue
14.072

@<SCITEGIC>MOL_PROPERTY
Coulomb
SciTegic.value.DoubleValue
-0.199

@<SCITEGIC>MOL_PROPERTY
VdW
SciTegic.value.DoubleValue
0.592

@<SCITEGIC>MOL_PROPERTY
VdW6
SciTegic.value.DoubleValue
-5.019

@<SCITEGIC>MOL_PROPERTY
VdW12
SciTegic.value.DoubleValue
5.611

@<SCITEGIC>MOL_PROPERTY
Bond
SciTegic.value.DoubleValue
0.085

@<SCITEGIC>MOL_PROPERTY
Angle
SciTegic.value.DoubleValue
2.748

@<SCITEGIC>MOL_PROPERTY
Pdih
SciTegic.value.DoubleValue
11.238

@<SCITEGIC>MOL_PROPERTY
Idih
SciTegic.value.DoubleValue
0.001

@<SCITEGIC>MOL_PROPERTY
Tether
SciTegic.value.DoubleValue
0.000

@<TRIPOS>MOLECULE
guest-s20_confgen4.mol2 : confsearch ligand conformer 336
          17          16           1
SMALL
USER_CHARGES
 
@<TRIPOS>ATOM
       1    C1      19.316502   19.112516   19.045518 C.2        1 MOL1         0.6132
       2    O1      19.531118   18.056286   18.484022 O.co2      1 MOL1        -0.6749
       3    O2      19.500504   20.197322   18.529613 O.co2      1 MOL1        -0.6749
       4    C2      18.782810   19.072103   20.471402 C.3        1 MOL1        -0.1955
       5    H1      18.036511   18.271203   20.527137 H          1 MOL1         0.0733
       6    H2      18.257360   20.014401   20.667916 H          1 MOL1         0.0733
       7    C3      19.877259   18.836251   21.494779 C.2        1 MOL1        -0.1395
       8    H3      20.338532   17.849619   21.463386 H          1 MOL1         0.0816
       9    C4      20.279836   19.746072   22.387183 C.2        1 MOL1        -0.1394
      10    H4      19.820201   20.733474   22.416065 H          1 MOL1         0.0816
      11    C5      21.373923   19.510402   23.404413 C.3        1 MOL1        -0.1826
      12    H5      21.950773   18.611348   23.147186 H          1 MOL1         0.0736
      13    H6      22.079602   20.352058   23.391534 H          1 MOL1         0.0736
      14    C6      20.788302   19.352605   24.821173 C.3        1 MOL1        -0.2882
      15    H7      20.098070   18.499808   24.864971 H          1 MOL1         0.0749
      16    H8      21.586899   19.182510   25.554927 H          1 MOL1         0.0749
      17    H9      20.237510   20.254131   25.120016 H          1 MOL1         0.0749
@<TRIPOS>BOND
    1     1     2    1
    2     1     3    2
    3     1     4    1
    4     4     5    1
    5     4     6    1
    6     4     7    1
    7     7     8    1
    8     7     9    2
    9     9    10    1
   10     9    11    1
   11    11    12    1
   12    11    13    1
   13    11    14    1
   14    14    15    1
   15    14    16    1
   16    14    17    1
@<TRIPOS>SUBSTRUCTURE
       1 MOL1            1 RESIDUE      1      MOL     
@<SCITEGIC>MOL_PROPERTY
VConf Rank
SciTegic.value.IntegerValue
336

@<SCITEGIC>MOL_PROPERTY
Conf_Id
SciTegic.value.IntegerValue
38

@<SCITEGIC>MOL_PROPERTY
Delta U+W
SciTegic.value.DoubleValue
0.000

@<SCITEGIC>MOL_PROPERTY
U+W
SciTegic.value.DoubleValue
-49.427

@<SCITEGIC>MOL_PROPERTY
Grad RMS
SciTegic.value.DoubleValue
0.000000

@<SCITEGIC>MOL_PROPERTY
U
SciTegic.value.DoubleValue
13.666

@<SCITEGIC>MOL_PROPERTY
W
SciTegic.value.DoubleValue
-63.093

@<SCITEGIC>MOL_PROPERTY
W(PB)
SciTegic.value.DoubleValue
-65.225

@<SCITEGIC>MOL_PROPERTY
W(SA)
SciTegic.value.DoubleValue
2.132

@<SCITEGIC>MOL_PROPERTY
Valence
SciTegic.value.DoubleValue
15.226

@<SCITEGIC>MOL_PROPERTY
Coulomb
SciTegic.value.DoubleValue
-1.822

@<SCITEGIC>MOL_PROPERTY
VdW
SciTegic.value.DoubleValue
0.261

@<SCITEGIC>MOL_PROPERTY
VdW6
SciTegic.value.DoubleValue
-4.165

@<SCITEGIC>MOL_PROPERTY
VdW12
SciTegic.value.DoubleValue
4.426

@<SCITEGIC>MOL_PROPERTY
Bond
SciTegic.value.DoubleValue
0.044

@<SCITEGIC>MOL_PROPERTY
Angle
SciTegic.value.DoubleValue
2.229

@<SCITEGIC>MOL_PROPERTY
Pdih
SciTegic.value.DoubleValue
12.953

@<SCITEGIC>MOL_PROPERTY
Idih
SciTegic.value.DoubleValue
0.000

@<SCITEGIC>MOL_PROPERTY
Tether
SciTegic.value.DoubleValue
0.000

@<TRIPOS>MOLECULE
guest-s20_confgen4.mol2 : confsearch ligand conformer 337
          17          16           1
SMALL
USER_CHARGES
 
@<TRIPOS>ATOM
       1    C1      22.925654   17.879497   21.944786 C.2        1 MOL1         0.6132
       2    O1      23.289201   17.850654   20.785554 O.co2      1 MOL1        -0.6749
       3    O2      23.137188   16.983278   22.737885 O.co2      1 MOL1        -0.6749
       4    C2      22.168297   19.107035   22.433830 C.3        1 MOL1        -0.1955
       5    H1      22.425470   19.950923   21.782405 H          1 MOL1         0.0733
       6    H2      22.538245   19.351487   23.436272 H          1 MOL1         0.0733
       7    C3      20.667999   18.886997   22.471709 C.2        1 MOL1        -0.1395
       8    H3      20.321521   18.171895   23.217217 H          1 MOL1         0.0816
       9    C4      19.797974   19.502673   21.665342 C.2        1 MOL1        -0.1394
      10    H4      20.145419   20.215244   20.917956 H          1 MOL1         0.0816
      11    C5      18.302654   19.279053   21.701884 C.3        1 MOL1        -0.1826
      12    H5      17.929063   19.103846   20.683912 H          1 MOL1         0.0736
      13    H6      18.062677   18.379284   22.285019 H          1 MOL1         0.0736
      14    C6      17.575991   20.492416   22.314067 C.3        1 MOL1        -0.2882
      15    H7      17.767687   21.400608   21.727665 H          1 MOL1         0.0749
      16    H8      16.491378   20.324599   22.337261 H          1 MOL1         0.0749
      17    H9      17.915109   20.671614   23.342895 H          1 MOL1         0.0749
@<TRIPOS>BOND
    1     1     2    1
    2     1     3    2
    3     1     4    1
    4     4     5    1
    5     4     6    1
    6     4     7    1
    7     7     8    1
    8     7     9    2
    9     9    10    1
   10     9    11    1
   11    11    12    1
   12    11    13    1
   13    11    14    1
   14    14    15    1
   15    14    16    1
   16    14    17    1
@<TRIPOS>SUBSTRUCTURE
       1 MOL1            1 RESIDUE      1      MOL     
@<SCITEGIC>MOL_PROPERTY
VConf Rank
SciTegic.value.IntegerValue
337

@<SCITEGIC>MOL_PROPERTY
Conf_Id
SciTegic.value.IntegerValue
35

@<SCITEGIC>MOL_PROPERTY
Delta U+W
SciTegic.value.DoubleValue
-0.102

@<SCITEGIC>MOL_PROPERTY
U+W
SciTegic.value.DoubleValue
-49.529

@<SCITEGIC>MOL_PROPERTY
Grad RMS
SciTegic.value.DoubleValue
0.000000

@<SCITEGIC>MOL_PROPERTY
U
SciTegic.value.DoubleValue
13.666

@<SCITEGIC>MOL_PROPERTY
W
SciTegic.value.DoubleValue
-63.195

@<SCITEGIC>MOL_PROPERTY
W(PB)
SciTegic.value.DoubleValue
-65.299

@<SCITEGIC>MOL_PROPERTY
W(SA)
SciTegic.value.DoubleValue
2.103

@<SCITEGIC>MOL_PROPERTY
Valence
SciTegic.value.DoubleValue
15.226

@<SCITEGIC>MOL_PROPERTY
Coulomb
SciTegic.value.DoubleValue
-1.822

@<SCITEGIC>MOL_PROPERTY
VdW
SciTegic.value.DoubleValue
0.261

@<SCITEGIC>MOL_PROPERTY
VdW6
SciTegic.value.DoubleValue
-4.165

@<SCITEGIC>MOL_PROPERTY
VdW12
SciTegic.value.DoubleValue
4.426

@<SCITEGIC>MOL_PROPERTY
Bond
SciTegic.value.DoubleValue
0.044

@<SCITEGIC>MOL_PROPERTY
Angle
SciTegic.value.DoubleValue
2.229

@<SCITEGIC>MOL_PROPERTY
Pdih
SciTegic.value.DoubleValue
12.953

@<SCITEGIC>MOL_PROPERTY
Idih
SciTegic.value.DoubleValue
0.000

@<SCITEGIC>MOL_PROPERTY
Tether
SciTegic.value.DoubleValue
0.000

@<TRIPOS>MOLECULE
guest-s20_confgen4.mol2 : confsearch ligand conformer 338
          17          16           1
SMALL
USER_CHARGES
 
@<TRIPOS>ATOM
       1    C1      21.660857   16.685475   23.104966 C.2        1 MOL1         0.6132
       2    O1      21.723879   16.671398   24.318557 O.co2      1 MOL1        -0.6749
       3    O2      21.362064   15.715705   22.436299 O.co2      1 MOL1        -0.6749
       4    C2      21.983497   17.987893   22.384338 C.3        1 MOL1        -0.1955
       5    H1      22.300689   17.745234   21.363020 H          1 MOL1         0.0733
       6    H2      22.843956   18.444347   22.887100 H          1 MOL1         0.0733
       7    C3      20.812827   18.952717   22.377126 C.2        1 MOL1        -0.1395
       8    H3      20.550231   19.355694   23.353724 H          1 MOL1         0.0816
       9    C4      20.134131   19.295655   21.275093 C.2        1 MOL1        -0.1394
      10    H4      20.423301   18.868310   20.315488 H          1 MOL1         0.0816
      11    C5      18.953929   20.249313   21.196050 C.3        1 MOL1        -0.1826
      12    H5      19.196369   21.059630   20.495254 H          1 MOL1         0.0736
      13    H6      18.098620   19.721757   20.752593 H          1 MOL1         0.0736
      14    C6      18.520684   20.863919   22.545341 C.3        1 MOL1        -0.2882
      15    H7      19.336700   21.446049   22.993275 H          1 MOL1         0.0749
      16    H8      17.665414   21.537495   22.404490 H          1 MOL1         0.0749
      17    H9      18.219716   20.082529   23.255507 H          1 MOL1         0.0749
@<TRIPOS>BOND
    1     1     2    1
    2     1     3    2
    3     1     4    1
    4     4     5    1
    5     4     6    1
    6     4     7    1
    7     7     8    1
    8     7     9    2
    9     9    10    1
   10     9    11    1
   11    11    12    1
   12    11    13    1
   13    11    14    1
   14    14    15    1
   15    14    16    1
   16    14    17    1
@<TRIPOS>SUBSTRUCTURE
       1 MOL1            1 RESIDUE      1      MOL     
@<SCITEGIC>MOL_PROPERTY
VConf Rank
SciTegic.value.IntegerValue
338

@<SCITEGIC>MOL_PROPERTY
Conf_Id
SciTegic.value.IntegerValue
19

@<SCITEGIC>MOL_PROPERTY
Delta U+W
SciTegic.value.DoubleValue
-0.496

@<SCITEGIC>MOL_PROPERTY
U+W
SciTegic.value.DoubleValue
-49.923

@<SCITEGIC>MOL_PROPERTY
Grad RMS
SciTegic.value.DoubleValue
0.000000

@<SCITEGIC>MOL_PROPERTY
U
SciTegic.value.DoubleValue
13.863

@<SCITEGIC>MOL_PROPERTY
W
SciTegic.value.DoubleValue
-63.786

@<SCITEGIC>MOL_PROPERTY
W(PB)
SciTegic.value.DoubleValue
-65.856

@<SCITEGIC>MOL_PROPERTY
W(SA)
SciTegic.value.DoubleValue
2.070

@<SCITEGIC>MOL_PROPERTY
Valence
SciTegic.value.DoubleValue
14.117

@<SCITEGIC>MOL_PROPERTY
Coulomb
SciTegic.value.DoubleValue
-1.228

@<SCITEGIC>MOL_PROPERTY
VdW
SciTegic.value.DoubleValue
0.974

@<SCITEGIC>MOL_PROPERTY
VdW6
SciTegic.value.DoubleValue
-4.885

@<SCITEGIC>MOL_PROPERTY
VdW12
SciTegic.value.DoubleValue
5.859

@<SCITEGIC>MOL_PROPERTY
Bond
SciTegic.value.DoubleValue
0.094

@<SCITEGIC>MOL_PROPERTY
Angle
SciTegic.value.DoubleValue
2.818

@<SCITEGIC>MOL_PROPERTY
Pdih
SciTegic.value.DoubleValue
11.205

@<SCITEGIC>MOL_PROPERTY
Idih
SciTegic.value.DoubleValue
0.000

@<SCITEGIC>MOL_PROPERTY
Tether
SciTegic.value.DoubleValue
0.000

@<TRIPOS>MOLECULE
guest-s20_confgen4.mol2 : confsearch ligand conformer 339
          17          16           1
SMALL
USER_CHARGES
 
@<TRIPOS>ATOM
       1    C1      19.303229   20.624244   24.547756 C.2        1 MOL1         0.6132
       2    O1      20.357648   20.846908   25.109390 O.co2      1 MOL1        -0.6749
       3    O2      18.453945   21.471319   24.352350 O.co2      1 MOL1        -0.6749
       4    C2      19.024084   19.204713   24.071483 C.3        1 MOL1        -0.1955
       5    H1      17.978504   18.972957   24.305016 H          1 MOL1         0.0733
       6    H2      19.644203   18.517302   24.659337 H          1 MOL1         0.0733
       7    C3      19.277127   19.030093   22.586141 C.2        1 MOL1        -0.1395
       8    H3      18.591336   19.566869   21.931328 H          1 MOL1         0.0816
       9    C4      20.263400   18.287429   22.074349 C.2        1 MOL1        -0.1394
      10    H4      20.952013   17.755044   22.729664 H          1 MOL1         0.0816
      11    C5      20.515776   18.116988   20.592933 C.3        1 MOL1        -0.1826
      12    H5      20.647288   17.051830   20.359130 H          1 MOL1         0.0736
      13    H6      19.648849   18.462513   20.013056 H          1 MOL1         0.0736
      14    C6      21.768537   18.898494   20.151536 C.3        1 MOL1        -0.2882
      15    H7      22.659176   18.546323   20.688343 H          1 MOL1         0.0749
      16    H8      21.946740   18.771711   19.075786 H          1 MOL1         0.0749
      17    H9      21.649721   19.971269   20.353324 H          1 MOL1         0.0749
@<TRIPOS>BOND
    1     1     2    1
    2     1     3    2
    3     1     4    1
    4     4     5    1
    5     4     6    1
    6     4     7    1
    7     7     8    1
    8     7     9    2
    9     9    10    1
   10     9    11    1
   11    11    12    1
   12    11    13    1
   13    11    14    1
   14    14    15    1
   15    14    16    1
   16    14    17    1
@<TRIPOS>SUBSTRUCTURE
       1 MOL1            1 RESIDUE      1      MOL     
@<SCITEGIC>MOL_PROPERTY
VConf Rank
SciTegic.value.IntegerValue
339

@<SCITEGIC>MOL_PROPERTY
Conf_Id
SciTegic.value.IntegerValue
7

@<SCITEGIC>MOL_PROPERTY
Delta U+W
SciTegic.value.DoubleValue
-0.041

@<SCITEGIC>MOL_PROPERTY
U+W
SciTegic.value.DoubleValue
-49.468

@<SCITEGIC>MOL_PROPERTY
Grad RMS
SciTegic.value.DoubleValue
0.000000

@<SCITEGIC>MOL_PROPERTY
U
SciTegic.value.DoubleValue
14.121

@<SCITEGIC>MOL_PROPERTY
W
SciTegic.value.DoubleValue
-63.589

@<SCITEGIC>MOL_PROPERTY
W(PB)
SciTegic.value.DoubleValue
-65.660

@<SCITEGIC>MOL_PROPERTY
W(SA)
SciTegic.value.DoubleValue
2.071

@<SCITEGIC>MOL_PROPERTY
Valence
SciTegic.value.DoubleValue
15.230

@<SCITEGIC>MOL_PROPERTY
Coulomb
SciTegic.value.DoubleValue
-1.333

@<SCITEGIC>MOL_PROPERTY
VdW
SciTegic.value.DoubleValue
0.224

@<SCITEGIC>MOL_PROPERTY
VdW6
SciTegic.value.DoubleValue
-4.212

@<SCITEGIC>MOL_PROPERTY
VdW12
SciTegic.value.DoubleValue
4.436

@<SCITEGIC>MOL_PROPERTY
Bond
SciTegic.value.DoubleValue
0.044

@<SCITEGIC>MOL_PROPERTY
Angle
SciTegic.value.DoubleValue
2.230

@<SCITEGIC>MOL_PROPERTY
Pdih
SciTegic.value.DoubleValue
12.956

@<SCITEGIC>MOL_PROPERTY
Idih
SciTegic.value.DoubleValue
0.000

@<SCITEGIC>MOL_PROPERTY
Tether
SciTegic.value.DoubleValue
0.000

@<TRIPOS>MOLECULE
guest-s20_confgen4.mol2 : confsearch ligand conformer 340
          17          16           1
SMALL
USER_CHARGES
 
@<TRIPOS>ATOM
       1    C1      19.685741   18.315881   19.713948 C.2        1 MOL1         0.6132
       2    O1      20.622652   18.808612   19.116949 O.co2      1 MOL1        -0.6749
       3    O2      18.527314   18.446645   19.370393 O.co2      1 MOL1        -0.6749
       4    C2      19.981499   17.464351   20.944801 C.3        1 MOL1        -0.1955
       5    H1      20.949727   16.974148   20.789868 H          1 MOL1         0.0733
       6    H2      19.238587   16.659122   20.982340 H          1 MOL1         0.0733
       7    C3      19.993682   18.209654   22.271923 C.2        1 MOL1        -0.1395
       8    H3      20.206603   17.583215   23.137246 H          1 MOL1         0.0816
       9    C4      19.773618   19.518849   22.440964 C.2        1 MOL1        -0.1394
      10    H4      19.559470   20.167693   21.592510 H          1 MOL1         0.0816
      11    C5      19.795742   20.211946   23.785237 C.3        1 MOL1        -0.1826
      12    H5      18.905232   20.846478   23.889546 H          1 MOL1         0.0736
      13    H6      19.754691   19.475140   24.599231 H          1 MOL1         0.0736
      14    C6      21.062752   21.075120   23.942246 C.3        1 MOL1        -0.2882
      15    H7      21.072853   21.576671   24.918670 H          1 MOL1         0.0749
      16    H8      21.967171   20.457087   23.867042 H          1 MOL1         0.0749
      17    H9      21.110074   21.846461   23.162341 H          1 MOL1         0.0749
@<TRIPOS>BOND
    1     1     2    1
    2     1     3    2
    3     1     4    1
    4     4     5    1
    5     4     6    1
    6     4     7    1
    7     7     8    1
    8     7     9    2
    9     9    10    1
   10     9    11    1
   11    11    12    1
   12    11    13    1
   13    11    14    1
   14    14    15    1
   15    14    16    1
   16    14    17    1
@<TRIPOS>SUBSTRUCTURE
       1 MOL1            1 RESIDUE      1      MOL     
@<SCITEGIC>MOL_PROPERTY
VConf Rank
SciTegic.value.IntegerValue
340

@<SCITEGIC>MOL_PROPERTY
Conf_Id
SciTegic.value.IntegerValue
39

@<SCITEGIC>MOL_PROPERTY
Delta U+W
SciTegic.value.DoubleValue
-0.422

@<SCITEGIC>MOL_PROPERTY
U+W
SciTegic.value.DoubleValue
-49.849

@<SCITEGIC>MOL_PROPERTY
Grad RMS
SciTegic.value.DoubleValue
0.000000

@<SCITEGIC>MOL_PROPERTY
U
SciTegic.value.DoubleValue
14.465

@<SCITEGIC>MOL_PROPERTY
W
SciTegic.value.DoubleValue
-64.314

@<SCITEGIC>MOL_PROPERTY
W(PB)
SciTegic.value.DoubleValue
-66.406

@<SCITEGIC>MOL_PROPERTY
W(SA)
SciTegic.value.DoubleValue
2.093

@<SCITEGIC>MOL_PROPERTY
Valence
SciTegic.value.DoubleValue
14.072

@<SCITEGIC>MOL_PROPERTY
Coulomb
SciTegic.value.DoubleValue
-0.199

@<SCITEGIC>MOL_PROPERTY
VdW
SciTegic.value.DoubleValue
0.592

@<SCITEGIC>MOL_PROPERTY
VdW6
SciTegic.value.DoubleValue
-5.019

@<SCITEGIC>MOL_PROPERTY
VdW12
SciTegic.value.DoubleValue
5.611

@<SCITEGIC>MOL_PROPERTY
Bond
SciTegic.value.DoubleValue
0.085

@<SCITEGIC>MOL_PROPERTY
Angle
SciTegic.value.DoubleValue
2.748

@<SCITEGIC>MOL_PROPERTY
Pdih
SciTegic.value.DoubleValue
11.238

@<SCITEGIC>MOL_PROPERTY
Idih
SciTegic.value.DoubleValue
0.001

@<SCITEGIC>MOL_PROPERTY
Tether
SciTegic.value.DoubleValue
0.000

@<TRIPOS>MOLECULE
guest-s20_confgen4.mol2 : confsearch ligand conformer 341
          17          16           1
SMALL
USER_CHARGES
 
@<TRIPOS>ATOM
       1    C1      18.269358   21.252162   23.753875 C.2        1 MOL1         0.6132
       2    O1      17.901857   22.257848   23.178985 O.co2      1 MOL1        -0.6749
       3    O2      18.608377   21.231023   24.920682 O.co2      1 MOL1        -0.6749
       4    C2      18.300830   19.947390   22.968901 C.3        1 MOL1        -0.1955
       5    H1      17.402062   19.911624   22.342446 H          1 MOL1         0.0733
       6    H2      18.228632   19.116652   23.681152 H          1 MOL1         0.0733
       7    C3      19.542072   19.818012   22.106738 C.2        1 MOL1        -0.1395
       8    H3      19.602568   20.514623   21.271110 H          1 MOL1         0.0816
       9    C4      20.516960   18.929525   22.322173 C.2        1 MOL1        -0.1394
      10    H4      20.457251   18.235230   23.159699 H          1 MOL1         0.0816
      11    C5      21.755747   18.804484   21.463631 C.3        1 MOL1        -0.1826
      12    H5      21.865506   19.685643   20.816535 H          1 MOL1         0.0736
      13    H6      22.648089   18.770009   22.103218 H          1 MOL1         0.0736
      14    C6      21.699385   17.535106   20.591529 C.3        1 MOL1        -0.2882
      15    H7      20.827841   17.559008   19.924115 H          1 MOL1         0.0749
      16    H8      22.601118   17.449492   19.971342 H          1 MOL1         0.0749
      17    H9      21.628059   16.634278   21.215110 H          1 MOL1         0.0749
@<TRIPOS>BOND
    1     1     2    1
    2     1     3    2
    3     1     4    1
    4     4     5    1
    5     4     6    1
    6     4     7    1
    7     7     8    1
    8     7     9    2
    9     9    10    1
   10     9    11    1
   11    11    12    1
   12    11    13    1
   13    11    14    1
   14    14    15    1
   15    14    16    1
   16    14    17    1
@<TRIPOS>SUBSTRUCTURE
       1 MOL1            1 RESIDUE      1      MOL     
@<SCITEGIC>MOL_PROPERTY
VConf Rank
SciTegic.value.IntegerValue
341

@<SCITEGIC>MOL_PROPERTY
Conf_Id
SciTegic.value.IntegerValue
38

@<SCITEGIC>MOL_PROPERTY
Delta U+W
SciTegic.value.DoubleValue
0.000

@<SCITEGIC>MOL_PROPERTY
U+W
SciTegic.value.DoubleValue
-49.427

@<SCITEGIC>MOL_PROPERTY
Grad RMS
SciTegic.value.DoubleValue
0.000000

@<SCITEGIC>MOL_PROPERTY
U
SciTegic.value.DoubleValue
13.666

@<SCITEGIC>MOL_PROPERTY
W
SciTegic.value.DoubleValue
-63.093

@<SCITEGIC>MOL_PROPERTY
W(PB)
SciTegic.value.DoubleValue
-65.225

@<SCITEGIC>MOL_PROPERTY
W(SA)
SciTegic.value.DoubleValue
2.132

@<SCITEGIC>MOL_PROPERTY
Valence
SciTegic.value.DoubleValue
15.226

@<SCITEGIC>MOL_PROPERTY
Coulomb
SciTegic.value.DoubleValue
-1.822

@<SCITEGIC>MOL_PROPERTY
VdW
SciTegic.value.DoubleValue
0.261

@<SCITEGIC>MOL_PROPERTY
VdW6
SciTegic.value.DoubleValue
-4.165

@<SCITEGIC>MOL_PROPERTY
VdW12
SciTegic.value.DoubleValue
4.426

@<SCITEGIC>MOL_PROPERTY
Bond
SciTegic.value.DoubleValue
0.044

@<SCITEGIC>MOL_PROPERTY
Angle
SciTegic.value.DoubleValue
2.229

@<SCITEGIC>MOL_PROPERTY
Pdih
SciTegic.value.DoubleValue
12.953

@<SCITEGIC>MOL_PROPERTY
Idih
SciTegic.value.DoubleValue
0.000

@<SCITEGIC>MOL_PROPERTY
Tether
SciTegic.value.DoubleValue
0.000

@<TRIPOS>MOLECULE
guest-s20_confgen4.mol2 : confsearch ligand conformer 342
          17          16           1
SMALL
USER_CHARGES
 
@<TRIPOS>ATOM
       1    C1      18.917321   21.013678   19.738084 C.2        1 MOL1         0.6132
       2    O1      19.820501   21.315133   18.982962 O.co2      1 MOL1        -0.6749
       3    O2      17.996757   21.757109   20.015270 O.co2      1 MOL1        -0.6749
       4    C2      18.935192   19.627253   20.368251 C.3        1 MOL1        -0.1955
       5    H1      19.533219   18.967234   19.728424 H          1 MOL1         0.0733
       6    H2      17.909387   19.241106   20.357295 H          1 MOL1         0.0733
       7    C3      19.471370   19.640956   21.787078 C.2        1 MOL1        -0.1395
       8    H3      18.840328   20.145890   22.517851 H          1 MOL1         0.0816
       9    C4      20.630526   19.088244   22.157342 C.2        1 MOL1        -0.1394
      10    H4      21.262557   18.586263   21.425487 H          1 MOL1         0.0816
      11    C5      21.165464   19.106331   23.571851 C.3        1 MOL1        -0.1826
      12    H5      22.215804   19.427725   23.566859 H          1 MOL1         0.0736
      13    H6      20.615298   19.836244   24.181576 H          1 MOL1         0.0736
      14    C6      21.057479   17.713552   24.222669 C.3        1 MOL1        -0.2882
      15    H7      21.630984   16.969883   23.653917 H          1 MOL1         0.0749
      16    H8      21.447767   17.732779   25.248530 H          1 MOL1         0.0749
      17    H9      20.011570   17.381724   24.262210 H          1 MOL1         0.0749
@<TRIPOS>BOND
    1     1     2    1
    2     1     3    2
    3     1     4    1
    4     4     5    1
    5     4     6    1
    6     4     7    1
    7     7     8    1
    8     7     9    2
    9     9    10    1
   10     9    11    1
   11    11    12    1
   12    11    13    1
   13    11    14    1
   14    14    15    1
   15    14    16    1
   16    14    17    1
@<TRIPOS>SUBSTRUCTURE
       1 MOL1            1 RESIDUE      1      MOL     
@<SCITEGIC>MOL_PROPERTY
VConf Rank
SciTegic.value.IntegerValue
342

@<SCITEGIC>MOL_PROPERTY
Conf_Id
SciTegic.value.IntegerValue
35

@<SCITEGIC>MOL_PROPERTY
Delta U+W
SciTegic.value.DoubleValue
-0.102

@<SCITEGIC>MOL_PROPERTY
U+W
SciTegic.value.DoubleValue
-49.529

@<SCITEGIC>MOL_PROPERTY
Grad RMS
SciTegic.value.DoubleValue
0.000000

@<SCITEGIC>MOL_PROPERTY
U
SciTegic.value.DoubleValue
13.666

@<SCITEGIC>MOL_PROPERTY
W
SciTegic.value.DoubleValue
-63.195

@<SCITEGIC>MOL_PROPERTY
W(PB)
SciTegic.value.DoubleValue
-65.299

@<SCITEGIC>MOL_PROPERTY
W(SA)
SciTegic.value.DoubleValue
2.103

@<SCITEGIC>MOL_PROPERTY
Valence
SciTegic.value.DoubleValue
15.226

@<SCITEGIC>MOL_PROPERTY
Coulomb
SciTegic.value.DoubleValue
-1.822

@<SCITEGIC>MOL_PROPERTY
VdW
SciTegic.value.DoubleValue
0.261

@<SCITEGIC>MOL_PROPERTY
VdW6
SciTegic.value.DoubleValue
-4.165

@<SCITEGIC>MOL_PROPERTY
VdW12
SciTegic.value.DoubleValue
4.426

@<SCITEGIC>MOL_PROPERTY
Bond
SciTegic.value.DoubleValue
0.044

@<SCITEGIC>MOL_PROPERTY
Angle
SciTegic.value.DoubleValue
2.229

@<SCITEGIC>MOL_PROPERTY
Pdih
SciTegic.value.DoubleValue
12.953

@<SCITEGIC>MOL_PROPERTY
Idih
SciTegic.value.DoubleValue
0.000

@<SCITEGIC>MOL_PROPERTY
Tether
SciTegic.value.DoubleValue
0.000

@<TRIPOS>MOLECULE
guest-s20_confgen4.mol2 : confsearch ligand conformer 343
          17          16           1
SMALL
USER_CHARGES
 
@<TRIPOS>ATOM
       1    C1      17.278808   18.904609   22.241116 C.2        1 MOL1         0.6132
       2    O1      16.940697   17.740094   22.160142 O.co2      1 MOL1        -0.6749
       3    O2      16.792555   19.692337   23.028448 O.co2      1 MOL1        -0.6749
       4    C2      18.364560   19.404289   21.297105 C.3        1 MOL1        -0.1955
       5    H1      18.250375   20.489367   21.186862 H          1 MOL1         0.0733
       6    H2      18.181128   18.961083   20.311493 H          1 MOL1         0.0733
       7    C3      19.759249   19.048555   21.776376 C.2        1 MOL1        -0.1395
       8    H3      19.988830   17.984606   21.756543 H          1 MOL1         0.0816
       9    C4      20.655449   19.948181   22.200888 C.2        1 MOL1        -0.1394
      10    H4      20.388090   21.004357   22.210664 H          1 MOL1         0.0816
      11    C5      22.063201   19.662776   22.696237 C.3        1 MOL1        -0.1826
      12    H5      22.778707   20.224825   22.080885 H          1 MOL1         0.0736
      13    H6      22.170918   20.062819   23.713529 H          1 MOL1         0.0736
      14    C6      22.464034   18.171013   22.697770 C.3        1 MOL1        -0.2882
      15    H7      22.420303   17.750221   21.684644 H          1 MOL1         0.0749
      16    H8      23.490009   18.048565   23.068460 H          1 MOL1         0.0749
      17    H9      21.799952   17.585426   23.347056 H          1 MOL1         0.0749
@<TRIPOS>BOND
    1     1     2    1
    2     1     3    2
    3     1     4    1
    4     4     5    1
    5     4     6    1
    6     4     7    1
    7     7     8    1
    8     7     9    2
    9     9    10    1
   10     9    11    1
   11    11    12    1
   12    11    13    1
   13    11    14    1
   14    14    15    1
   15    14    16    1
   16    14    17    1
@<TRIPOS>SUBSTRUCTURE
       1 MOL1            1 RESIDUE      1      MOL     
@<SCITEGIC>MOL_PROPERTY
VConf Rank
SciTegic.value.IntegerValue
343

@<SCITEGIC>MOL_PROPERTY
Conf_Id
SciTegic.value.IntegerValue
19

@<SCITEGIC>MOL_PROPERTY
Delta U+W
SciTegic.value.DoubleValue
-0.496

@<SCITEGIC>MOL_PROPERTY
U+W
SciTegic.value.DoubleValue
-49.923

@<SCITEGIC>MOL_PROPERTY
Grad RMS
SciTegic.value.DoubleValue
0.000000

@<SCITEGIC>MOL_PROPERTY
U
SciTegic.value.DoubleValue
13.863

@<SCITEGIC>MOL_PROPERTY
W
SciTegic.value.DoubleValue
-63.786

@<SCITEGIC>MOL_PROPERTY
W(PB)
SciTegic.value.DoubleValue
-65.856

@<SCITEGIC>MOL_PROPERTY
W(SA)
SciTegic.value.DoubleValue
2.070

@<SCITEGIC>MOL_PROPERTY
Valence
SciTegic.value.DoubleValue
14.117

@<SCITEGIC>MOL_PROPERTY
Coulomb
SciTegic.value.DoubleValue
-1.228

@<SCITEGIC>MOL_PROPERTY
VdW
SciTegic.value.DoubleValue
0.974

@<SCITEGIC>MOL_PROPERTY
VdW6
SciTegic.value.DoubleValue
-4.885

@<SCITEGIC>MOL_PROPERTY
VdW12
SciTegic.value.DoubleValue
5.859

@<SCITEGIC>MOL_PROPERTY
Bond
SciTegic.value.DoubleValue
0.094

@<SCITEGIC>MOL_PROPERTY
Angle
SciTegic.value.DoubleValue
2.818

@<SCITEGIC>MOL_PROPERTY
Pdih
SciTegic.value.DoubleValue
11.205

@<SCITEGIC>MOL_PROPERTY
Idih
SciTegic.value.DoubleValue
0.000

@<SCITEGIC>MOL_PROPERTY
Tether
SciTegic.value.DoubleValue
0.000

@<TRIPOS>MOLECULE
guest-s20_confgen4.mol2 : confsearch ligand conformer 344
          17          16           1
SMALL
USER_CHARGES
 
@<TRIPOS>ATOM
       1    C1      18.483562   17.292794   20.575369 C.2        1 MOL1         0.6132
       2    O1      17.365109   17.707819   20.806946 O.co2      1 MOL1        -0.6749
       3    O2      18.889833   17.043817   19.457354 O.co2      1 MOL1        -0.6749
       4    C2      19.425627   17.061100   21.749531 C.3        1 MOL1        -0.1955
       5    H1      19.953342   16.116581   21.573785 H          1 MOL1         0.0733
       6    H2      18.820179   16.926985   22.654020 H          1 MOL1         0.0733
       7    C3      20.423105   18.190191   21.925473 C.2        1 MOL1        -0.1395
       8    H3      21.162443   18.285575   21.130805 H          1 MOL1         0.0816
       9    C4      20.426129   19.035354   22.960802 C.2        1 MOL1        -0.1394
      10    H4      19.683411   18.942705   23.752539 H          1 MOL1         0.0816
      11    C5      21.419865   20.162395   23.132855 C.3        1 MOL1        -0.1826
      12    H5      21.829368   20.143609   24.151912 H          1 MOL1         0.0736
      13    H6      22.269957   20.033090   22.448872 H          1 MOL1         0.0736
      14    C6      20.757606   21.528940   22.870253 C.3        1 MOL1        -0.2882
      15    H7      19.927015   21.702014   23.567095 H          1 MOL1         0.0749
      16    H8      21.483175   22.343065   22.996022 H          1 MOL1         0.0749
      17    H9      20.361852   21.579973   21.847289 H          1 MOL1         0.0749
@<TRIPOS>BOND
    1     1     2    1
    2     1     3    2
    3     1     4    1
    4     4     5    1
    5     4     6    1
    6     4     7    1
    7     7     8    1
    8     7     9    2
    9     9    10    1
   10     9    11    1
   11    11    12    1
   12    11    13    1
   13    11    14    1
   14    14    15    1
   15    14    16    1
   16    14    17    1
@<TRIPOS>SUBSTRUCTURE
       1 MOL1            1 RESIDUE      1      MOL     
@<SCITEGIC>MOL_PROPERTY
VConf Rank
SciTegic.value.IntegerValue
344

@<SCITEGIC>MOL_PROPERTY
Conf_Id
SciTegic.value.IntegerValue
7

@<SCITEGIC>MOL_PROPERTY
Delta U+W
SciTegic.value.DoubleValue
-0.041

@<SCITEGIC>MOL_PROPERTY
U+W
SciTegic.value.DoubleValue
-49.468

@<SCITEGIC>MOL_PROPERTY
Grad RMS
SciTegic.value.DoubleValue
0.000000

@<SCITEGIC>MOL_PROPERTY
U
SciTegic.value.DoubleValue
14.121

@<SCITEGIC>MOL_PROPERTY
W
SciTegic.value.DoubleValue
-63.589

@<SCITEGIC>MOL_PROPERTY
W(PB)
SciTegic.value.DoubleValue
-65.660

@<SCITEGIC>MOL_PROPERTY
W(SA)
SciTegic.value.DoubleValue
2.071

@<SCITEGIC>MOL_PROPERTY
Valence
SciTegic.value.DoubleValue
15.230

@<SCITEGIC>MOL_PROPERTY
Coulomb
SciTegic.value.DoubleValue
-1.333

@<SCITEGIC>MOL_PROPERTY
VdW
SciTegic.value.DoubleValue
0.224

@<SCITEGIC>MOL_PROPERTY
VdW6
SciTegic.value.DoubleValue
-4.212

@<SCITEGIC>MOL_PROPERTY
VdW12
SciTegic.value.DoubleValue
4.436

@<SCITEGIC>MOL_PROPERTY
Bond
SciTegic.value.DoubleValue
0.044

@<SCITEGIC>MOL_PROPERTY
Angle
SciTegic.value.DoubleValue
2.230

@<SCITEGIC>MOL_PROPERTY
Pdih
SciTegic.value.DoubleValue
12.956

@<SCITEGIC>MOL_PROPERTY
Idih
SciTegic.value.DoubleValue
0.000

@<SCITEGIC>MOL_PROPERTY
Tether
SciTegic.value.DoubleValue
0.000

@<TRIPOS>MOLECULE
guest-s20_confgen4.mol2 : confsearch ligand conformer 345
          17          16           1
SMALL
USER_CHARGES
 
@<TRIPOS>ATOM
       1    C1      22.816083   19.820138   22.599870 C.2        1 MOL1         0.6132
       2    O1      23.039908   19.245450   23.647070 O.co2      1 MOL1        -0.6749
       3    O2      23.072088   20.992906   22.409711 O.co2      1 MOL1        -0.6749
       4    C2      22.206650   19.019559   21.453030 C.3        1 MOL1        -0.1955
       5    H1      22.568626   17.987922   21.533445 H          1 MOL1         0.0733
       6    H2      22.617432   19.410841   20.515012 H          1 MOL1         0.0733
       7    C3      20.686056   19.022720   21.384775 C.2        1 MOL1        -0.1395
       8    H3      20.272037   18.445536   20.558946 H          1 MOL1         0.0816
       9    C4      19.861977   19.653455   22.229798 C.2        1 MOL1        -0.1394
      10    H4      20.249927   20.236495   23.064239 H          1 MOL1         0.0816
      11    C5      18.353877   19.625934   22.116587 C.3        1 MOL1        -0.1826
      12    H5      17.957171   20.646490   22.203816 H          1 MOL1         0.0736
      13    H6      18.048451   19.252489   21.129465 H          1 MOL1         0.0736
      14    C6      17.732590   18.737947   23.212268 C.3        1 MOL1        -0.2882
      15    H7      16.638322   18.722769   23.126203 H          1 MOL1         0.0749
      16    H8      18.095489   17.705001   23.129079 H          1 MOL1         0.0749
      17    H9      17.990724   19.111420   24.211940 H          1 MOL1         0.0749
@<TRIPOS>BOND
    1     1     2    1
    2     1     3    2
    3     1     4    1
    4     4     5    1
    5     4     6    1
    6     4     7    1
    7     7     8    1
    8     7     9    2
    9     9    10    1
   10     9    11    1
   11    11    12    1
   12    11    13    1
   13    11    14    1
   14    14    15    1
   15    14    16    1
   16    14    17    1
@<TRIPOS>SUBSTRUCTURE
       1 MOL1            1 RESIDUE      1      MOL     
@<SCITEGIC>MOL_PROPERTY
VConf Rank
SciTegic.value.IntegerValue
345

@<SCITEGIC>MOL_PROPERTY
Conf_Id
SciTegic.value.IntegerValue
39

@<SCITEGIC>MOL_PROPERTY
Delta U+W
SciTegic.value.DoubleValue
-0.422

@<SCITEGIC>MOL_PROPERTY
U+W
SciTegic.value.DoubleValue
-49.849

@<SCITEGIC>MOL_PROPERTY
Grad RMS
SciTegic.value.DoubleValue
0.000000

@<SCITEGIC>MOL_PROPERTY
U
SciTegic.value.DoubleValue
14.465

@<SCITEGIC>MOL_PROPERTY
W
SciTegic.value.DoubleValue
-64.314

@<SCITEGIC>MOL_PROPERTY
W(PB)
SciTegic.value.DoubleValue
-66.406

@<SCITEGIC>MOL_PROPERTY
W(SA)
SciTegic.value.DoubleValue
2.093

@<SCITEGIC>MOL_PROPERTY
Valence
SciTegic.value.DoubleValue
14.072

@<SCITEGIC>MOL_PROPERTY
Coulomb
SciTegic.value.DoubleValue
-0.199

@<SCITEGIC>MOL_PROPERTY
VdW
SciTegic.value.DoubleValue
0.592

@<SCITEGIC>MOL_PROPERTY
VdW6
SciTegic.value.DoubleValue
-5.019

@<SCITEGIC>MOL_PROPERTY
VdW12
SciTegic.value.DoubleValue
5.611

@<SCITEGIC>MOL_PROPERTY
Bond
SciTegic.value.DoubleValue
0.085

@<SCITEGIC>MOL_PROPERTY
Angle
SciTegic.value.DoubleValue
2.748

@<SCITEGIC>MOL_PROPERTY
Pdih
SciTegic.value.DoubleValue
11.238

@<SCITEGIC>MOL_PROPERTY
Idih
SciTegic.value.DoubleValue
0.001

@<SCITEGIC>MOL_PROPERTY
Tether
SciTegic.value.DoubleValue
0.000

@<TRIPOS>MOLECULE
guest-s20_confgen4.mol2 : confsearch ligand conformer 346
          17          16           1
SMALL
USER_CHARGES
 
@<TRIPOS>ATOM
       1    C1      18.522304   17.998830   24.528930 C.2        1 MOL1         0.6132
       2    O1      17.793543   18.744710   25.153055 O.co2      1 MOL1        -0.6749
       3    O2      19.210413   17.142068   25.047855 O.co2      1 MOL1        -0.6749
       4    C2      18.570198   18.143873   23.013585 C.3        1 MOL1        -0.1955
       5    H1      17.546705   18.316271   22.661094 H          1 MOL1         0.0733
       6    H2      18.899459   17.188441   22.587700 H          1 MOL1         0.0733
       7    C3      19.472841   19.278084   22.566882 C.2        1 MOL1        -0.1395
       8    H3      19.121142   20.278508   22.817206 H          1 MOL1         0.0816
       9    C4      20.626073   19.107374   21.913320 C.2        1 MOL1        -0.1394
      10    H4      20.978628   18.106588   21.665949 H          1 MOL1         0.0816
      11    C5      21.526702   20.239376   21.472004 C.3        1 MOL1        -0.1826
      12    H5      21.242535   21.174632   21.973768 H          1 MOL1         0.0736
      13    H6      22.562811   20.025438   21.767373 H          1 MOL1         0.0736
      14    C6      21.458386   20.438509   19.945328 C.3        1 MOL1        -0.2882
      15    H7      20.434884   20.679270   19.628974 H          1 MOL1         0.0749
      16    H8      22.114369   21.260701   19.631046 H          1 MOL1         0.0749
      17    H9      21.774722   19.529437   19.417172 H          1 MOL1         0.0749
@<TRIPOS>BOND
    1     1     2    1
    2     1     3    2
    3     1     4    1
    4     4     5    1
    5     4     6    1
    6     4     7    1
    7     7     8    1
    8     7     9    2
    9     9    10    1
   10     9    11    1
   11    11    12    1
   12    11    13    1
   13    11    14    1
   14    14    15    1
   15    14    16    1
   16    14    17    1
@<TRIPOS>SUBSTRUCTURE
       1 MOL1            1 RESIDUE      1      MOL     
@<SCITEGIC>MOL_PROPERTY
VConf Rank
SciTegic.value.IntegerValue
346

@<SCITEGIC>MOL_PROPERTY
Conf_Id
SciTegic.value.IntegerValue
38

@<SCITEGIC>MOL_PROPERTY
Delta U+W
SciTegic.value.DoubleValue
0.000

@<SCITEGIC>MOL_PROPERTY
U+W
SciTegic.value.DoubleValue
-49.427

@<SCITEGIC>MOL_PROPERTY
Grad RMS
SciTegic.value.DoubleValue
0.000000

@<SCITEGIC>MOL_PROPERTY
U
SciTegic.value.DoubleValue
13.666

@<SCITEGIC>MOL_PROPERTY
W
SciTegic.value.DoubleValue
-63.093

@<SCITEGIC>MOL_PROPERTY
W(PB)
SciTegic.value.DoubleValue
-65.225

@<SCITEGIC>MOL_PROPERTY
W(SA)
SciTegic.value.DoubleValue
2.132

@<SCITEGIC>MOL_PROPERTY
Valence
SciTegic.value.DoubleValue
15.226

@<SCITEGIC>MOL_PROPERTY
Coulomb
SciTegic.value.DoubleValue
-1.822

@<SCITEGIC>MOL_PROPERTY
VdW
SciTegic.value.DoubleValue
0.261

@<SCITEGIC>MOL_PROPERTY
VdW6
SciTegic.value.DoubleValue
-4.165

@<SCITEGIC>MOL_PROPERTY
VdW12
SciTegic.value.DoubleValue
4.426

@<SCITEGIC>MOL_PROPERTY
Bond
SciTegic.value.DoubleValue
0.044

@<SCITEGIC>MOL_PROPERTY
Angle
SciTegic.value.DoubleValue
2.229

@<SCITEGIC>MOL_PROPERTY
Pdih
SciTegic.value.DoubleValue
12.953

@<SCITEGIC>MOL_PROPERTY
Idih
SciTegic.value.DoubleValue
0.000

@<SCITEGIC>MOL_PROPERTY
Tether
SciTegic.value.DoubleValue
0.000

@<TRIPOS>MOLECULE
guest-s20_confgen4.mol2 : confsearch ligand conformer 347
          17          16           1
SMALL
USER_CHARGES
 
@<TRIPOS>ATOM
       1    C1      18.600352   21.960836   21.358961 C.2        1 MOL1         0.6132
       2    O1      18.187884   22.482289   22.376200 O.co2      1 MOL1        -0.6749
       3    O2      17.995840   21.973139   20.304743 O.co2      1 MOL1        -0.6749
       4    C2      19.950638   21.257775   21.404089 C.3        1 MOL1        -0.1955
       5    H1      20.530969   21.682239   22.232151 H          1 MOL1         0.0733
       6    H2      20.486206   21.501431   20.479262 H          1 MOL1         0.0733
       7    C3      19.817849   19.753663   21.548165 C.2        1 MOL1        -0.1395
       8    H3      19.393244   19.239613   20.686386 H          1 MOL1         0.0816
       9    C4      20.180361   19.068504   22.636913 C.2        1 MOL1        -0.1394
      10    H4      20.601930   19.583541   23.499512 H          1 MOL1         0.0816
      11    C5      20.043543   17.569158   22.780316 C.3        1 MOL1        -0.1826
      12    H5      19.568738   17.330521   23.741641 H          1 MOL1         0.0736
      13    H6      19.387793   17.166257   21.996172 H          1 MOL1         0.0736
      14    C6      21.418390   16.877416   22.700644 C.3        1 MOL1        -0.2882
      15    H7      22.083115   17.233986   23.498408 H          1 MOL1         0.0749
      16    H8      21.312776   15.789838   22.806031 H          1 MOL1         0.0749
      17    H9      21.901896   17.080899   21.736063 H          1 MOL1         0.0749
@<TRIPOS>BOND
    1     1     2    1
    2     1     3    2
    3     1     4    1
    4     4     5    1
    5     4     6    1
    6     4     7    1
    7     7     8    1
    8     7     9    2
    9     9    10    1
   10     9    11    1
   11    11    12    1
   12    11    13    1
   13    11    14    1
   14    14    15    1
   15    14    16    1
   16    14    17    1
@<TRIPOS>SUBSTRUCTURE
       1 MOL1            1 RESIDUE      1      MOL     
@<SCITEGIC>MOL_PROPERTY
VConf Rank
SciTegic.value.IntegerValue
347

@<SCITEGIC>MOL_PROPERTY
Conf_Id
SciTegic.value.IntegerValue
35

@<SCITEGIC>MOL_PROPERTY
Delta U+W
SciTegic.value.DoubleValue
-0.102

@<SCITEGIC>MOL_PROPERTY
U+W
SciTegic.value.DoubleValue
-49.529

@<SCITEGIC>MOL_PROPERTY
Grad RMS
SciTegic.value.DoubleValue
0.000000

@<SCITEGIC>MOL_PROPERTY
U
SciTegic.value.DoubleValue
13.666

@<SCITEGIC>MOL_PROPERTY
W
SciTegic.value.DoubleValue
-63.195

@<SCITEGIC>MOL_PROPERTY
W(PB)
SciTegic.value.DoubleValue
-65.299

@<SCITEGIC>MOL_PROPERTY
W(SA)
SciTegic.value.DoubleValue
2.103

@<SCITEGIC>MOL_PROPERTY
Valence
SciTegic.value.DoubleValue
15.226

@<SCITEGIC>MOL_PROPERTY
Coulomb
SciTegic.value.DoubleValue
-1.822

@<SCITEGIC>MOL_PROPERTY
VdW
SciTegic.value.DoubleValue
0.261

@<SCITEGIC>MOL_PROPERTY
VdW6
SciTegic.value.DoubleValue
-4.165

@<SCITEGIC>MOL_PROPERTY
VdW12
SciTegic.value.DoubleValue
4.426

@<SCITEGIC>MOL_PROPERTY
Bond
SciTegic.value.DoubleValue
0.044

@<SCITEGIC>MOL_PROPERTY
Angle
SciTegic.value.DoubleValue
2.229

@<SCITEGIC>MOL_PROPERTY
Pdih
SciTegic.value.DoubleValue
12.953

@<SCITEGIC>MOL_PROPERTY
Idih
SciTegic.value.DoubleValue
0.000

@<SCITEGIC>MOL_PROPERTY
Tether
SciTegic.value.DoubleValue
0.000

@<TRIPOS>MOLECULE
guest-s20_confgen4.mol2 : confsearch ligand conformer 348
          17          16           1
SMALL
USER_CHARGES
 
@<TRIPOS>ATOM
       1    C1      21.983851   20.308112   20.168073 C.2        1 MOL1         0.6132
       2    O1      22.844242   19.514116   19.842082 O.co2      1 MOL1        -0.6749
       3    O2      21.350813   20.976431   19.374687 O.co2      1 MOL1        -0.6749
       4    C2      21.691182   20.480324   21.652789 C.3        1 MOL1        -0.1955
       5    H1      21.251168   21.473563   21.802622 H          1 MOL1         0.0733
       6    H2      22.648792   20.470403   22.186075 H          1 MOL1         0.0733
       7    C3      20.782116   19.393632   22.195103 C.2        1 MOL1        -0.1395
       8    H3      21.226608   18.400215   22.220377 H          1 MOL1         0.0816
       9    C4      19.527642   19.607779   22.611213 C.2        1 MOL1        -0.1394
      10    H4      19.115154   20.615233   22.566772 H          1 MOL1         0.0816
      11    C5      18.563800   18.569371   23.160128 C.3        1 MOL1        -0.1826
      12    H5      18.243486   18.875931   24.165078 H          1 MOL1         0.0736
      13    H6      17.652422   18.569849   22.547012 H          1 MOL1         0.0736
      14    C6      19.123524   17.131241   23.227367 C.3        1 MOL1        -0.2882
      15    H7      20.006717   17.082174   23.877724 H          1 MOL1         0.0749
      16    H8      18.369712   16.443404   23.631936 H          1 MOL1         0.0749
      17    H9      19.405636   16.771344   22.229181 H          1 MOL1         0.0749
@<TRIPOS>BOND
    1     1     2    1
    2     1     3    2
    3     1     4    1
    4     4     5    1
    5     4     6    1
    6     4     7    1
    7     7     8    1
    8     7     9    2
    9     9    10    1
   10     9    11    1
   11    11    12    1
   12    11    13    1
   13    11    14    1
   14    14    15    1
   15    14    16    1
   16    14    17    1
@<TRIPOS>SUBSTRUCTURE
       1 MOL1            1 RESIDUE      1      MOL     
@<SCITEGIC>MOL_PROPERTY
VConf Rank
SciTegic.value.IntegerValue
348

@<SCITEGIC>MOL_PROPERTY
Conf_Id
SciTegic.value.IntegerValue
19

@<SCITEGIC>MOL_PROPERTY
Delta U+W
SciTegic.value.DoubleValue
-0.496

@<SCITEGIC>MOL_PROPERTY
U+W
SciTegic.value.DoubleValue
-49.923

@<SCITEGIC>MOL_PROPERTY
Grad RMS
SciTegic.value.DoubleValue
0.000000

@<SCITEGIC>MOL_PROPERTY
U
SciTegic.value.DoubleValue
13.863

@<SCITEGIC>MOL_PROPERTY
W
SciTegic.value.DoubleValue
-63.786

@<SCITEGIC>MOL_PROPERTY
W(PB)
SciTegic.value.DoubleValue
-65.856

@<SCITEGIC>MOL_PROPERTY
W(SA)
SciTegic.value.DoubleValue
2.070

@<SCITEGIC>MOL_PROPERTY
Valence
SciTegic.value.DoubleValue
14.117

@<SCITEGIC>MOL_PROPERTY
Coulomb
SciTegic.value.DoubleValue
-1.228

@<SCITEGIC>MOL_PROPERTY
VdW
SciTegic.value.DoubleValue
0.974

@<SCITEGIC>MOL_PROPERTY
VdW6
SciTegic.value.DoubleValue
-4.885

@<SCITEGIC>MOL_PROPERTY
VdW12
SciTegic.value.DoubleValue
5.859

@<SCITEGIC>MOL_PROPERTY
Bond
SciTegic.value.DoubleValue
0.094

@<SCITEGIC>MOL_PROPERTY
Angle
SciTegic.value.DoubleValue
2.818

@<SCITEGIC>MOL_PROPERTY
Pdih
SciTegic.value.DoubleValue
11.205

@<SCITEGIC>MOL_PROPERTY
Idih
SciTegic.value.DoubleValue
0.000

@<SCITEGIC>MOL_PROPERTY
Tether
SciTegic.value.DoubleValue
0.000

@<TRIPOS>MOLECULE
guest-s20_confgen4.mol2 : confsearch ligand conformer 349
          17          16           1
SMALL
USER_CHARGES
 
@<TRIPOS>ATOM
       1    C1      19.501725   20.423783   24.730071 C.2        1 MOL1         0.6132
       2    O1      19.709833   21.589337   24.456232 O.co2      1 MOL1        -0.6749
       3    O2      18.506699   20.037305   25.311071 O.co2      1 MOL1        -0.6749
       4    C2      20.548473   19.390651   24.334112 C.3        1 MOL1        -0.1955
       5    H1      20.659224   18.689476   25.169320 H          1 MOL1         0.0733
       6    H2      21.510275   19.904235   24.216539 H          1 MOL1         0.0733
       7    C3      20.174776   18.640212   23.070010 C.2        1 MOL1        -0.1395
       8    H3      19.311140   17.981753   23.158228 H          1 MOL1         0.0816
       9    C4      20.825434   18.754831   21.908234 C.2        1 MOL1        -0.1394
      10    H4      21.685809   19.417318   21.819220 H          1 MOL1         0.0816
      11    C5      20.449367   18.007836   20.648112 C.3        1 MOL1        -0.1826
      12    H5      21.344590   17.547546   20.208530 H          1 MOL1         0.0736
      13    H6      19.754824   17.188576   20.879695 H          1 MOL1         0.0736
      14    C6      19.798708   18.952019   19.618475 C.3        1 MOL1        -0.2882
      15    H7      20.486811   19.760576   19.338878 H          1 MOL1         0.0749
      16    H8      19.527429   18.404784   18.706330 H          1 MOL1         0.0749
      17    H9      18.886461   19.405769   20.027864 H          1 MOL1         0.0749
@<TRIPOS>BOND
    1     1     2    1
    2     1     3    2
    3     1     4    1
    4     4     5    1
    5     4     6    1
    6     4     7    1
    7     7     8    1
    8     7     9    2
    9     9    10    1
   10     9    11    1
   11    11    12    1
   12    11    13    1
   13    11    14    1
   14    14    15    1
   15    14    16    1
   16    14    17    1
@<TRIPOS>SUBSTRUCTURE
       1 MOL1            1 RESIDUE      1      MOL     
@<SCITEGIC>MOL_PROPERTY
VConf Rank
SciTegic.value.IntegerValue
349

@<SCITEGIC>MOL_PROPERTY
Conf_Id
SciTegic.value.IntegerValue
7

@<SCITEGIC>MOL_PROPERTY
Delta U+W
SciTegic.value.DoubleValue
-0.041

@<SCITEGIC>MOL_PROPERTY
U+W
SciTegic.value.DoubleValue
-49.468

@<SCITEGIC>MOL_PROPERTY
Grad RMS
SciTegic.value.DoubleValue
0.000000

@<SCITEGIC>MOL_PROPERTY
U
SciTegic.value.DoubleValue
14.121

@<SCITEGIC>MOL_PROPERTY
W
SciTegic.value.DoubleValue
-63.589

@<SCITEGIC>MOL_PROPERTY
W(PB)
SciTegic.value.DoubleValue
-65.660

@<SCITEGIC>MOL_PROPERTY
W(SA)
SciTegic.value.DoubleValue
2.071

@<SCITEGIC>MOL_PROPERTY
Valence
SciTegic.value.DoubleValue
15.230

@<SCITEGIC>MOL_PROPERTY
Coulomb
SciTegic.value.DoubleValue
-1.333

@<SCITEGIC>MOL_PROPERTY
VdW
SciTegic.value.DoubleValue
0.224

@<SCITEGIC>MOL_PROPERTY
VdW6
SciTegic.value.DoubleValue
-4.212

@<SCITEGIC>MOL_PROPERTY
VdW12
SciTegic.value.DoubleValue
4.436

@<SCITEGIC>MOL_PROPERTY
Bond
SciTegic.value.DoubleValue
0.044

@<SCITEGIC>MOL_PROPERTY
Angle
SciTegic.value.DoubleValue
2.230

@<SCITEGIC>MOL_PROPERTY
Pdih
SciTegic.value.DoubleValue
12.956

@<SCITEGIC>MOL_PROPERTY
Idih
SciTegic.value.DoubleValue
0.000

@<SCITEGIC>MOL_PROPERTY
Tether
SciTegic.value.DoubleValue
0.000

@<TRIPOS>MOLECULE
guest-s20_confgen4.mol2 : confsearch ligand conformer 350
          17          16           1
SMALL
USER_CHARGES
 
@<TRIPOS>ATOM
       1    C1      19.780998   20.680927   19.916253 C.2        1 MOL1         0.6132
       2    O1      18.577804   20.591212   19.770417 O.co2      1 MOL1        -0.6749
       3    O2      20.586250   20.358778   19.064860 O.co2      1 MOL1        -0.6749
       4    C2      20.308379   21.254769   21.227799 C.3        1 MOL1        -0.1955
       5    H1      19.579563   21.988756   21.590923 H          1 MOL1         0.0733
       6    H2      21.220180   21.820697   21.004048 H          1 MOL1         0.0733
       7    C3      20.595436   20.236552   22.322198 C.2        1 MOL1        -0.1395
       8    H3      20.971013   20.667294   23.249532 H          1 MOL1         0.0816
       9    C4      20.424523   18.912488   22.229254 C.2        1 MOL1        -0.1394
      10    H4      20.049551   18.456322   21.313808 H          1 MOL1         0.0816
      11    C5      20.727138   17.941571   23.348936 C.3        1 MOL1        -0.1826
      12    H5      21.321917   17.103251   22.961667 H          1 MOL1         0.0736
      13    H6      21.334432   18.426448   24.125623 H          1 MOL1         0.0736
      14    C6      19.428726   17.401946   23.979781 C.3        1 MOL1        -0.2882
      15    H7      19.654239   16.697027   24.790517 H          1 MOL1         0.0749
      16    H8      18.828558   18.221118   24.397333 H          1 MOL1         0.0749
      17    H9      18.818699   16.877914   23.232307 H          1 MOL1         0.0749
@<TRIPOS>BOND
    1     1     2    1
    2     1     3    2
    3     1     4    1
    4     4     5    1
    5     4     6    1
    6     4     7    1
    7     7     8    1
    8     7     9    2
    9     9    10    1
   10     9    11    1
   11    11    12    1
   12    11    13    1
   13    11    14    1
   14    14    15    1
   15    14    16    1
   16    14    17    1
@<TRIPOS>SUBSTRUCTURE
       1 MOL1            1 RESIDUE      1      MOL     
@<SCITEGIC>MOL_PROPERTY
VConf Rank
SciTegic.value.IntegerValue
350

@<SCITEGIC>MOL_PROPERTY
Conf_Id
SciTegic.value.IntegerValue
39

@<SCITEGIC>MOL_PROPERTY
Delta U+W
SciTegic.value.DoubleValue
-0.422

@<SCITEGIC>MOL_PROPERTY
U+W
SciTegic.value.DoubleValue
-49.849

@<SCITEGIC>MOL_PROPERTY
Grad RMS
SciTegic.value.DoubleValue
0.000000

@<SCITEGIC>MOL_PROPERTY
U
SciTegic.value.DoubleValue
14.465

@<SCITEGIC>MOL_PROPERTY
W
SciTegic.value.DoubleValue
-64.314

@<SCITEGIC>MOL_PROPERTY
W(PB)
SciTegic.value.DoubleValue
-66.406

@<SCITEGIC>MOL_PROPERTY
W(SA)
SciTegic.value.DoubleValue
2.093

@<SCITEGIC>MOL_PROPERTY
Valence
SciTegic.value.DoubleValue
14.072

@<SCITEGIC>MOL_PROPERTY
Coulomb
SciTegic.value.DoubleValue
-0.199

@<SCITEGIC>MOL_PROPERTY
VdW
SciTegic.value.DoubleValue
0.592

@<SCITEGIC>MOL_PROPERTY
VdW6
SciTegic.value.DoubleValue
-5.019

@<SCITEGIC>MOL_PROPERTY
VdW12
SciTegic.value.DoubleValue
5.611

@<SCITEGIC>MOL_PROPERTY
Bond
SciTegic.value.DoubleValue
0.085

@<SCITEGIC>MOL_PROPERTY
Angle
SciTegic.value.DoubleValue
2.748

@<SCITEGIC>MOL_PROPERTY
Pdih
SciTegic.value.DoubleValue
11.238

@<SCITEGIC>MOL_PROPERTY
Idih
SciTegic.value.DoubleValue
0.001

@<SCITEGIC>MOL_PROPERTY
Tether
SciTegic.value.DoubleValue
0.000

@<TRIPOS>MOLECULE
guest-s20_confgen4.mol2 : confsearch ligand conformer 351
          17          16           1
SMALL
USER_CHARGES
 
@<TRIPOS>ATOM
       1    C1      21.559758   22.045607   21.626841 C.2        1 MOL1         0.6132
       2    O1      22.628252   22.202512   22.184211 O.co2      1 MOL1        -0.6749
       3    O2      20.722023   22.919644   21.521594 O.co2      1 MOL1        -0.6749
       4    C2      21.258514   20.680063   21.023395 C.3        1 MOL1        -0.1955
       5    H1      22.174604   20.316317   20.543836 H          1 MOL1         0.0733
       6    H2      20.512282   20.812294   20.230745 H          1 MOL1         0.0733
       7    C3      20.780389   19.680110   22.058882 C.2        1 MOL1        -0.1395
       8    H3      21.527632   19.375568   22.791060 H          1 MOL1         0.0816
       9    C4      19.540147   19.184500   22.107851 C.2        1 MOL1        -0.1394
      10    H4      18.792604   19.491720   21.377196 H          1 MOL1         0.0816
      11    C5      19.064117   18.190340   23.143400 C.3        1 MOL1        -0.1826
      12    H5      19.777690   18.132049   23.976849 H          1 MOL1         0.0736
      13    H6      18.109146   18.527066   23.569054 H          1 MOL1         0.0736
      14    C6      18.885858   16.789721   22.525702 C.3        1 MOL1        -0.2882
      15    H7      19.835257   16.420717   22.115729 H          1 MOL1         0.0749
      16    H8      18.539739   16.072913   23.281661 H          1 MOL1         0.0749
      17    H9      18.147701   16.810966   21.713236 H          1 MOL1         0.0749
@<TRIPOS>BOND
    1     1     2    1
    2     1     3    2
    3     1     4    1
    4     4     5    1
    5     4     6    1
    6     4     7    1
    7     7     8    1
    8     7     9    2
    9     9    10    1
   10     9    11    1
   11    11    12    1
   12    11    13    1
   13    11    14    1
   14    14    15    1
   15    14    16    1
   16    14    17    1
@<TRIPOS>SUBSTRUCTURE
       1 MOL1            1 RESIDUE      1      MOL     
@<SCITEGIC>MOL_PROPERTY
VConf Rank
SciTegic.value.IntegerValue
351

@<SCITEGIC>MOL_PROPERTY
Conf_Id
SciTegic.value.IntegerValue
38

@<SCITEGIC>MOL_PROPERTY
Delta U+W
SciTegic.value.DoubleValue
0.000

@<SCITEGIC>MOL_PROPERTY
U+W
SciTegic.value.DoubleValue
-49.427

@<SCITEGIC>MOL_PROPERTY
Grad RMS
SciTegic.value.DoubleValue
0.000000

@<SCITEGIC>MOL_PROPERTY
U
SciTegic.value.DoubleValue
13.666

@<SCITEGIC>MOL_PROPERTY
W
SciTegic.value.DoubleValue
-63.093

@<SCITEGIC>MOL_PROPERTY
W(PB)
SciTegic.value.DoubleValue
-65.225

@<SCITEGIC>MOL_PROPERTY
W(SA)
SciTegic.value.DoubleValue
2.132

@<SCITEGIC>MOL_PROPERTY
Valence
SciTegic.value.DoubleValue
15.226

@<SCITEGIC>MOL_PROPERTY
Coulomb
SciTegic.value.DoubleValue
-1.822

@<SCITEGIC>MOL_PROPERTY
VdW
SciTegic.value.DoubleValue
0.261

@<SCITEGIC>MOL_PROPERTY
VdW6
SciTegic.value.DoubleValue
-4.165

@<SCITEGIC>MOL_PROPERTY
VdW12
SciTegic.value.DoubleValue
4.426

@<SCITEGIC>MOL_PROPERTY
Bond
SciTegic.value.DoubleValue
0.044

@<SCITEGIC>MOL_PROPERTY
Angle
SciTegic.value.DoubleValue
2.229

@<SCITEGIC>MOL_PROPERTY
Pdih
SciTegic.value.DoubleValue
12.953

@<SCITEGIC>MOL_PROPERTY
Idih
SciTegic.value.DoubleValue
0.000

@<SCITEGIC>MOL_PROPERTY
Tether
SciTegic.value.DoubleValue
0.000

@<TRIPOS>MOLECULE
guest-s20_confgen4.mol2 : confsearch ligand conformer 352
          17          16           1
SMALL
USER_CHARGES
 
@<TRIPOS>ATOM
       1    C1      19.727619   16.516325   20.582518 C.2        1 MOL1         0.6132
       2    O1      19.423105   16.738053   19.427128 O.co2      1 MOL1        -0.6749
       3    O2      19.277467   15.592022   21.230582 O.co2      1 MOL1        -0.6749
       4    C2      20.732007   17.442765   21.255212 C.3        1 MOL1        -0.1955
       5    H1      21.336490   17.918850   20.473814 H          1 MOL1         0.0733
       6    H2      21.410778   16.823499   21.852946 H          1 MOL1         0.0733
       7    C3      20.064510   18.482363   22.135229 C.2        1 MOL1        -0.1395
       8    H3      19.576855   18.092057   23.028009 H          1 MOL1         0.0816
       9    C4      20.049229   19.792338   21.870728 C.2        1 MOL1        -0.1394
      10    H4      20.534322   20.181577   20.976168 H          1 MOL1         0.0816
      11    C5      19.379729   20.827056   22.747340 C.3        1 MOL1        -0.1826
      12    H5      18.755521   21.487614   22.130443 H          1 MOL1         0.0736
      13    H6      18.708160   20.342578   23.469486 H          1 MOL1         0.0736
      14    C6      20.423736   21.668640   23.506845 C.3        1 MOL1        -0.2882
      15    H7      21.085960   22.195638   22.807446 H          1 MOL1         0.0749
      16    H8      19.932034   22.418071   24.140618 H          1 MOL1         0.0749
      17    H9      21.044004   21.031657   24.151144 H          1 MOL1         0.0749
@<TRIPOS>BOND
    1     1     2    1
    2     1     3    2
    3     1     4    1
    4     4     5    1
    5     4     6    1
    6     4     7    1
    7     7     8    1
    8     7     9    2
    9     9    10    1
   10     9    11    1
   11    11    12    1
   12    11    13    1
   13    11    14    1
   14    14    15    1
   15    14    16    1
   16    14    17    1
@<TRIPOS>SUBSTRUCTURE
       1 MOL1            1 RESIDUE      1      MOL     
@<SCITEGIC>MOL_PROPERTY
VConf Rank
SciTegic.value.IntegerValue
352

@<SCITEGIC>MOL_PROPERTY
Conf_Id
SciTegic.value.IntegerValue
35

@<SCITEGIC>MOL_PROPERTY
Delta U+W
SciTegic.value.DoubleValue
-0.102

@<SCITEGIC>MOL_PROPERTY
U+W
SciTegic.value.DoubleValue
-49.529

@<SCITEGIC>MOL_PROPERTY
Grad RMS
SciTegic.value.DoubleValue
0.000000

@<SCITEGIC>MOL_PROPERTY
U
SciTegic.value.DoubleValue
13.666

@<SCITEGIC>MOL_PROPERTY
W
SciTegic.value.DoubleValue
-63.195

@<SCITEGIC>MOL_PROPERTY
W(PB)
SciTegic.value.DoubleValue
-65.299

@<SCITEGIC>MOL_PROPERTY
W(SA)
SciTegic.value.DoubleValue
2.103

@<SCITEGIC>MOL_PROPERTY
Valence
SciTegic.value.DoubleValue
15.226

@<SCITEGIC>MOL_PROPERTY
Coulomb
SciTegic.value.DoubleValue
-1.822

@<SCITEGIC>MOL_PROPERTY
VdW
SciTegic.value.DoubleValue
0.261

@<SCITEGIC>MOL_PROPERTY
VdW6
SciTegic.value.DoubleValue
-4.165

@<SCITEGIC>MOL_PROPERTY
VdW12
SciTegic.value.DoubleValue
4.426

@<SCITEGIC>MOL_PROPERTY
Bond
SciTegic.value.DoubleValue
0.044

@<SCITEGIC>MOL_PROPERTY
Angle
SciTegic.value.DoubleValue
2.229

@<SCITEGIC>MOL_PROPERTY
Pdih
SciTegic.value.DoubleValue
12.953

@<SCITEGIC>MOL_PROPERTY
Idih
SciTegic.value.DoubleValue
0.000

@<SCITEGIC>MOL_PROPERTY
Tether
SciTegic.value.DoubleValue
0.000

@<TRIPOS>MOLECULE
guest-s20_confgen4.mol2 : confsearch ligand conformer 353
          17          16           1
SMALL
USER_CHARGES
 
@<TRIPOS>ATOM
       1    C1      22.618734   18.401081   23.777666 C.2        1 MOL1         0.6132
       2    O1      23.619802   18.611492   23.121494 O.co2      1 MOL1        -0.6749
       3    O2      22.496250   18.730442   24.941010 O.co2      1 MOL1        -0.6749
       4    C2      21.459342   17.676641   23.106332 C.3        1 MOL1        -0.1955
       5    H1      20.857134   17.196213   23.886793 H          1 MOL1         0.0733
       6    H2      21.878885   16.875585   22.486814 H          1 MOL1         0.0733
       7    C3      20.610923   18.602637   22.255378 C.2        1 MOL1        -0.1395
       8    H3      21.110125   18.989384   21.368634 H          1 MOL1         0.0816
       9    C4      19.348863   18.939945   22.548872 C.2        1 MOL1        -0.1394
      10    H4      18.883723   18.536379   23.447684 H          1 MOL1         0.0816
      11    C5      18.445709   19.861398   21.746484 C.3        1 MOL1        -0.1826
      12    H5      17.533707   19.315131   21.470170 H          1 MOL1         0.0736
      13    H6      18.112172   20.684667   22.392629 H          1 MOL1         0.0736
      14    C6      19.084828   20.451588   20.470071 C.3        1 MOL1        -0.2882
      15    H7      19.382186   19.656059   19.774289 H          1 MOL1         0.0749
      16    H8      18.372245   21.104366   19.949364 H          1 MOL1         0.0749
      17    H9      19.972237   21.050113   20.714535 H          1 MOL1         0.0749
@<TRIPOS>BOND
    1     1     2    1
    2     1     3    2
    3     1     4    1
    4     4     5    1
    5     4     6    1
    6     4     7    1
    7     7     8    1
    8     7     9    2
    9     9    10    1
   10     9    11    1
   11    11    12    1
   12    11    13    1
   13    11    14    1
   14    14    15    1
   15    14    16    1
   16    14    17    1
@<TRIPOS>SUBSTRUCTURE
       1 MOL1            1 RESIDUE      1      MOL     
@<SCITEGIC>MOL_PROPERTY
VConf Rank
SciTegic.value.IntegerValue
353

@<SCITEGIC>MOL_PROPERTY
Conf_Id
SciTegic.value.IntegerValue
19

@<SCITEGIC>MOL_PROPERTY
Delta U+W
SciTegic.value.DoubleValue
-0.496

@<SCITEGIC>MOL_PROPERTY
U+W
SciTegic.value.DoubleValue
-49.923

@<SCITEGIC>MOL_PROPERTY
Grad RMS
SciTegic.value.DoubleValue
0.000000

@<SCITEGIC>MOL_PROPERTY
U
SciTegic.value.DoubleValue
13.863

@<SCITEGIC>MOL_PROPERTY
W
SciTegic.value.DoubleValue
-63.786

@<SCITEGIC>MOL_PROPERTY
W(PB)
SciTegic.value.DoubleValue
-65.856

@<SCITEGIC>MOL_PROPERTY
W(SA)
SciTegic.value.DoubleValue
2.070

@<SCITEGIC>MOL_PROPERTY
Valence
SciTegic.value.DoubleValue
14.117

@<SCITEGIC>MOL_PROPERTY
Coulomb
SciTegic.value.DoubleValue
-1.228

@<SCITEGIC>MOL_PROPERTY
VdW
SciTegic.value.DoubleValue
0.974

@<SCITEGIC>MOL_PROPERTY
VdW6
SciTegic.value.DoubleValue
-4.885

@<SCITEGIC>MOL_PROPERTY
VdW12
SciTegic.value.DoubleValue
5.859

@<SCITEGIC>MOL_PROPERTY
Bond
SciTegic.value.DoubleValue
0.094

@<SCITEGIC>MOL_PROPERTY
Angle
SciTegic.value.DoubleValue
2.818

@<SCITEGIC>MOL_PROPERTY
Pdih
SciTegic.value.DoubleValue
11.205

@<SCITEGIC>MOL_PROPERTY
Idih
SciTegic.value.DoubleValue
0.000

@<SCITEGIC>MOL_PROPERTY
Tether
SciTegic.value.DoubleValue
0.000

@<TRIPOS>MOLECULE
guest-s20_confgen4.mol2 : confsearch ligand conformer 354
          17          16           1
SMALL
USER_CHARGES
 
@<TRIPOS>ATOM
       1    C1      18.701927   21.321316   23.397965 C.2        1 MOL1         0.6132
       2    O1      17.544499   21.032582   23.166005 O.co2      1 MOL1        -0.6749
       3    O2      19.093600   21.709521   24.480965 O.co2      1 MOL1        -0.6749
       4    C2      19.716738   21.201172   22.268561 C.3        1 MOL1        -0.1955
       5    H1      20.372748   22.078165   22.313482 H          1 MOL1         0.0733
       6    H2      19.177012   21.252595   21.315300 H          1 MOL1         0.0733
       7    C3      20.539394   19.930070   22.359659 C.2        1 MOL1        -0.1395
       8    H3      21.221819   19.877579   23.207455 H          1 MOL1         0.0816
       9    C4      20.458755   18.919081   21.489248 C.2        1 MOL1        -0.1394
      10    H4      19.772457   18.969917   20.644577 H          1 MOL1         0.0816
      11    C5      21.277861   17.651206   21.583556 C.3        1 MOL1        -0.1826
      12    H5      21.728074   17.426882   20.607078 H          1 MOL1         0.0736
      13    H6      22.108163   17.781730   22.291207 H          1 MOL1         0.0736
      14    C6      20.406970   16.461973   22.033296 C.3        1 MOL1        -0.2882
      15    H7      19.589881   16.283773   21.321934 H          1 MOL1         0.0749
      16    H8      21.006361   15.544758   22.100489 H          1 MOL1         0.0749
      17    H9      19.965318   16.653688   23.020144 H          1 MOL1         0.0749
@<TRIPOS>BOND
    1     1     2    1
    2     1     3    2
    3     1     4    1
    4     4     5    1
    5     4     6    1
    6     4     7    1
    7     7     8    1
    8     7     9    2
    9     9    10    1
   10     9    11    1
   11    11    12    1
   12    11    13    1
   13    11    14    1
   14    14    15    1
   15    14    16    1
   16    14    17    1
@<TRIPOS>SUBSTRUCTURE
       1 MOL1            1 RESIDUE      1      MOL     
@<SCITEGIC>MOL_PROPERTY
VConf Rank
SciTegic.value.IntegerValue
354

@<SCITEGIC>MOL_PROPERTY
Conf_Id
SciTegic.value.IntegerValue
7

@<SCITEGIC>MOL_PROPERTY
Delta U+W
SciTegic.value.DoubleValue
-0.041

@<SCITEGIC>MOL_PROPERTY
U+W
SciTegic.value.DoubleValue
-49.468

@<SCITEGIC>MOL_PROPERTY
Grad RMS
SciTegic.value.DoubleValue
0.000000

@<SCITEGIC>MOL_PROPERTY
U
SciTegic.value.DoubleValue
14.121

@<SCITEGIC>MOL_PROPERTY
W
SciTegic.value.DoubleValue
-63.589

@<SCITEGIC>MOL_PROPERTY
W(PB)
SciTegic.value.DoubleValue
-65.660

@<SCITEGIC>MOL_PROPERTY
W(SA)
SciTegic.value.DoubleValue
2.071

@<SCITEGIC>MOL_PROPERTY
Valence
SciTegic.value.DoubleValue
15.230

@<SCITEGIC>MOL_PROPERTY
Coulomb
SciTegic.value.DoubleValue
-1.333

@<SCITEGIC>MOL_PROPERTY
VdW
SciTegic.value.DoubleValue
0.224

@<SCITEGIC>MOL_PROPERTY
VdW6
SciTegic.value.DoubleValue
-4.212

@<SCITEGIC>MOL_PROPERTY
VdW12
SciTegic.value.DoubleValue
4.436

@<SCITEGIC>MOL_PROPERTY
Bond
SciTegic.value.DoubleValue
0.044

@<SCITEGIC>MOL_PROPERTY
Angle
SciTegic.value.DoubleValue
2.230

@<SCITEGIC>MOL_PROPERTY
Pdih
SciTegic.value.DoubleValue
12.956

@<SCITEGIC>MOL_PROPERTY
Idih
SciTegic.value.DoubleValue
0.000

@<SCITEGIC>MOL_PROPERTY
Tether
SciTegic.value.DoubleValue
0.000

@<TRIPOS>MOLECULE
guest-s20_confgen4.mol2 : confsearch ligand conformer 355
          17          16           1
SMALL
USER_CHARGES
 
@<TRIPOS>ATOM
       1    C1      22.721007   19.181307   23.217160 C.2        1 MOL1         0.6132
       2    O1      22.844091   20.306775   23.658937 O.co2      1 MOL1        -0.6749
       3    O2      23.487387   18.688286   22.413000 O.co2      1 MOL1        -0.6749
       4    C2      21.557887   18.331651   23.719965 C.3        1 MOL1        -0.1955
       5    H1      21.354811   18.620017   24.757931 H          1 MOL1         0.0733
       6    H2      21.895133   17.289252   23.757230 H          1 MOL1         0.0733
       7    C3      20.275865   18.424353   22.904672 C.2        1 MOL1        -0.1395
       8    H3      19.458678   17.810090   23.280746 H          1 MOL1         0.0816
       9    C4      20.091266   19.173947   21.811498 C.2        1 MOL1        -0.1394
      10    H4      20.891538   19.797839   21.415195 H          1 MOL1         0.0816
      11    C5      18.794365   19.229361   21.035021 C.3        1 MOL1        -0.1826
      12    H5      18.999257   19.109055   19.962610 H          1 MOL1         0.0736
      13    H6      18.135964   18.398982   21.325079 H          1 MOL1         0.0736
      14    C6      18.064106   20.565680   21.271689 C.3        1 MOL1        -0.2882
      15    H7      17.124658   20.600951   20.704897 H          1 MOL1         0.0749
      16    H8      17.825606   20.696413   22.335466 H          1 MOL1         0.0749
      17    H9      18.685787   21.413115   20.954160 H          1 MOL1         0.0749
@<TRIPOS>BOND
    1     1     2    1
    2     1     3    2
    3     1     4    1
    4     4     5    1
    5     4     6    1
    6     4     7    1
    7     7     8    1
    8     7     9    2
    9     9    10    1
   10     9    11    1
   11    11    12    1
   12    11    13    1
   13    11    14    1
   14    14    15    1
   15    14    16    1
   16    14    17    1
@<TRIPOS>SUBSTRUCTURE
       1 MOL1            1 RESIDUE      1      MOL     
@<SCITEGIC>MOL_PROPERTY
VConf Rank
SciTegic.value.IntegerValue
355

@<SCITEGIC>MOL_PROPERTY
Conf_Id
SciTegic.value.IntegerValue
39

@<SCITEGIC>MOL_PROPERTY
Delta U+W
SciTegic.value.DoubleValue
-0.422

@<SCITEGIC>MOL_PROPERTY
U+W
SciTegic.value.DoubleValue
-49.849

@<SCITEGIC>MOL_PROPERTY
Grad RMS
SciTegic.value.DoubleValue
0.000000

@<SCITEGIC>MOL_PROPERTY
U
SciTegic.value.DoubleValue
14.465

@<SCITEGIC>MOL_PROPERTY
W
SciTegic.value.DoubleValue
-64.314

@<SCITEGIC>MOL_PROPERTY
W(PB)
SciTegic.value.DoubleValue
-66.406

@<SCITEGIC>MOL_PROPERTY
W(SA)
SciTegic.value.DoubleValue
2.093

@<SCITEGIC>MOL_PROPERTY
Valence
SciTegic.value.DoubleValue
14.072

@<SCITEGIC>MOL_PROPERTY
Coulomb
SciTegic.value.DoubleValue
-0.199

@<SCITEGIC>MOL_PROPERTY
VdW
SciTegic.value.DoubleValue
0.592

@<SCITEGIC>MOL_PROPERTY
VdW6
SciTegic.value.DoubleValue
-5.019

@<SCITEGIC>MOL_PROPERTY
VdW12
SciTegic.value.DoubleValue
5.611

@<SCITEGIC>MOL_PROPERTY
Bond
SciTegic.value.DoubleValue
0.085

@<SCITEGIC>MOL_PROPERTY
Angle
SciTegic.value.DoubleValue
2.748

@<SCITEGIC>MOL_PROPERTY
Pdih
SciTegic.value.DoubleValue
11.238

@<SCITEGIC>MOL_PROPERTY
Idih
SciTegic.value.DoubleValue
0.001

@<SCITEGIC>MOL_PROPERTY
Tether
SciTegic.value.DoubleValue
0.000

@<TRIPOS>MOLECULE
guest-s20_confgen4.mol2 : confsearch ligand conformer 356
          17          16           1
SMALL
USER_CHARGES
 
@<TRIPOS>ATOM
       1    C1      16.953136   19.388759   21.897496 C.2        1 MOL1         0.6132
       2    O1      16.355423   18.357799   22.135869 O.co2      1 MOL1        -0.6749
       3    O2      16.641103   20.156206   21.008407 O.co2      1 MOL1        -0.6749
       4    C2      18.155096   19.738746   22.764908 C.3        1 MOL1        -0.1955
       5    H1      17.903394   19.489711   23.802278 H          1 MOL1         0.0733
       6    H2      18.304134   20.824404   22.722771 H          1 MOL1         0.0733
       7    C3      19.411051   19.000753   22.342191 C.2        1 MOL1        -0.1395
       8    H3      19.395886   17.923995   22.508216 H          1 MOL1         0.0816
       9    C4      20.481062   19.589149   21.798967 C.2        1 MOL1        -0.1394
      10    H4      20.494390   20.665484   21.630487 H          1 MOL1         0.0816
      11    C5      21.731083   18.851126   21.374593 C.3        1 MOL1        -0.1826
      12    H5      21.543837   17.769196   21.334728 H          1 MOL1         0.0736
      13    H6      22.016884   19.159143   20.359715 H          1 MOL1         0.0736
      14    C6      22.895925   19.131759   22.343844 C.3        1 MOL1        -0.2882
      15    H7      22.642621   18.807856   23.361943 H          1 MOL1         0.0749
      16    H8      23.800244   18.594118   22.030417 H          1 MOL1         0.0749
      17    H9      23.130445   20.203904   22.374412 H          1 MOL1         0.0749
@<TRIPOS>BOND
    1     1     2    1
    2     1     3    2
    3     1     4    1
    4     4     5    1
    5     4     6    1
    6     4     7    1
    7     7     8    1
    8     7     9    2
    9     9    10    1
   10     9    11    1
   11    11    12    1
   12    11    13    1
   13    11    14    1
   14    14    15    1
   15    14    16    1
   16    14    17    1
@<TRIPOS>SUBSTRUCTURE
       1 MOL1            1 RESIDUE      1      MOL     
@<SCITEGIC>MOL_PROPERTY
VConf Rank
SciTegic.value.IntegerValue
356

@<SCITEGIC>MOL_PROPERTY
Conf_Id
SciTegic.value.IntegerValue
38

@<SCITEGIC>MOL_PROPERTY
Delta U+W
SciTegic.value.DoubleValue
0.000

@<SCITEGIC>MOL_PROPERTY
U+W
SciTegic.value.DoubleValue
-49.427

@<SCITEGIC>MOL_PROPERTY
Grad RMS
SciTegic.value.DoubleValue
0.000000

@<SCITEGIC>MOL_PROPERTY
U
SciTegic.value.DoubleValue
13.666

@<SCITEGIC>MOL_PROPERTY
W
SciTegic.value.DoubleValue
-63.093

@<SCITEGIC>MOL_PROPERTY
W(PB)
SciTegic.value.DoubleValue
-65.225

@<SCITEGIC>MOL_PROPERTY
W(SA)
SciTegic.value.DoubleValue
2.132

@<SCITEGIC>MOL_PROPERTY
Valence
SciTegic.value.DoubleValue
15.226

@<SCITEGIC>MOL_PROPERTY
Coulomb
SciTegic.value.DoubleValue
-1.822

@<SCITEGIC>MOL_PROPERTY
VdW
SciTegic.value.DoubleValue
0.261

@<SCITEGIC>MOL_PROPERTY
VdW6
SciTegic.value.DoubleValue
-4.165

@<SCITEGIC>MOL_PROPERTY
VdW12
SciTegic.value.DoubleValue
4.426

@<SCITEGIC>MOL_PROPERTY
Bond
SciTegic.value.DoubleValue
0.044

@<SCITEGIC>MOL_PROPERTY
Angle
SciTegic.value.DoubleValue
2.229

@<SCITEGIC>MOL_PROPERTY
Pdih
SciTegic.value.DoubleValue
12.953

@<SCITEGIC>MOL_PROPERTY
Idih
SciTegic.value.DoubleValue
0.000

@<SCITEGIC>MOL_PROPERTY
Tether
SciTegic.value.DoubleValue
0.000

@<TRIPOS>MOLECULE
guest-s20_confgen4.mol2 : confsearch ligand conformer 357
          17          16           1
SMALL
USER_CHARGES
 
@<TRIPOS>ATOM
       1    C1      22.080795   21.545172   21.182826 C.2        1 MOL1         0.6132
       2    O1      21.590534   22.628522   21.433455 O.co2      1 MOL1        -0.6749
       3    O2      22.738615   21.319636   20.186148 O.co2      1 MOL1        -0.6749
       4    C2      21.864884   20.408261   22.172988 C.3        1 MOL1        -0.1955
       5    H1      21.651594   20.845221   23.155949 H          1 MOL1         0.0733
       6    H2      22.809425   19.859593   22.264164 H          1 MOL1         0.0733
       7    C3      20.755297   19.467230   21.744009 C.2        1 MOL1        -0.1395
       8    H3      20.966682   18.873569   20.855143 H          1 MOL1         0.0816
       9    C4      19.585998   19.345496   22.379736 C.2        1 MOL1        -0.1394
      10    H4      19.374039   19.941751   23.266649 H          1 MOL1         0.0816
      11    C5      18.479183   18.409501   21.948233 C.3        1 MOL1        -0.1826
      12    H5      17.523485   18.950532   21.926818 H          1 MOL1         0.0736
      13    H6      18.659004   18.046611   20.926864 H          1 MOL1         0.0736
      14    C6      18.367050   17.206273   22.904648 C.3        1 MOL1        -0.2882
      15    H7      18.148972   17.538428   23.928144 H          1 MOL1         0.0749
      16    H8      17.561908   16.531110   22.586863 H          1 MOL1         0.0749
      17    H9      19.304062   16.634198   22.923022 H          1 MOL1         0.0749
@<TRIPOS>BOND
    1     1     2    1
    2     1     3    2
    3     1     4    1
    4     4     5    1
    5     4     6    1
    6     4     7    1
    7     7     8    1
    8     7     9    2
    9     9    10    1
   10     9    11    1
   11    11    12    1
   12    11    13    1
   13    11    14    1
   14    14    15    1
   15    14    16    1
   16    14    17    1
@<TRIPOS>SUBSTRUCTURE
       1 MOL1            1 RESIDUE      1      MOL     
@<SCITEGIC>MOL_PROPERTY
VConf Rank
SciTegic.value.IntegerValue
357

@<SCITEGIC>MOL_PROPERTY
Conf_Id
SciTegic.value.IntegerValue
35

@<SCITEGIC>MOL_PROPERTY
Delta U+W
SciTegic.value.DoubleValue
-0.102

@<SCITEGIC>MOL_PROPERTY
U+W
SciTegic.value.DoubleValue
-49.529

@<SCITEGIC>MOL_PROPERTY
Grad RMS
SciTegic.value.DoubleValue
0.000000

@<SCITEGIC>MOL_PROPERTY
U
SciTegic.value.DoubleValue
13.666

@<SCITEGIC>MOL_PROPERTY
W
SciTegic.value.DoubleValue
-63.195

@<SCITEGIC>MOL_PROPERTY
W(PB)
SciTegic.value.DoubleValue
-65.299

@<SCITEGIC>MOL_PROPERTY
W(SA)
SciTegic.value.DoubleValue
2.103

@<SCITEGIC>MOL_PROPERTY
Valence
SciTegic.value.DoubleValue
15.226

@<SCITEGIC>MOL_PROPERTY
Coulomb
SciTegic.value.DoubleValue
-1.822

@<SCITEGIC>MOL_PROPERTY
VdW
SciTegic.value.DoubleValue
0.261

@<SCITEGIC>MOL_PROPERTY
VdW6
SciTegic.value.DoubleValue
-4.165

@<SCITEGIC>MOL_PROPERTY
VdW12
SciTegic.value.DoubleValue
4.426

@<SCITEGIC>MOL_PROPERTY
Bond
SciTegic.value.DoubleValue
0.044

@<SCITEGIC>MOL_PROPERTY
Angle
SciTegic.value.DoubleValue
2.229

@<SCITEGIC>MOL_PROPERTY
Pdih
SciTegic.value.DoubleValue
12.953

@<SCITEGIC>MOL_PROPERTY
Idih
SciTegic.value.DoubleValue
0.000

@<SCITEGIC>MOL_PROPERTY
Tether
SciTegic.value.DoubleValue
0.000

@<TRIPOS>MOLECULE
guest-s20_confgen4.mol2 : confsearch ligand conformer 358
          17          16           1
SMALL
USER_CHARGES
 
@<TRIPOS>ATOM
       1    C1      21.135015   16.725644   23.700414 C.2        1 MOL1         0.6132
       2    O1      20.175818   16.101308   24.109213 O.co2      1 MOL1        -0.6749
       3    O2      22.096309   16.207623   23.167107 O.co2      1 MOL1        -0.6749
       4    C2      21.134531   18.238599   23.875512 C.3        1 MOL1        -0.1955
       5    H1      22.175107   18.584671   23.870930 H          1 MOL1         0.0733
       6    H2      20.727501   18.460475   24.868793 H          1 MOL1         0.0733
       7    C3      20.319774   18.946096   22.809198 C.2        1 MOL1        -0.1395
       8    H3      19.247574   18.765360   22.862222 H          1 MOL1         0.0816
       9    C4      20.849282   19.731198   21.862653 C.2        1 MOL1        -0.1394
      10    H4      21.927610   19.885188   21.838539 H          1 MOL1         0.0816
      11    C5      20.095907   20.464805   20.765914 C.3        1 MOL1        -0.1826
      12    H5      20.311717   21.539112   20.842052 H          1 MOL1         0.0736
      13    H6      20.493037   20.152491   19.790583 H          1 MOL1         0.0736
      14    C6      18.565264   20.257265   20.775129 C.3        1 MOL1        -0.2882
      15    H7      18.125490   20.609871   21.717291 H          1 MOL1         0.0749
      16    H8      18.096113   20.816540   19.955289 H          1 MOL1         0.0749
      17    H9      18.310815   19.196875   20.647382 H          1 MOL1         0.0749
@<TRIPOS>BOND
    1     1     2    1
    2     1     3    2
    3     1     4    1
    4     4     5    1
    5     4     6    1
    6     4     7    1
    7     7     8    1
    8     7     9    2
    9     9    10    1
   10     9    11    1
   11    11    12    1
   12    11    13    1
   13    11    14    1
   14    14    15    1
   15    14    16    1
   16    14    17    1
@<TRIPOS>SUBSTRUCTURE
       1 MOL1            1 RESIDUE      1      MOL     
@<SCITEGIC>MOL_PROPERTY
VConf Rank
SciTegic.value.IntegerValue
358

@<SCITEGIC>MOL_PROPERTY
Conf_Id
SciTegic.value.IntegerValue
19

@<SCITEGIC>MOL_PROPERTY
Delta U+W
SciTegic.value.DoubleValue
-0.496

@<SCITEGIC>MOL_PROPERTY
U+W
SciTegic.value.DoubleValue
-49.923

@<SCITEGIC>MOL_PROPERTY
Grad RMS
SciTegic.value.DoubleValue
0.000000

@<SCITEGIC>MOL_PROPERTY
U
SciTegic.value.DoubleValue
13.863

@<SCITEGIC>MOL_PROPERTY
W
SciTegic.value.DoubleValue
-63.786

@<SCITEGIC>MOL_PROPERTY
W(PB)
SciTegic.value.DoubleValue
-65.856

@<SCITEGIC>MOL_PROPERTY
W(SA)
SciTegic.value.DoubleValue
2.070

@<SCITEGIC>MOL_PROPERTY
Valence
SciTegic.value.DoubleValue
14.117

@<SCITEGIC>MOL_PROPERTY
Coulomb
SciTegic.value.DoubleValue
-1.228

@<SCITEGIC>MOL_PROPERTY
VdW
SciTegic.value.DoubleValue
0.974

@<SCITEGIC>MOL_PROPERTY
VdW6
SciTegic.value.DoubleValue
-4.885

@<SCITEGIC>MOL_PROPERTY
VdW12
SciTegic.value.DoubleValue
5.859

@<SCITEGIC>MOL_PROPERTY
Bond
SciTegic.value.DoubleValue
0.094

@<SCITEGIC>MOL_PROPERTY
Angle
SciTegic.value.DoubleValue
2.818

@<SCITEGIC>MOL_PROPERTY
Pdih
SciTegic.value.DoubleValue
11.205

@<SCITEGIC>MOL_PROPERTY
Idih
SciTegic.value.DoubleValue
0.000

@<SCITEGIC>MOL_PROPERTY
Tether
SciTegic.value.DoubleValue
0.000

@<TRIPOS>MOLECULE
guest-s20_confgen4.mol2 : confsearch ligand conformer 359
          17          16           1
SMALL
USER_CHARGES
 
@<TRIPOS>ATOM
       1    C1      18.967493   21.167493   23.879240 C.2        1 MOL1         0.6132
       2    O1      18.300590   20.526007   24.666990 O.co2      1 MOL1        -0.6749
       3    O2      19.701020   22.079607   24.206330 O.co2      1 MOL1        -0.6749
       4    C2      18.872327   20.818202   22.399792 C.3        1 MOL1        -0.1955
       5    H1      18.836600   21.757456   21.835867 H          1 MOL1         0.0733
       6    H2      17.918406   20.304852   22.229033 H          1 MOL1         0.0733
       7    C3      20.038058   19.970720   21.926920 C.2        1 MOL1        -0.1395
       8    H3      21.005369   20.472210   21.921137 H          1 MOL1         0.0816
       9    C4      19.932404   18.694705   21.543722 C.2        1 MOL1        -0.1394
      10    H4      18.965743   18.192204   21.554609 H          1 MOL1         0.0816
      11    C5      21.096579   17.850532   21.075316 C.3        1 MOL1        -0.1826
      12    H5      20.830798   17.337753   20.141003 H          1 MOL1         0.0736
      13    H6      21.965443   18.484546   20.851019 H          1 MOL1         0.0736
      14    C6      21.487856   16.807774   22.140468 C.3        1 MOL1        -0.2882
      15    H7      20.648008   16.134391   22.356425 H          1 MOL1         0.0749
      16    H8      22.333277   16.198331   21.795636 H          1 MOL1         0.0749
      17    H9      21.781607   17.299225   23.077414 H          1 MOL1         0.0749
@<TRIPOS>BOND
    1     1     2    1
    2     1     3    2
    3     1     4    1
    4     4     5    1
    5     4     6    1
    6     4     7    1
    7     7     8    1
    8     7     9    2
    9     9    10    1
   10     9    11    1
   11    11    12    1
   12    11    13    1
   13    11    14    1
   14    14    15    1
   15    14    16    1
   16    14    17    1
@<TRIPOS>SUBSTRUCTURE
       1 MOL1            1 RESIDUE      1      MOL     
@<SCITEGIC>MOL_PROPERTY
VConf Rank
SciTegic.value.IntegerValue
359

@<SCITEGIC>MOL_PROPERTY
Conf_Id
SciTegic.value.IntegerValue
7

@<SCITEGIC>MOL_PROPERTY
Delta U+W
SciTegic.value.DoubleValue
-0.041

@<SCITEGIC>MOL_PROPERTY
U+W
SciTegic.value.DoubleValue
-49.468

@<SCITEGIC>MOL_PROPERTY
Grad RMS
SciTegic.value.DoubleValue
0.000000

@<SCITEGIC>MOL_PROPERTY
U
SciTegic.value.DoubleValue
14.121

@<SCITEGIC>MOL_PROPERTY
W
SciTegic.value.DoubleValue
-63.589

@<SCITEGIC>MOL_PROPERTY
W(PB)
SciTegic.value.DoubleValue
-65.660

@<SCITEGIC>MOL_PROPERTY
W(SA)
SciTegic.value.DoubleValue
2.071

@<SCITEGIC>MOL_PROPERTY
Valence
SciTegic.value.DoubleValue
15.230

@<SCITEGIC>MOL_PROPERTY
Coulomb
SciTegic.value.DoubleValue
-1.333

@<SCITEGIC>MOL_PROPERTY
VdW
SciTegic.value.DoubleValue
0.224

@<SCITEGIC>MOL_PROPERTY
VdW6
SciTegic.value.DoubleValue
-4.212

@<SCITEGIC>MOL_PROPERTY
VdW12
SciTegic.value.DoubleValue
4.436

@<SCITEGIC>MOL_PROPERTY
Bond
SciTegic.value.DoubleValue
0.044

@<SCITEGIC>MOL_PROPERTY
Angle
SciTegic.value.DoubleValue
2.230

@<SCITEGIC>MOL_PROPERTY
Pdih
SciTegic.value.DoubleValue
12.956

@<SCITEGIC>MOL_PROPERTY
Idih
SciTegic.value.DoubleValue
0.000

@<SCITEGIC>MOL_PROPERTY
Tether
SciTegic.value.DoubleValue
0.000

@<TRIPOS>MOLECULE
guest-s20_confgen4.mol2 : confsearch ligand conformer 360
          17          16           1
SMALL
USER_CHARGES
 
@<TRIPOS>ATOM
       1    C1      18.182100   20.164756   24.009021 C.2        1 MOL1         0.6132
       2    O1      17.188905   20.063164   23.316029 O.co2      1 MOL1        -0.6749
       3    O2      18.505916   21.192285   24.571522 O.co2      1 MOL1        -0.6749
       4    C2      19.054325   18.928651   24.206112 C.3        1 MOL1        -0.1955
       5    H1      18.401679   18.048339   24.176583 H          1 MOL1         0.0733
       6    H2      19.464549   18.965762   25.222015 H          1 MOL1         0.0733
       7    C3      20.187369   18.757435   23.204227 C.2        1 MOL1        -0.1395
       8    H3      20.797418   17.869103   23.363138 H          1 MOL1         0.0816
       9    C4      20.471080   19.581970   22.189019 C.2        1 MOL1        -0.1394
      10    H4      19.876400   20.476463   22.007438 H          1 MOL1         0.0816
      11    C5      21.612463   19.366478   21.220128 C.3        1 MOL1        -0.1826
      12    H5      22.183674   20.297912   21.107570 H          1 MOL1         0.0736
      13    H6      22.311323   18.613416   21.609545 H          1 MOL1         0.0736
      14    C6      21.091058   18.914003   19.842290 C.3        1 MOL1        -0.2882
      15    H7      21.923235   18.760527   19.143014 H          1 MOL1         0.0749
      16    H8      20.537482   17.969474   19.926032 H          1 MOL1         0.0749
      17    H9      20.418430   19.667336   19.411571 H          1 MOL1         0.0749
@<TRIPOS>BOND
    1     1     2    1
    2     1     3    2
    3     1     4    1
    4     4     5    1
    5     4     6    1
    6     4     7    1
    7     7     8    1
    8     7     9    2
    9     9    10    1
   10     9    11    1
   11    11    12    1
   12    11    13    1
   13    11    14    1
   14    14    15    1
   15    14    16    1
   16    14    17    1
@<TRIPOS>SUBSTRUCTURE
       1 MOL1            1 RESIDUE      1      MOL     
@<SCITEGIC>MOL_PROPERTY
VConf Rank
SciTegic.value.IntegerValue
360

@<SCITEGIC>MOL_PROPERTY
Conf_Id
SciTegic.value.IntegerValue
39

@<SCITEGIC>MOL_PROPERTY
Delta U+W
SciTegic.value.DoubleValue
-0.422

@<SCITEGIC>MOL_PROPERTY
U+W
SciTegic.value.DoubleValue
-49.849

@<SCITEGIC>MOL_PROPERTY
Grad RMS
SciTegic.value.DoubleValue
0.000000

@<SCITEGIC>MOL_PROPERTY
U
SciTegic.value.DoubleValue
14.465

@<SCITEGIC>MOL_PROPERTY
W
SciTegic.value.DoubleValue
-64.314

@<SCITEGIC>MOL_PROPERTY
W(PB)
SciTegic.value.DoubleValue
-66.406

@<SCITEGIC>MOL_PROPERTY
W(SA)
SciTegic.value.DoubleValue
2.093

@<SCITEGIC>MOL_PROPERTY
Valence
SciTegic.value.DoubleValue
14.072

@<SCITEGIC>MOL_PROPERTY
Coulomb
SciTegic.value.DoubleValue
-0.199

@<SCITEGIC>MOL_PROPERTY
VdW
SciTegic.value.DoubleValue
0.592

@<SCITEGIC>MOL_PROPERTY
VdW6
SciTegic.value.DoubleValue
-5.019

@<SCITEGIC>MOL_PROPERTY
VdW12
SciTegic.value.DoubleValue
5.611

@<SCITEGIC>MOL_PROPERTY
Bond
SciTegic.value.DoubleValue
0.085

@<SCITEGIC>MOL_PROPERTY
Angle
SciTegic.value.DoubleValue
2.748

@<SCITEGIC>MOL_PROPERTY
Pdih
SciTegic.value.DoubleValue
11.238

@<SCITEGIC>MOL_PROPERTY
Idih
SciTegic.value.DoubleValue
0.001

@<SCITEGIC>MOL_PROPERTY
Tether
SciTegic.value.DoubleValue
0.000

@<TRIPOS>MOLECULE
guest-s20_confgen4.mol2 : confsearch ligand conformer 361
          17          16           1
SMALL
USER_CHARGES
 
@<TRIPOS>ATOM
       1    C1      19.093269   16.563979   20.823737 C.2        1 MOL1         0.6132
       2    O1      19.920792   15.684602   20.686393 O.co2      1 MOL1        -0.6749
       3    O2      18.232587   16.811020   20.002144 O.co2      1 MOL1        -0.6749
       4    C2      19.135643   17.396986   22.098063 C.3        1 MOL1        -0.1955
       5    H1      19.345686   16.719833   22.934039 H          1 MOL1         0.0733
       6    H2      18.136346   17.815644   22.267685 H          1 MOL1         0.0733
       7    C3      20.181969   18.493639   22.040616 C.2        1 MOL1        -0.1395
       8    H3      21.215931   18.150014   22.033837 H          1 MOL1         0.0816
       9    C4      19.899949   19.799334   21.997566 C.2        1 MOL1        -0.1394
      10    H4      18.865768   20.142139   22.001367 H          1 MOL1         0.0816
      11    C5      20.944548   20.891308   21.936501 C.3        1 MOL1        -0.1826
      12    H5      21.926012   20.470358   21.678139 H          1 MOL1         0.0736
      13    H6      20.688633   21.605080   21.141786 H          1 MOL1         0.0736
      14    C6      21.047029   21.635606   23.282079 C.3        1 MOL1        -0.2882
      15    H7      21.327530   20.945675   24.088872 H          1 MOL1         0.0749
      16    H8      21.806036   22.427078   23.231427 H          1 MOL1         0.0749
      17    H9      20.087987   22.099815   23.546990 H          1 MOL1         0.0749
@<TRIPOS>BOND
    1     1     2    1
    2     1     3    2
    3     1     4    1
    4     4     5    1
    5     4     6    1
    6     4     7    1
    7     7     8    1
    8     7     9    2
    9     9    10    1
   10     9    11    1
   11    11    12    1
   12    11    13    1
   13    11    14    1
   14    14    15    1
   15    14    16    1
   16    14    17    1
@<TRIPOS>SUBSTRUCTURE
       1 MOL1            1 RESIDUE      1      MOL     
@<SCITEGIC>MOL_PROPERTY
VConf Rank
SciTegic.value.IntegerValue
361

@<SCITEGIC>MOL_PROPERTY
Conf_Id
SciTegic.value.IntegerValue
38

@<SCITEGIC>MOL_PROPERTY
Delta U+W
SciTegic.value.DoubleValue
0.000

@<SCITEGIC>MOL_PROPERTY
U+W
SciTegic.value.DoubleValue
-49.427

@<SCITEGIC>MOL_PROPERTY
Grad RMS
SciTegic.value.DoubleValue
0.000000

@<SCITEGIC>MOL_PROPERTY
U
SciTegic.value.DoubleValue
13.666

@<SCITEGIC>MOL_PROPERTY
W
SciTegic.value.DoubleValue
-63.093

@<SCITEGIC>MOL_PROPERTY
W(PB)
SciTegic.value.DoubleValue
-65.225

@<SCITEGIC>MOL_PROPERTY
W(SA)
SciTegic.value.DoubleValue
2.132

@<SCITEGIC>MOL_PROPERTY
Valence
SciTegic.value.DoubleValue
15.226

@<SCITEGIC>MOL_PROPERTY
Coulomb
SciTegic.value.DoubleValue
-1.822

@<SCITEGIC>MOL_PROPERTY
VdW
SciTegic.value.DoubleValue
0.261

@<SCITEGIC>MOL_PROPERTY
VdW6
SciTegic.value.DoubleValue
-4.165

@<SCITEGIC>MOL_PROPERTY
VdW12
SciTegic.value.DoubleValue
4.426

@<SCITEGIC>MOL_PROPERTY
Bond
SciTegic.value.DoubleValue
0.044

@<SCITEGIC>MOL_PROPERTY
Angle
SciTegic.value.DoubleValue
2.229

@<SCITEGIC>MOL_PROPERTY
Pdih
SciTegic.value.DoubleValue
12.953

@<SCITEGIC>MOL_PROPERTY
Idih
SciTegic.value.DoubleValue
0.000

@<SCITEGIC>MOL_PROPERTY
Tether
SciTegic.value.DoubleValue
0.000

@<TRIPOS>MOLECULE
guest-s20_confgen4.mol2 : confsearch ligand conformer 362
          17          16           1
SMALL
USER_CHARGES
 
@<TRIPOS>ATOM
       1    C1      18.005463   21.487317   21.232427 C.2        1 MOL1         0.6132
       2    O1      18.301290   21.896945   20.127208 O.co2      1 MOL1        -0.6749
       3    O2      17.565232   22.195988   22.116137 O.co2      1 MOL1        -0.6749
       4    C2      18.190589   20.004462   21.526489 C.3        1 MOL1        -0.1955
       5    H1      18.171978   19.460895   20.574214 H          1 MOL1         0.0733
       6    H2      17.323099   19.666928   22.105315 H          1 MOL1         0.0733
       7    C3      19.469478   19.719027   22.290501 C.2        1 MOL1        -0.1395
       8    H3      19.493768   20.094023   23.313237 H          1 MOL1         0.0816
       9    C4      20.516438   19.061073   21.783352 C.2        1 MOL1        -0.1394
      10    H4      20.492715   18.689145   20.759551 H          1 MOL1         0.0816
      11    C5      21.792412   18.780829   22.545374 C.3        1 MOL1        -0.1826
      12    H5      22.659666   19.057124   21.930505 H          1 MOL1         0.0736
      13    H6      21.840843   19.396985   23.453793 H          1 MOL1         0.0736
      14    C6      21.890601   17.292435   22.932804 C.3        1 MOL1        -0.2882
      15    H7      21.883106   16.653875   22.039712 H          1 MOL1         0.0749
      16    H8      22.818735   17.095089   23.484807 H          1 MOL1         0.0749
      17    H9      21.046112   16.998965   23.570232 H          1 MOL1         0.0749
@<TRIPOS>BOND
    1     1     2    1
    2     1     3    2
    3     1     4    1
    4     4     5    1
    5     4     6    1
    6     4     7    1
    7     7     8    1
    8     7     9    2
    9     9    10    1
   10     9    11    1
   11    11    12    1
   12    11    13    1
   13    11    14    1
   14    14    15    1
   15    14    16    1
   16    14    17    1
@<TRIPOS>SUBSTRUCTURE
       1 MOL1            1 RESIDUE      1      MOL     
@<SCITEGIC>MOL_PROPERTY
VConf Rank
SciTegic.value.IntegerValue
362

@<SCITEGIC>MOL_PROPERTY
Conf_Id
SciTegic.value.IntegerValue
35

@<SCITEGIC>MOL_PROPERTY
Delta U+W
SciTegic.value.DoubleValue
-0.102

@<SCITEGIC>MOL_PROPERTY
U+W
SciTegic.value.DoubleValue
-49.529

@<SCITEGIC>MOL_PROPERTY
Grad RMS
SciTegic.value.DoubleValue
0.000000

@<SCITEGIC>MOL_PROPERTY
U
SciTegic.value.DoubleValue
13.666

@<SCITEGIC>MOL_PROPERTY
W
SciTegic.value.DoubleValue
-63.195

@<SCITEGIC>MOL_PROPERTY
W(PB)
SciTegic.value.DoubleValue
-65.299

@<SCITEGIC>MOL_PROPERTY
W(SA)
SciTegic.value.DoubleValue
2.103

@<SCITEGIC>MOL_PROPERTY
Valence
SciTegic.value.DoubleValue
15.226

@<SCITEGIC>MOL_PROPERTY
Coulomb
SciTegic.value.DoubleValue
-1.822

@<SCITEGIC>MOL_PROPERTY
VdW
SciTegic.value.DoubleValue
0.261

@<SCITEGIC>MOL_PROPERTY
VdW6
SciTegic.value.DoubleValue
-4.165

@<SCITEGIC>MOL_PROPERTY
VdW12
SciTegic.value.DoubleValue
4.426

@<SCITEGIC>MOL_PROPERTY
Bond
SciTegic.value.DoubleValue
0.044

@<SCITEGIC>MOL_PROPERTY
Angle
SciTegic.value.DoubleValue
2.229

@<SCITEGIC>MOL_PROPERTY
Pdih
SciTegic.value.DoubleValue
12.953

@<SCITEGIC>MOL_PROPERTY
Idih
SciTegic.value.DoubleValue
0.000

@<SCITEGIC>MOL_PROPERTY
Tether
SciTegic.value.DoubleValue
0.000

@<TRIPOS>MOLECULE
guest-s20_confgen4.mol2 : confsearch ligand conformer 363
          17          16           1
SMALL
USER_CHARGES
 
@<TRIPOS>ATOM
       1    C1      21.635018   21.170495   23.759220 C.2        1 MOL1         0.6132
       2    O1      21.458524   20.986681   24.947510 O.co2      1 MOL1        -0.6749
       3    O2      22.718335   21.428708   23.272803 O.co2      1 MOL1        -0.6749
       4    C2      20.429927   21.081256   22.832136 C.3        1 MOL1        -0.1955
       5    H1      20.645716   21.668845   21.931714 H          1 MOL1         0.0733
       6    H2      19.584262   21.564488   23.334975 H          1 MOL1         0.0733
       7    C3      20.075416   19.649579   22.477135 C.2        1 MOL1        -0.1395
       8    H3      19.698999   19.055390   23.308002 H          1 MOL1         0.0816
       9    C4      20.209380   19.128835   21.250924 C.2        1 MOL1        -0.1394
      10    H4      20.593799   19.753106   20.444952 H          1 MOL1         0.0816
      11    C5      19.878524   17.707676   20.827330 C.3        1 MOL1        -0.1826
      12    H5      19.144427   17.740522   20.010918 H          1 MOL1         0.0736
      13    H6      20.777490   17.245604   20.397365 H          1 MOL1         0.0736
      14    C6      19.337256   16.800586   21.954381 C.3        1 MOL1        -0.2882
      15    H7      18.405965   17.204734   22.372428 H          1 MOL1         0.0749
      16    H8      19.124269   15.794663   21.569953 H          1 MOL1         0.0749
      17    H9      20.069559   16.701952   22.766473 H          1 MOL1         0.0749
@<TRIPOS>BOND
    1     1     2    1
    2     1     3    2
    3     1     4    1
    4     4     5    1
    5     4     6    1
    6     4     7    1
    7     7     8    1
    8     7     9    2
    9     9    10    1
   10     9    11    1
   11    11    12    1
   12    11    13    1
   13    11    14    1
   14    14    15    1
   15    14    16    1
   16    14    17    1
@<TRIPOS>SUBSTRUCTURE
       1 MOL1            1 RESIDUE      1      MOL     
@<SCITEGIC>MOL_PROPERTY
VConf Rank
SciTegic.value.IntegerValue
363

@<SCITEGIC>MOL_PROPERTY
Conf_Id
SciTegic.value.IntegerValue
19

@<SCITEGIC>MOL_PROPERTY
Delta U+W
SciTegic.value.DoubleValue
-0.496

@<SCITEGIC>MOL_PROPERTY
U+W
SciTegic.value.DoubleValue
-49.923

@<SCITEGIC>MOL_PROPERTY
Grad RMS
SciTegic.value.DoubleValue
0.000000

@<SCITEGIC>MOL_PROPERTY
U
SciTegic.value.DoubleValue
13.863

@<SCITEGIC>MOL_PROPERTY
W
SciTegic.value.DoubleValue
-63.786

@<SCITEGIC>MOL_PROPERTY
W(PB)
SciTegic.value.DoubleValue
-65.856

@<SCITEGIC>MOL_PROPERTY
W(SA)
SciTegic.value.DoubleValue
2.070

@<SCITEGIC>MOL_PROPERTY
Valence
SciTegic.value.DoubleValue
14.117

@<SCITEGIC>MOL_PROPERTY
Coulomb
SciTegic.value.DoubleValue
-1.228

@<SCITEGIC>MOL_PROPERTY
VdW
SciTegic.value.DoubleValue
0.974

@<SCITEGIC>MOL_PROPERTY
VdW6
SciTegic.value.DoubleValue
-4.885

@<SCITEGIC>MOL_PROPERTY
VdW12
SciTegic.value.DoubleValue
5.859

@<SCITEGIC>MOL_PROPERTY
Bond
SciTegic.value.DoubleValue
0.094

@<SCITEGIC>MOL_PROPERTY
Angle
SciTegic.value.DoubleValue
2.818

@<SCITEGIC>MOL_PROPERTY
Pdih
SciTegic.value.DoubleValue
11.205

@<SCITEGIC>MOL_PROPERTY
Idih
SciTegic.value.DoubleValue
0.000

@<SCITEGIC>MOL_PROPERTY
Tether
SciTegic.value.DoubleValue
0.000

@<TRIPOS>MOLECULE
guest-s20_confgen4.mol2 : confsearch ligand conformer 364
          17          16           1
SMALL
USER_CHARGES
 
@<TRIPOS>ATOM
       1    C1      18.282109   16.812623   22.387521 C.2        1 MOL1         0.6132
       2    O1      18.927722   15.986051   23.001341 O.co2      1 MOL1        -0.6749
       3    O2      17.126710   17.088696   22.644112 O.co2      1 MOL1        -0.6749
       4    C2      18.951917   17.535497   21.226212 C.3        1 MOL1        -0.1955
       5    H1      18.225837   17.597891   20.407432 H          1 MOL1         0.0733
       6    H2      19.784185   16.916187   20.870629 H          1 MOL1         0.0733
       7    C3      19.430621   18.924098   21.604883 C.2        1 MOL1        -0.1395
       8    H3      18.642543   19.644643   21.821592 H          1 MOL1         0.0816
       9    C4      20.716519   19.279013   21.686848 C.2        1 MOL1        -0.1394
      10    H4      21.504204   18.556688   21.475055 H          1 MOL1         0.0816
      11    C5      21.191767   20.663426   22.067476 C.3        1 MOL1        -0.1826
      12    H5      21.952385   21.004301   21.352083 H          1 MOL1         0.0736
      13    H6      20.362992   21.382739   22.013363 H          1 MOL1         0.0736
      14    C6      21.783444   20.673574   23.490433 C.3        1 MOL1        -0.2882
      15    H7      22.640118   19.990764   23.563271 H          1 MOL1         0.0749
      16    H8      22.126284   21.680535   23.761648 H          1 MOL1         0.0749
      17    H9      21.032219   20.359282   24.227022 H          1 MOL1         0.0749
@<TRIPOS>BOND
    1     1     2    1
    2     1     3    2
    3     1     4    1
    4     4     5    1
    5     4     6    1
    6     4     7    1
    7     7     8    1
    8     7     9    2
    9     9    10    1
   10     9    11    1
   11    11    12    1
   12    11    13    1
   13    11    14    1
   14    14    15    1
   15    14    16    1
   16    14    17    1
@<TRIPOS>SUBSTRUCTURE
       1 MOL1            1 RESIDUE      1      MOL     
@<SCITEGIC>MOL_PROPERTY
VConf Rank
SciTegic.value.IntegerValue
364

@<SCITEGIC>MOL_PROPERTY
Conf_Id
SciTegic.value.IntegerValue
7

@<SCITEGIC>MOL_PROPERTY
Delta U+W
SciTegic.value.DoubleValue
-0.041

@<SCITEGIC>MOL_PROPERTY
U+W
SciTegic.value.DoubleValue
-49.468

@<SCITEGIC>MOL_PROPERTY
Grad RMS
SciTegic.value.DoubleValue
0.000000

@<SCITEGIC>MOL_PROPERTY
U
SciTegic.value.DoubleValue
14.121

@<SCITEGIC>MOL_PROPERTY
W
SciTegic.value.DoubleValue
-63.589

@<SCITEGIC>MOL_PROPERTY
W(PB)
SciTegic.value.DoubleValue
-65.660

@<SCITEGIC>MOL_PROPERTY
W(SA)
SciTegic.value.DoubleValue
2.071

@<SCITEGIC>MOL_PROPERTY
Valence
SciTegic.value.DoubleValue
15.230

@<SCITEGIC>MOL_PROPERTY
Coulomb
SciTegic.value.DoubleValue
-1.333

@<SCITEGIC>MOL_PROPERTY
VdW
SciTegic.value.DoubleValue
0.224

@<SCITEGIC>MOL_PROPERTY
VdW6
SciTegic.value.DoubleValue
-4.212

@<SCITEGIC>MOL_PROPERTY
VdW12
SciTegic.value.DoubleValue
4.436

@<SCITEGIC>MOL_PROPERTY
Bond
SciTegic.value.DoubleValue
0.044

@<SCITEGIC>MOL_PROPERTY
Angle
SciTegic.value.DoubleValue
2.230

@<SCITEGIC>MOL_PROPERTY
Pdih
SciTegic.value.DoubleValue
12.956

@<SCITEGIC>MOL_PROPERTY
Idih
SciTegic.value.DoubleValue
0.000

@<SCITEGIC>MOL_PROPERTY
Tether
SciTegic.value.DoubleValue
0.000

@<TRIPOS>MOLECULE
guest-s20_confgen4.mol2 : confsearch ligand conformer 365
          17          16           1
SMALL
USER_CHARGES
 
@<TRIPOS>ATOM
       1    C1      22.835869   18.730338   22.166034 C.2        1 MOL1         0.6132
       2    O1      22.974084   18.061529   23.171311 O.co2      1 MOL1        -0.6749
       3    O2      23.493871   19.723228   21.924607 O.co2      1 MOL1        -0.6749
       4    C2      21.800025   18.283909   21.138753 C.3        1 MOL1        -0.1955
       5    H1      21.742514   17.189696   21.172802 H          1 MOL1         0.0733
       6    H2      22.184707   18.534667   20.143333 H          1 MOL1         0.0733
       7    C3      20.407331   18.873491   21.311012 C.2        1 MOL1        -0.1395
       8    H3      19.683755   18.541857   20.567372 H          1 MOL1         0.0816
       9    C4      20.027857   19.728395   22.268161 C.2        1 MOL1        -0.1394
      10    H4      20.731266   20.074990   23.024350 H          1 MOL1         0.0816
      11    C5      18.627938   20.287168   22.394408 C.3        1 MOL1        -0.1826
      12    H5      18.674658   21.375995   22.531498 H          1 MOL1         0.0736
      13    H6      18.057817   20.109928   21.472073 H          1 MOL1         0.0736
      14    C6      17.883229   19.651136   23.584328 C.3        1 MOL1        -0.2882
      15    H7      16.868722   20.061195   23.672006 H          1 MOL1         0.0749
      16    H8      17.801559   18.563646   23.456697 H          1 MOL1         0.0749
      17    H9      18.412205   19.845906   24.526510 H          1 MOL1         0.0749
@<TRIPOS>BOND
    1     1     2    1
    2     1     3    2
    3     1     4    1
    4     4     5    1
    5     4     6    1
    6     4     7    1
    7     7     8    1
    8     7     9    2
    9     9    10    1
   10     9    11    1
   11    11    12    1
   12    11    13    1
   13    11    14    1
   14    14    15    1
   15    14    16    1
   16    14    17    1
@<TRIPOS>SUBSTRUCTURE
       1 MOL1            1 RESIDUE      1      MOL     
@<SCITEGIC>MOL_PROPERTY
VConf Rank
SciTegic.value.IntegerValue
365

@<SCITEGIC>MOL_PROPERTY
Conf_Id
SciTegic.value.IntegerValue
39

@<SCITEGIC>MOL_PROPERTY
Delta U+W
SciTegic.value.DoubleValue
-0.422

@<SCITEGIC>MOL_PROPERTY
U+W
SciTegic.value.DoubleValue
-49.849

@<SCITEGIC>MOL_PROPERTY
Grad RMS
SciTegic.value.DoubleValue
0.000000

@<SCITEGIC>MOL_PROPERTY
U
SciTegic.value.DoubleValue
14.465

@<SCITEGIC>MOL_PROPERTY
W
SciTegic.value.DoubleValue
-64.314

@<SCITEGIC>MOL_PROPERTY
W(PB)
SciTegic.value.DoubleValue
-66.406

@<SCITEGIC>MOL_PROPERTY
W(SA)
SciTegic.value.DoubleValue
2.093

@<SCITEGIC>MOL_PROPERTY
Valence
SciTegic.value.DoubleValue
14.072

@<SCITEGIC>MOL_PROPERTY
Coulomb
SciTegic.value.DoubleValue
-0.199

@<SCITEGIC>MOL_PROPERTY
VdW
SciTegic.value.DoubleValue
0.592

@<SCITEGIC>MOL_PROPERTY
VdW6
SciTegic.value.DoubleValue
-5.019

@<SCITEGIC>MOL_PROPERTY
VdW12
SciTegic.value.DoubleValue
5.611

@<SCITEGIC>MOL_PROPERTY
Bond
SciTegic.value.DoubleValue
0.085

@<SCITEGIC>MOL_PROPERTY
Angle
SciTegic.value.DoubleValue
2.748

@<SCITEGIC>MOL_PROPERTY
Pdih
SciTegic.value.DoubleValue
11.238

@<SCITEGIC>MOL_PROPERTY
Idih
SciTegic.value.DoubleValue
0.001

@<SCITEGIC>MOL_PROPERTY
Tether
SciTegic.value.DoubleValue
0.000

@<TRIPOS>MOLECULE
guest-s20_confgen4.mol2 : confsearch ligand conformer 366
          17          16           1
SMALL
USER_CHARGES
 
@<TRIPOS>ATOM
       1    C1      20.878689   17.226462   24.393113 C.2        1 MOL1         0.6132
       2    O1      22.032123   16.844222   24.414118 O.co2      1 MOL1        -0.6749
       3    O2      19.927269   16.504226   24.616707 O.co2      1 MOL1        -0.6749
       4    C2      20.613739   18.691990   24.074310 C.3        1 MOL1        -0.1955
       5    H1      21.369901   19.290206   24.595718 H          1 MOL1         0.0733
       6    H2      19.640126   18.964890   24.498860 H          1 MOL1         0.0733
       7    C3      20.657639   18.979737   22.585680 C.2        1 MOL1        -0.1395
       8    H3      21.639318   18.885134   22.122476 H          1 MOL1         0.0816
       9    C4      19.592677   19.324976   21.855684 C.2        1 MOL1        -0.1394
      10    H4      18.610796   19.416490   22.318929 H          1 MOL1         0.0816
      11    C5      19.637654   19.607849   20.370665 C.3        1 MOL1        -0.1826
      12    H5      20.582537   19.249338   19.939519 H          1 MOL1         0.0736
      13    H6      18.831938   19.059301   19.864255 H          1 MOL1         0.0736
      14    C6      19.488317   21.115694   20.089304 C.3        1 MOL1        -0.2882
      15    H7      20.298910   21.683240   20.565152 H          1 MOL1         0.0749
      16    H8      19.521060   21.314650   19.010216 H          1 MOL1         0.0749
      17    H9      18.533021   21.493702   20.476536 H          1 MOL1         0.0749
@<TRIPOS>BOND
    1     1     2    1
    2     1     3    2
    3     1     4    1
    4     4     5    1
    5     4     6    1
    6     4     7    1
    7     7     8    1
    8     7     9    2
    9     9    10    1
   10     9    11    1
   11    11    12    1
   12    11    13    1
   13    11    14    1
   14    14    15    1
   15    14    16    1
   16    14    17    1
@<TRIPOS>SUBSTRUCTURE
       1 MOL1            1 RESIDUE      1      MOL     
@<SCITEGIC>MOL_PROPERTY
VConf Rank
SciTegic.value.IntegerValue
366

@<SCITEGIC>MOL_PROPERTY
Conf_Id
SciTegic.value.IntegerValue
38

@<SCITEGIC>MOL_PROPERTY
Delta U+W
SciTegic.value.DoubleValue
0.000

@<SCITEGIC>MOL_PROPERTY
U+W
SciTegic.value.DoubleValue
-49.427

@<SCITEGIC>MOL_PROPERTY
Grad RMS
SciTegic.value.DoubleValue
0.000000

@<SCITEGIC>MOL_PROPERTY
U
SciTegic.value.DoubleValue
13.666

@<SCITEGIC>MOL_PROPERTY
W
SciTegic.value.DoubleValue
-63.093

@<SCITEGIC>MOL_PROPERTY
W(PB)
SciTegic.value.DoubleValue
-65.225

@<SCITEGIC>MOL_PROPERTY
W(SA)
SciTegic.value.DoubleValue
2.132

@<SCITEGIC>MOL_PROPERTY
Valence
SciTegic.value.DoubleValue
15.226

@<SCITEGIC>MOL_PROPERTY
Coulomb
SciTegic.value.DoubleValue
-1.822

@<SCITEGIC>MOL_PROPERTY
VdW
SciTegic.value.DoubleValue
0.261

@<SCITEGIC>MOL_PROPERTY
VdW6
SciTegic.value.DoubleValue
-4.165

@<SCITEGIC>MOL_PROPERTY
VdW12
SciTegic.value.DoubleValue
4.426

@<SCITEGIC>MOL_PROPERTY
Bond
SciTegic.value.DoubleValue
0.044

@<SCITEGIC>MOL_PROPERTY
Angle
SciTegic.value.DoubleValue
2.229

@<SCITEGIC>MOL_PROPERTY
Pdih
SciTegic.value.DoubleValue
12.953

@<SCITEGIC>MOL_PROPERTY
Idih
SciTegic.value.DoubleValue
0.000

@<SCITEGIC>MOL_PROPERTY
Tether
SciTegic.value.DoubleValue
0.000

@<TRIPOS>MOLECULE
guest-s20_confgen4.mol2 : confsearch ligand conformer 367
          17          16           1
SMALL
USER_CHARGES
 
@<TRIPOS>ATOM
       1    C1      22.835857   18.042080   23.081038 C.2        1 MOL1         0.6132
       2    O1      23.674312   18.208952   22.217345 O.co2      1 MOL1        -0.6749
       3    O2      22.770703   17.043282   23.770327 O.co2      1 MOL1        -0.6749
       4    C2      21.813429   19.145775   23.317896 C.3        1 MOL1        -0.1955
       5    H1      22.239295   20.090664   22.959479 H          1 MOL1         0.0733
       6    H2      21.674494   19.246946   24.400471 H          1 MOL1         0.0733
       7    C3      20.483662   18.859530   22.646680 C.2        1 MOL1        -0.1395
       8    H3      19.922882   18.023376   23.063302 H          1 MOL1         0.0816
       9    C4      19.998127   19.555765   21.614333 C.2        1 MOL1        -0.1394
      10    H4      20.560870   20.389753   21.196186 H          1 MOL1         0.0816
      11    C5      18.673771   19.266401   20.943758 C.3        1 MOL1        -0.1826
      12    H5      18.808872   19.235831   19.854104 H          1 MOL1         0.0736
      13    H6      18.299359   18.277690   21.242897 H          1 MOL1         0.0736
      14    C6      17.625884   20.338276   21.301635 C.3        1 MOL1        -0.2882
      15    H7      17.957817   21.333775   20.978788 H          1 MOL1         0.0749
      16    H8      16.667342   20.123360   20.811642 H          1 MOL1         0.0749
      17    H9      17.454851   20.369648   22.385777 H          1 MOL1         0.0749
@<TRIPOS>BOND
    1     1     2    1
    2     1     3    2
    3     1     4    1
    4     4     5    1
    5     4     6    1
    6     4     7    1
    7     7     8    1
    8     7     9    2
    9     9    10    1
   10     9    11    1
   11    11    12    1
   12    11    13    1
   13    11    14    1
   14    14    15    1
   15    14    16    1
   16    14    17    1
@<TRIPOS>SUBSTRUCTURE
       1 MOL1            1 RESIDUE      1      MOL     
@<SCITEGIC>MOL_PROPERTY
VConf Rank
SciTegic.value.IntegerValue
367

@<SCITEGIC>MOL_PROPERTY
Conf_Id
SciTegic.value.IntegerValue
35

@<SCITEGIC>MOL_PROPERTY
Delta U+W
SciTegic.value.DoubleValue
-0.102

@<SCITEGIC>MOL_PROPERTY
U+W
SciTegic.value.DoubleValue
-49.529

@<SCITEGIC>MOL_PROPERTY
Grad RMS
SciTegic.value.DoubleValue
0.000000

@<SCITEGIC>MOL_PROPERTY
U
SciTegic.value.DoubleValue
13.666

@<SCITEGIC>MOL_PROPERTY
W
SciTegic.value.DoubleValue
-63.195

@<SCITEGIC>MOL_PROPERTY
W(PB)
SciTegic.value.DoubleValue
-65.299

@<SCITEGIC>MOL_PROPERTY
W(SA)
SciTegic.value.DoubleValue
2.103

@<SCITEGIC>MOL_PROPERTY
Valence
SciTegic.value.DoubleValue
15.226

@<SCITEGIC>MOL_PROPERTY
Coulomb
SciTegic.value.DoubleValue
-1.822

@<SCITEGIC>MOL_PROPERTY
VdW
SciTegic.value.DoubleValue
0.261

@<SCITEGIC>MOL_PROPERTY
VdW6
SciTegic.value.DoubleValue
-4.165

@<SCITEGIC>MOL_PROPERTY
VdW12
SciTegic.value.DoubleValue
4.426

@<SCITEGIC>MOL_PROPERTY
Bond
SciTegic.value.DoubleValue
0.044

@<SCITEGIC>MOL_PROPERTY
Angle
SciTegic.value.DoubleValue
2.229

@<SCITEGIC>MOL_PROPERTY
Pdih
SciTegic.value.DoubleValue
12.953

@<SCITEGIC>MOL_PROPERTY
Idih
SciTegic.value.DoubleValue
0.000

@<SCITEGIC>MOL_PROPERTY
Tether
SciTegic.value.DoubleValue
0.000

@<TRIPOS>MOLECULE
guest-s20_confgen4.mol2 : confsearch ligand conformer 368
          17          16           1
SMALL
USER_CHARGES
 
@<TRIPOS>ATOM
       1    C1      19.148046   16.985829   20.446859 C.2        1 MOL1         0.6132
       2    O1      19.901657   16.032426   20.438939 O.co2      1 MOL1        -0.6749
       3    O2      17.941825   16.888039   20.557837 O.co2      1 MOL1        -0.6749
       4    C2      19.749271   18.377476   20.300082 C.3        1 MOL1        -0.1955
       5    H1      18.975803   19.044893   19.901477 H          1 MOL1         0.0733
       6    H2      20.543324   18.321283   19.546536 H          1 MOL1         0.0733
       7    C3      20.308066   18.909129   21.606412 C.2        1 MOL1        -0.1395
       8    H3      21.185160   18.379559   21.974315 H          1 MOL1         0.0816
       9    C4      19.782926   19.941160   22.278611 C.2        1 MOL1        -0.1394
      10    H4      18.901722   20.443977   21.881449 H          1 MOL1         0.0816
      11    C5      20.287018   20.521437   23.589245 C.3        1 MOL1        -0.1826
      12    H5      20.510393   21.587183   23.445040 H          1 MOL1         0.0736
      13    H6      19.476019   20.487466   24.329277 H          1 MOL1         0.0736
      14    C6      21.532563   19.821290   24.176135 C.3        1 MOL1        -0.2882
      15    H7      22.382298   19.883188   23.483661 H          1 MOL1         0.0749
      16    H8      21.832428   20.296252   25.119280 H          1 MOL1         0.0749
      17    H9      21.328345   18.762534   24.383063 H          1 MOL1         0.0749
@<TRIPOS>BOND
    1     1     2    1
    2     1     3    2
    3     1     4    1
    4     4     5    1
    5     4     6    1
    6     4     7    1
    7     7     8    1
    8     7     9    2
    9     9    10    1
   10     9    11    1
   11    11    12    1
   12    11    13    1
   13    11    14    1
   14    14    15    1
   15    14    16    1
   16    14    17    1
@<TRIPOS>SUBSTRUCTURE
       1 MOL1            1 RESIDUE      1      MOL     
@<SCITEGIC>MOL_PROPERTY
VConf Rank
SciTegic.value.IntegerValue
368

@<SCITEGIC>MOL_PROPERTY
Conf_Id
SciTegic.value.IntegerValue
19

@<SCITEGIC>MOL_PROPERTY
Delta U+W
SciTegic.value.DoubleValue
-0.496

@<SCITEGIC>MOL_PROPERTY
U+W
SciTegic.value.DoubleValue
-49.923

@<SCITEGIC>MOL_PROPERTY
Grad RMS
SciTegic.value.DoubleValue
0.000000

@<SCITEGIC>MOL_PROPERTY
U
SciTegic.value.DoubleValue
13.863

@<SCITEGIC>MOL_PROPERTY
W
SciTegic.value.DoubleValue
-63.786

@<SCITEGIC>MOL_PROPERTY
W(PB)
SciTegic.value.DoubleValue
-65.856

@<SCITEGIC>MOL_PROPERTY
W(SA)
SciTegic.value.DoubleValue
2.070

@<SCITEGIC>MOL_PROPERTY
Valence
SciTegic.value.DoubleValue
14.117

@<SCITEGIC>MOL_PROPERTY
Coulomb
SciTegic.value.DoubleValue
-1.228

@<SCITEGIC>MOL_PROPERTY
VdW
SciTegic.value.DoubleValue
0.974

@<SCITEGIC>MOL_PROPERTY
VdW6
SciTegic.value.DoubleValue
-4.885

@<SCITEGIC>MOL_PROPERTY
VdW12
SciTegic.value.DoubleValue
5.859

@<SCITEGIC>MOL_PROPERTY
Bond
SciTegic.value.DoubleValue
0.094

@<SCITEGIC>MOL_PROPERTY
Angle
SciTegic.value.DoubleValue
2.818

@<SCITEGIC>MOL_PROPERTY
Pdih
SciTegic.value.DoubleValue
11.205

@<SCITEGIC>MOL_PROPERTY
Idih
SciTegic.value.DoubleValue
0.000

@<SCITEGIC>MOL_PROPERTY
Tether
SciTegic.value.DoubleValue
0.000

@<TRIPOS>MOLECULE
guest-s20_confgen4.mol2 : confsearch ligand conformer 369
          17          16           1
SMALL
USER_CHARGES
 
@<TRIPOS>ATOM
       1    C1      22.133642   17.251461   23.407012 C.2        1 MOL1         0.6132
       2    O1      23.144619   17.530286   22.793014 O.co2      1 MOL1        -0.6749
       3    O2      22.093926   17.127465   24.615337 O.co2      1 MOL1        -0.6749
       4    C2      20.847448   17.034589   22.620564 C.3        1 MOL1        -0.1955
       5    H1      20.335737   16.165152   23.049186 H          1 MOL1         0.0733
       6    H2      21.115396   16.773320   21.589740 H          1 MOL1         0.0733
       7    C3      19.934552   18.245462   22.654752 C.2        1 MOL1        -0.1395
       8    H3      19.501852   18.474275   23.628215 H          1 MOL1         0.0816
       9    C4      19.659829   19.009327   21.593029 C.2        1 MOL1        -0.1394
      10    H4      20.096872   18.783088   20.620986 H          1 MOL1         0.0816
      11    C5      18.751567   20.218059   21.629913 C.3        1 MOL1        -0.1826
      12    H5      18.033867   20.168298   20.799881 H          1 MOL1         0.0736
      13    H6      18.161683   20.227490   22.556820 H          1 MOL1         0.0736
      14    C6      19.563855   21.523840   21.529335 C.3        1 MOL1        -0.2882
      15    H7      20.134469   21.558923   20.592002 H          1 MOL1         0.0749
      16    H8      18.899988   22.397672   21.557021 H          1 MOL1         0.0749
      17    H9      20.272276   21.607300   22.364113 H          1 MOL1         0.0749
@<TRIPOS>BOND
    1     1     2    1
    2     1     3    2
    3     1     4    1
    4     4     5    1
    5     4     6    1
    6     4     7    1
    7     7     8    1
    8     7     9    2
    9     9    10    1
   10     9    11    1
   11    11    12    1
   12    11    13    1
   13    11    14    1
   14    14    15    1
   15    14    16    1
   16    14    17    1
@<TRIPOS>SUBSTRUCTURE
       1 MOL1            1 RESIDUE      1      MOL     
@<SCITEGIC>MOL_PROPERTY
VConf Rank
SciTegic.value.IntegerValue
369

@<SCITEGIC>MOL_PROPERTY
Conf_Id
SciTegic.value.IntegerValue
7

@<SCITEGIC>MOL_PROPERTY
Delta U+W
SciTegic.value.DoubleValue
-0.041

@<SCITEGIC>MOL_PROPERTY
U+W
SciTegic.value.DoubleValue
-49.468

@<SCITEGIC>MOL_PROPERTY
Grad RMS
SciTegic.value.DoubleValue
0.000000

@<SCITEGIC>MOL_PROPERTY
U
SciTegic.value.DoubleValue
14.121

@<SCITEGIC>MOL_PROPERTY
W
SciTegic.value.DoubleValue
-63.589

@<SCITEGIC>MOL_PROPERTY
W(PB)
SciTegic.value.DoubleValue
-65.660

@<SCITEGIC>MOL_PROPERTY
W(SA)
SciTegic.value.DoubleValue
2.071

@<SCITEGIC>MOL_PROPERTY
Valence
SciTegic.value.DoubleValue
15.230

@<SCITEGIC>MOL_PROPERTY
Coulomb
SciTegic.value.DoubleValue
-1.333

@<SCITEGIC>MOL_PROPERTY
VdW
SciTegic.value.DoubleValue
0.224

@<SCITEGIC>MOL_PROPERTY
VdW6
SciTegic.value.DoubleValue
-4.212

@<SCITEGIC>MOL_PROPERTY
VdW12
SciTegic.value.DoubleValue
4.436

@<SCITEGIC>MOL_PROPERTY
Bond
SciTegic.value.DoubleValue
0.044

@<SCITEGIC>MOL_PROPERTY
Angle
SciTegic.value.DoubleValue
2.230

@<SCITEGIC>MOL_PROPERTY
Pdih
SciTegic.value.DoubleValue
12.956

@<SCITEGIC>MOL_PROPERTY
Idih
SciTegic.value.DoubleValue
0.000

@<SCITEGIC>MOL_PROPERTY
Tether
SciTegic.value.DoubleValue
0.000

@<TRIPOS>MOLECULE
guest-s20_confgen4.mol2 : confsearch ligand conformer 370
          17          16           1
SMALL
USER_CHARGES
 
@<TRIPOS>ATOM
       1    C1      18.515032   20.079444   20.176105 C.2        1 MOL1         0.6132
       2    O1      17.547452   20.497895   20.780821 O.co2      1 MOL1        -0.6749
       3    O2      18.447345   19.240915   19.298968 O.co2      1 MOL1        -0.6749
       4    C2      19.884957   20.657963   20.516985 C.3        1 MOL1        -0.1955
       5    H1      19.743049   21.701472   20.821484 H          1 MOL1         0.0733
       6    H2      20.474657   20.691018   19.593469 H          1 MOL1         0.0733
       7    C3      20.663163   19.913963   21.592967 C.2        1 MOL1        -0.1395
       8    H3      21.637965   20.343438   21.820693 H          1 MOL1         0.0816
       9    C4      20.251576   18.822351   22.248690 C.2        1 MOL1        -0.1394
      10    H4      19.280986   18.373486   22.040822 H          1 MOL1         0.0816
      11    C5      21.066218   18.118453   23.311153 C.3        1 MOL1        -0.1826
      12    H5      21.078765   17.038102   23.113154 H          1 MOL1         0.0736
      13    H6      22.111300   18.456254   23.282025 H          1 MOL1         0.0736
      14    C6      20.485877   18.376608   24.715289 C.3        1 MOL1        -0.2882
      15    H7      21.079947   17.862466   25.481969 H          1 MOL1         0.0749
      16    H8      20.486967   19.450061   24.946140 H          1 MOL1         0.0749
      17    H9      19.452152   18.013183   24.784522 H          1 MOL1         0.0749
@<TRIPOS>BOND
    1     1     2    1
    2     1     3    2
    3     1     4    1
    4     4     5    1
    5     4     6    1
    6     4     7    1
    7     7     8    1
    8     7     9    2
    9     9    10    1
   10     9    11    1
   11    11    12    1
   12    11    13    1
   13    11    14    1
   14    14    15    1
   15    14    16    1
   16    14    17    1
@<TRIPOS>SUBSTRUCTURE
       1 MOL1            1 RESIDUE      1      MOL     
@<SCITEGIC>MOL_PROPERTY
VConf Rank
SciTegic.value.IntegerValue
370

@<SCITEGIC>MOL_PROPERTY
Conf_Id
SciTegic.value.IntegerValue
39

@<SCITEGIC>MOL_PROPERTY
Delta U+W
SciTegic.value.DoubleValue
-0.422

@<SCITEGIC>MOL_PROPERTY
U+W
SciTegic.value.DoubleValue
-49.849

@<SCITEGIC>MOL_PROPERTY
Grad RMS
SciTegic.value.DoubleValue
0.000000

@<SCITEGIC>MOL_PROPERTY
U
SciTegic.value.DoubleValue
14.465

@<SCITEGIC>MOL_PROPERTY
W
SciTegic.value.DoubleValue
-64.314

@<SCITEGIC>MOL_PROPERTY
W(PB)
SciTegic.value.DoubleValue
-66.406

@<SCITEGIC>MOL_PROPERTY
W(SA)
SciTegic.value.DoubleValue
2.093

@<SCITEGIC>MOL_PROPERTY
Valence
SciTegic.value.DoubleValue
14.072

@<SCITEGIC>MOL_PROPERTY
Coulomb
SciTegic.value.DoubleValue
-0.199

@<SCITEGIC>MOL_PROPERTY
VdW
SciTegic.value.DoubleValue
0.592

@<SCITEGIC>MOL_PROPERTY
VdW6
SciTegic.value.DoubleValue
-5.019

@<SCITEGIC>MOL_PROPERTY
VdW12
SciTegic.value.DoubleValue
5.611

@<SCITEGIC>MOL_PROPERTY
Bond
SciTegic.value.DoubleValue
0.085

@<SCITEGIC>MOL_PROPERTY
Angle
SciTegic.value.DoubleValue
2.748

@<SCITEGIC>MOL_PROPERTY
Pdih
SciTegic.value.DoubleValue
11.238

@<SCITEGIC>MOL_PROPERTY
Idih
SciTegic.value.DoubleValue
0.001

@<SCITEGIC>MOL_PROPERTY
Tether
SciTegic.value.DoubleValue
0.000

@<TRIPOS>MOLECULE
guest-s20_confgen4.mol2 : confsearch ligand conformer 371
          17          16           1
SMALL
USER_CHARGES
 
@<TRIPOS>ATOM
       1    C1      20.841608   19.834778   19.077892 C.2        1 MOL1         0.6132
       2    O1      21.996955   19.641676   18.754092 O.co2      1 MOL1        -0.6749
       3    O2      20.178234   20.769986   18.675228 O.co2      1 MOL1        -0.6749
       4    C2      20.189913   18.846713   20.036341 C.3        1 MOL1        -0.1955
       5    H1      20.506039   17.838608   19.744283 H          1 MOL1         0.0733
       6    H2      19.103677   18.896118   19.893896 H          1 MOL1         0.0733
       7    C3      20.561029   19.110163   21.483273 C.2        1 MOL1        -0.1395
       8    H3      21.603893   18.922939   21.737406 H          1 MOL1         0.0816
       9    C4      19.703013   19.543604   22.411801 C.2        1 MOL1        -0.1394
      10    H4      18.661028   19.733463   22.156301 H          1 MOL1         0.0816
      11    C5      20.075733   19.809361   23.853250 C.3        1 MOL1        -0.1826
      12    H5      21.167913   19.845771   23.967436 H          1 MOL1         0.0736
      13    H6      19.693840   20.792629   24.159643 H          1 MOL1         0.0736
      14    C6      19.501658   18.722714   24.783142 C.3        1 MOL1        -0.2882
      15    H7      19.890182   17.732268   24.511724 H          1 MOL1         0.0749
      16    H8      19.774832   18.921267   25.827670 H          1 MOL1         0.0749
      17    H9      18.406167   18.690051   24.717864 H          1 MOL1         0.0749
@<TRIPOS>BOND
    1     1     2    1
    2     1     3    2
    3     1     4    1
    4     4     5    1
    5     4     6    1
    6     4     7    1
    7     7     8    1
    8     7     9    2
    9     9    10    1
   10     9    11    1
   11    11    12    1
   12    11    13    1
   13    11    14    1
   14    14    15    1
   15    14    16    1
   16    14    17    1
@<TRIPOS>SUBSTRUCTURE
       1 MOL1            1 RESIDUE      1      MOL     
@<SCITEGIC>MOL_PROPERTY
VConf Rank
SciTegic.value.IntegerValue
371

@<SCITEGIC>MOL_PROPERTY
Conf_Id
SciTegic.value.IntegerValue
38

@<SCITEGIC>MOL_PROPERTY
Delta U+W
SciTegic.value.DoubleValue
0.000

@<SCITEGIC>MOL_PROPERTY
U+W
SciTegic.value.DoubleValue
-49.427

@<SCITEGIC>MOL_PROPERTY
Grad RMS
SciTegic.value.DoubleValue
0.000000

@<SCITEGIC>MOL_PROPERTY
U
SciTegic.value.DoubleValue
13.666

@<SCITEGIC>MOL_PROPERTY
W
SciTegic.value.DoubleValue
-63.093

@<SCITEGIC>MOL_PROPERTY
W(PB)
SciTegic.value.DoubleValue
-65.225

@<SCITEGIC>MOL_PROPERTY
W(SA)
SciTegic.value.DoubleValue
2.132

@<SCITEGIC>MOL_PROPERTY
Valence
SciTegic.value.DoubleValue
15.226

@<SCITEGIC>MOL_PROPERTY
Coulomb
SciTegic.value.DoubleValue
-1.822

@<SCITEGIC>MOL_PROPERTY
VdW
SciTegic.value.DoubleValue
0.261

@<SCITEGIC>MOL_PROPERTY
VdW6
SciTegic.value.DoubleValue
-4.165

@<SCITEGIC>MOL_PROPERTY
VdW12
SciTegic.value.DoubleValue
4.426

@<SCITEGIC>MOL_PROPERTY
Bond
SciTegic.value.DoubleValue
0.044

@<SCITEGIC>MOL_PROPERTY
Angle
SciTegic.value.DoubleValue
2.229

@<SCITEGIC>MOL_PROPERTY
Pdih
SciTegic.value.DoubleValue
12.953

@<SCITEGIC>MOL_PROPERTY
Idih
SciTegic.value.DoubleValue
0.000

@<SCITEGIC>MOL_PROPERTY
Tether
SciTegic.value.DoubleValue
0.000

@<TRIPOS>MOLECULE
guest-s20_confgen4.mol2 : confsearch ligand conformer 372
          17          16           1
SMALL
USER_CHARGES
 
@<TRIPOS>ATOM
       1    C1      23.048482   19.948445   22.986374 C.2        1 MOL1         0.6132
       2    O1      23.693517   18.919923   23.040152 O.co2      1 MOL1        -0.6749
       3    O2      23.184142   20.868422   23.768805 O.co2      1 MOL1        -0.6749
       4    C2      22.017218   20.096925   21.875495 C.3        1 MOL1        -0.1955
       5    H1      22.301561   19.430749   21.052089 H          1 MOL1         0.0733
       6    H2      22.080694   21.122740   21.494468 H          1 MOL1         0.0733
       7    C3      20.606507   19.803814   22.349546 C.2        1 MOL1        -0.1395
       8    H3      20.193737   20.524490   23.054846 H          1 MOL1         0.0816
       9    C4      19.886760   18.747903   21.958082 C.2        1 MOL1        -0.1394
      10    H4      20.301307   18.025941   21.255243 H          1 MOL1         0.0816
      11    C5      18.481681   18.455101   22.434887 C.3        1 MOL1        -0.1826
      12    H5      18.408292   17.405336   22.749752 H          1 MOL1         0.0736
      13    H6      18.239408   19.066034   23.315389 H          1 MOL1         0.0736
      14    C6      17.450728   18.731276   21.323165 C.3        1 MOL1        -0.2882
      15    H7      17.646418   18.104768   20.443040 H          1 MOL1         0.0749
      16    H8      16.433248   18.516359   21.674778 H          1 MOL1         0.0749
      17    H9      17.487824   19.782878   21.009546 H          1 MOL1         0.0749
@<TRIPOS>BOND
    1     1     2    1
    2     1     3    2
    3     1     4    1
    4     4     5    1
    5     4     6    1
    6     4     7    1
    7     7     8    1
    8     7     9    2
    9     9    10    1
   10     9    11    1
   11    11    12    1
   12    11    13    1
   13    11    14    1
   14    14    15    1
   15    14    16    1
   16    14    17    1
@<TRIPOS>SUBSTRUCTURE
       1 MOL1            1 RESIDUE      1      MOL     
@<SCITEGIC>MOL_PROPERTY
VConf Rank
SciTegic.value.IntegerValue
372

@<SCITEGIC>MOL_PROPERTY
Conf_Id
SciTegic.value.IntegerValue
35

@<SCITEGIC>MOL_PROPERTY
Delta U+W
SciTegic.value.DoubleValue
-0.102

@<SCITEGIC>MOL_PROPERTY
U+W
SciTegic.value.DoubleValue
-49.529

@<SCITEGIC>MOL_PROPERTY
Grad RMS
SciTegic.value.DoubleValue
0.000000

@<SCITEGIC>MOL_PROPERTY
U
SciTegic.value.DoubleValue
13.666

@<SCITEGIC>MOL_PROPERTY
W
SciTegic.value.DoubleValue
-63.195

@<SCITEGIC>MOL_PROPERTY
W(PB)
SciTegic.value.DoubleValue
-65.299

@<SCITEGIC>MOL_PROPERTY
W(SA)
SciTegic.value.DoubleValue
2.103

@<SCITEGIC>MOL_PROPERTY
Valence
SciTegic.value.DoubleValue
15.226

@<SCITEGIC>MOL_PROPERTY
Coulomb
SciTegic.value.DoubleValue
-1.822

@<SCITEGIC>MOL_PROPERTY
VdW
SciTegic.value.DoubleValue
0.261

@<SCITEGIC>MOL_PROPERTY
VdW6
SciTegic.value.DoubleValue
-4.165

@<SCITEGIC>MOL_PROPERTY
VdW12
SciTegic.value.DoubleValue
4.426

@<SCITEGIC>MOL_PROPERTY
Bond
SciTegic.value.DoubleValue
0.044

@<SCITEGIC>MOL_PROPERTY
Angle
SciTegic.value.DoubleValue
2.229

@<SCITEGIC>MOL_PROPERTY
Pdih
SciTegic.value.DoubleValue
12.953

@<SCITEGIC>MOL_PROPERTY
Idih
SciTegic.value.DoubleValue
0.000

@<SCITEGIC>MOL_PROPERTY
Tether
SciTegic.value.DoubleValue
0.000

@<TRIPOS>MOLECULE
guest-s20_confgen4.mol2 : confsearch ligand conformer 373
          17          16           1
SMALL
USER_CHARGES
 
@<TRIPOS>ATOM
       1    C1      21.773693   21.609035   22.183394 C.2        1 MOL1         0.6132
       2    O1      22.813118   21.457192   22.794549 O.co2      1 MOL1        -0.6749
       3    O2      21.703232   22.165096   21.105117 O.co2      1 MOL1        -0.6749
       4    C2      20.489266   21.081345   22.809080 C.3        1 MOL1        -0.1955
       5    H1      19.647200   21.646555   22.391889 H          1 MOL1         0.0733
       6    H2      20.523840   21.303211   23.881969 H          1 MOL1         0.0733
       7    C3      20.307124   19.591104   22.591340 C.2        1 MOL1        -0.1395
       8    H3      21.025712   18.964114   23.116323 H          1 MOL1         0.0816
       9    C4      19.352398   19.060415   21.817015 C.2        1 MOL1        -0.1394
      10    H4      18.653584   19.720038   21.303556 H          1 MOL1         0.0816
      11    C5      19.115472   17.583125   21.552307 C.3        1 MOL1        -0.1826
      12    H5      18.089210   17.327646   21.848995 H          1 MOL1         0.0736
      13    H6      19.163158   17.402975   20.469813 H          1 MOL1         0.0736
      14    C6      20.097799   16.627264   22.264620 C.3        1 MOL1        -0.2882
      15    H7      20.038010   16.741575   23.354923 H          1 MOL1         0.0749
      16    H8      19.861941   15.582780   22.022850 H          1 MOL1         0.0749
      17    H9      21.132107   16.819651   21.950478 H          1 MOL1         0.0749
@<TRIPOS>BOND
    1     1     2    1
    2     1     3    2
    3     1     4    1
    4     4     5    1
    5     4     6    1
    6     4     7    1
    7     7     8    1
    8     7     9    2
    9     9    10    1
   10     9    11    1
   11    11    12    1
   12    11    13    1
   13    11    14    1
   14    14    15    1
   15    14    16    1
   16    14    17    1
@<TRIPOS>SUBSTRUCTURE
       1 MOL1            1 RESIDUE      1      MOL     
@<SCITEGIC>MOL_PROPERTY
VConf Rank
SciTegic.value.IntegerValue
373

@<SCITEGIC>MOL_PROPERTY
Conf_Id
SciTegic.value.IntegerValue
19

@<SCITEGIC>MOL_PROPERTY
Delta U+W
SciTegic.value.DoubleValue
-0.496

@<SCITEGIC>MOL_PROPERTY
U+W
SciTegic.value.DoubleValue
-49.923

@<SCITEGIC>MOL_PROPERTY
Grad RMS
SciTegic.value.DoubleValue
0.000000

@<SCITEGIC>MOL_PROPERTY
U
SciTegic.value.DoubleValue
13.863

@<SCITEGIC>MOL_PROPERTY
W
SciTegic.value.DoubleValue
-63.786

@<SCITEGIC>MOL_PROPERTY
W(PB)
SciTegic.value.DoubleValue
-65.856

@<SCITEGIC>MOL_PROPERTY
W(SA)
SciTegic.value.DoubleValue
2.070

@<SCITEGIC>MOL_PROPERTY
Valence
SciTegic.value.DoubleValue
14.117

@<SCITEGIC>MOL_PROPERTY
Coulomb
SciTegic.value.DoubleValue
-1.228

@<SCITEGIC>MOL_PROPERTY
VdW
SciTegic.value.DoubleValue
0.974

@<SCITEGIC>MOL_PROPERTY
VdW6
SciTegic.value.DoubleValue
-4.885

@<SCITEGIC>MOL_PROPERTY
VdW12
SciTegic.value.DoubleValue
5.859

@<SCITEGIC>MOL_PROPERTY
Bond
SciTegic.value.DoubleValue
0.094

@<SCITEGIC>MOL_PROPERTY
Angle
SciTegic.value.DoubleValue
2.818

@<SCITEGIC>MOL_PROPERTY
Pdih
SciTegic.value.DoubleValue
11.205

@<SCITEGIC>MOL_PROPERTY
Idih
SciTegic.value.DoubleValue
0.000

@<SCITEGIC>MOL_PROPERTY
Tether
SciTegic.value.DoubleValue
0.000

@<TRIPOS>MOLECULE
guest-s20_confgen4.mol2 : confsearch ligand conformer 374
          17          16           1
SMALL
USER_CHARGES
 
@<TRIPOS>ATOM
       1    C1      21.591260   20.829125   20.354214 C.2        1 MOL1         0.6132
       2    O1      21.408953   20.281265   19.284903 O.co2      1 MOL1        -0.6749
       3    O2      21.455782   22.024197   20.528721 O.co2      1 MOL1        -0.6749
       4    C2      22.023518   19.975196   21.539029 C.3        1 MOL1        -0.1955
       5    H1      22.801491   20.524779   22.081432 H          1 MOL1         0.0733
       6    H2      22.487790   19.060365   21.151485 H          1 MOL1         0.0733
       7    C3      20.871642   19.647931   22.470073 C.2        1 MOL1        -0.1395
       8    H3      20.458036   20.496483   23.014229 H          1 MOL1         0.0816
       9    C4      20.364105   18.422646   22.635293 C.2        1 MOL1        -0.1394
      10    H4      20.774718   17.575378   22.087028 H          1 MOL1         0.0816
      11    C5      19.213554   18.098958   23.562004 C.3        1 MOL1        -0.1826
      12    H5      19.468776   17.227437   24.179933 H          1 MOL1         0.0736
      13    H6      19.030449   18.933062   24.253344 H          1 MOL1         0.0736
      14    C6      17.927318   17.805273   22.765551 C.3        1 MOL1        -0.2882
      15    H7      18.069990   16.949334   22.092915 H          1 MOL1         0.0749
      16    H8      17.095626   17.571482   23.442823 H          1 MOL1         0.0749
      17    H9      17.638570   18.673097   22.157943 H          1 MOL1         0.0749
@<TRIPOS>BOND
    1     1     2    1
    2     1     3    2
    3     1     4    1
    4     4     5    1
    5     4     6    1
    6     4     7    1
    7     7     8    1
    8     7     9    2
    9     9    10    1
   10     9    11    1
   11    11    12    1
   12    11    13    1
   13    11    14    1
   14    14    15    1
   15    14    16    1
   16    14    17    1
@<TRIPOS>SUBSTRUCTURE
       1 MOL1            1 RESIDUE      1      MOL     
@<SCITEGIC>MOL_PROPERTY
VConf Rank
SciTegic.value.IntegerValue
374

@<SCITEGIC>MOL_PROPERTY
Conf_Id
SciTegic.value.IntegerValue
7

@<SCITEGIC>MOL_PROPERTY
Delta U+W
SciTegic.value.DoubleValue
-0.041

@<SCITEGIC>MOL_PROPERTY
U+W
SciTegic.value.DoubleValue
-49.468

@<SCITEGIC>MOL_PROPERTY
Grad RMS
SciTegic.value.DoubleValue
0.000000

@<SCITEGIC>MOL_PROPERTY
U
SciTegic.value.DoubleValue
14.121

@<SCITEGIC>MOL_PROPERTY
W
SciTegic.value.DoubleValue
-63.589

@<SCITEGIC>MOL_PROPERTY
W(PB)
SciTegic.value.DoubleValue
-65.660

@<SCITEGIC>MOL_PROPERTY
W(SA)
SciTegic.value.DoubleValue
2.071

@<SCITEGIC>MOL_PROPERTY
Valence
SciTegic.value.DoubleValue
15.230

@<SCITEGIC>MOL_PROPERTY
Coulomb
SciTegic.value.DoubleValue
-1.333

@<SCITEGIC>MOL_PROPERTY
VdW
SciTegic.value.DoubleValue
0.224

@<SCITEGIC>MOL_PROPERTY
VdW6
SciTegic.value.DoubleValue
-4.212

@<SCITEGIC>MOL_PROPERTY
VdW12
SciTegic.value.DoubleValue
4.436

@<SCITEGIC>MOL_PROPERTY
Bond
SciTegic.value.DoubleValue
0.044

@<SCITEGIC>MOL_PROPERTY
Angle
SciTegic.value.DoubleValue
2.230

@<SCITEGIC>MOL_PROPERTY
Pdih
SciTegic.value.DoubleValue
12.956

@<SCITEGIC>MOL_PROPERTY
Idih
SciTegic.value.DoubleValue
0.000

@<SCITEGIC>MOL_PROPERTY
Tether
SciTegic.value.DoubleValue
0.000

@<TRIPOS>MOLECULE
guest-s20_confgen4.mol2 : confsearch ligand conformer 375
          17          16           1
SMALL
USER_CHARGES
 
@<TRIPOS>ATOM
       1    C1      20.040177   21.508780   20.647850 C.2        1 MOL1         0.6132
       2    O1      18.845112   21.599553   20.446423 O.co2      1 MOL1        -0.6749
       3    O2      20.869181   21.465815   19.760163 O.co2      1 MOL1        -0.6749
       4    C2      20.528138   21.474998   22.092956 C.3        1 MOL1        -0.1955
       5    H1      19.838047   22.077457   22.695107 H          1 MOL1         0.0733
       6    H2      21.493797   21.992286   22.133390 H          1 MOL1         0.0733
       7    C3      20.665367   20.089402   22.707912 C.2        1 MOL1        -0.1395
       8    H3      21.015023   20.088176   23.739553 H          1 MOL1         0.0816
       9    C4      20.397013   18.928342   22.098879 C.2        1 MOL1        -0.1394
      10    H4      20.045216   18.901595   21.068220 H          1 MOL1         0.0816
      11    C5      20.551861   17.574790   22.756040 C.3        1 MOL1        -0.1826
      12    H5      21.101897   16.899036   22.087208 H          1 MOL1         0.0736
      13    H6      21.145725   17.659194   23.676560 H          1 MOL1         0.0736
      14    C6      19.178198   16.961117   23.089944 C.3        1 MOL1        -0.2882
      15    H7      19.296535   15.978680   23.565206 H          1 MOL1         0.0749
      16    H8      18.619405   17.608095   23.778975 H          1 MOL1         0.0749
      17    H9      18.576713   16.829756   22.180869 H          1 MOL1         0.0749
@<TRIPOS>BOND
    1     1     2    1
    2     1     3    2
    3     1     4    1
    4     4     5    1
    5     4     6    1
    6     4     7    1
    7     7     8    1
    8     7     9    2
    9     9    10    1
   10     9    11    1
   11    11    12    1
   12    11    13    1
   13    11    14    1
   14    14    15    1
   15    14    16    1
   16    14    17    1
@<TRIPOS>SUBSTRUCTURE
       1 MOL1            1 RESIDUE      1      MOL     
@<SCITEGIC>MOL_PROPERTY
VConf Rank
SciTegic.value.IntegerValue
375

@<SCITEGIC>MOL_PROPERTY
Conf_Id
SciTegic.value.IntegerValue
39

@<SCITEGIC>MOL_PROPERTY
Delta U+W
SciTegic.value.DoubleValue
-0.422

@<SCITEGIC>MOL_PROPERTY
U+W
SciTegic.value.DoubleValue
-49.849

@<SCITEGIC>MOL_PROPERTY
Grad RMS
SciTegic.value.DoubleValue
0.000000

@<SCITEGIC>MOL_PROPERTY
U
SciTegic.value.DoubleValue
14.465

@<SCITEGIC>MOL_PROPERTY
W
SciTegic.value.DoubleValue
-64.314

@<SCITEGIC>MOL_PROPERTY
W(PB)
SciTegic.value.DoubleValue
-66.406

@<SCITEGIC>MOL_PROPERTY
W(SA)
SciTegic.value.DoubleValue
2.093

@<SCITEGIC>MOL_PROPERTY
Valence
SciTegic.value.DoubleValue
14.072

@<SCITEGIC>MOL_PROPERTY
Coulomb
SciTegic.value.DoubleValue
-0.199

@<SCITEGIC>MOL_PROPERTY
VdW
SciTegic.value.DoubleValue
0.592

@<SCITEGIC>MOL_PROPERTY
VdW6
SciTegic.value.DoubleValue
-5.019

@<SCITEGIC>MOL_PROPERTY
VdW12
SciTegic.value.DoubleValue
5.611

@<SCITEGIC>MOL_PROPERTY
Bond
SciTegic.value.DoubleValue
0.085

@<SCITEGIC>MOL_PROPERTY
Angle
SciTegic.value.DoubleValue
2.748

@<SCITEGIC>MOL_PROPERTY
Pdih
SciTegic.value.DoubleValue
11.238

@<SCITEGIC>MOL_PROPERTY
Idih
SciTegic.value.DoubleValue
0.001

@<SCITEGIC>MOL_PROPERTY
Tether
SciTegic.value.DoubleValue
0.000

@<TRIPOS>MOLECULE
guest-s20_confgen4.mol2 : confsearch ligand conformer 376
          17          16           1
SMALL
USER_CHARGES
 
@<TRIPOS>ATOM
       1    C1      18.974490   21.933849   23.390991 C.2        1 MOL1         0.6132
       2    O1      18.063884   21.807210   24.185799 O.co2      1 MOL1        -0.6749
       3    O2      19.029776   22.827438   22.569249 O.co2      1 MOL1        -0.6749
       4    C2      20.109807   20.919479   23.432366 C.3        1 MOL1        -0.1955
       5    H1      20.338107   20.715022   24.484785 H          1 MOL1         0.0733
       6    H2      21.001554   21.384570   22.995196 H          1 MOL1         0.0733
       7    C3      19.762325   19.629174   22.714652 C.2        1 MOL1        -0.1395
       8    H3      18.986751   19.027950   23.188166 H          1 MOL1         0.0816
       9    C4      20.339146   19.222101   21.579840 C.2        1 MOL1        -0.1394
      10    H4      21.112512   19.825236   21.105295 H          1 MOL1         0.0816
      11    C5      19.988708   17.937004   20.863572 C.3        1 MOL1        -0.1826
      12    H5      19.045610   17.526476   21.249908 H          1 MOL1         0.0736
      13    H6      19.830407   18.139183   19.795583 H          1 MOL1         0.0736
      14    C6      21.106466   16.888822   21.027858 C.3        1 MOL1        -0.2882
      15    H7      21.265346   16.651192   22.087995 H          1 MOL1         0.0749
      16    H8      20.846810   15.958864   20.505514 H          1 MOL1         0.0749
      17    H9      22.054015   17.258539   20.614472 H          1 MOL1         0.0749
@<TRIPOS>BOND
    1     1     2    1
    2     1     3    2
    3     1     4    1
    4     4     5    1
    5     4     6    1
    6     4     7    1
    7     7     8    1
    8     7     9    2
    9     9    10    1
   10     9    11    1
   11    11    12    1
   12    11    13    1
   13    11    14    1
   14    14    15    1
   15    14    16    1
   16    14    17    1
@<TRIPOS>SUBSTRUCTURE
       1 MOL1            1 RESIDUE      1      MOL     
@<SCITEGIC>MOL_PROPERTY
VConf Rank
SciTegic.value.IntegerValue
376

@<SCITEGIC>MOL_PROPERTY
Conf_Id
SciTegic.value.IntegerValue
38

@<SCITEGIC>MOL_PROPERTY
Delta U+W
SciTegic.value.DoubleValue
0.000

@<SCITEGIC>MOL_PROPERTY
U+W
SciTegic.value.DoubleValue
-49.427

@<SCITEGIC>MOL_PROPERTY
Grad RMS
SciTegic.value.DoubleValue
0.000000

@<SCITEGIC>MOL_PROPERTY
U
SciTegic.value.DoubleValue
13.666

@<SCITEGIC>MOL_PROPERTY
W
SciTegic.value.DoubleValue
-63.093

@<SCITEGIC>MOL_PROPERTY
W(PB)
SciTegic.value.DoubleValue
-65.225

@<SCITEGIC>MOL_PROPERTY
W(SA)
SciTegic.value.DoubleValue
2.132

@<SCITEGIC>MOL_PROPERTY
Valence
SciTegic.value.DoubleValue
15.226

@<SCITEGIC>MOL_PROPERTY
Coulomb
SciTegic.value.DoubleValue
-1.822

@<SCITEGIC>MOL_PROPERTY
VdW
SciTegic.value.DoubleValue
0.261

@<SCITEGIC>MOL_PROPERTY
VdW6
SciTegic.value.DoubleValue
-4.165

@<SCITEGIC>MOL_PROPERTY
VdW12
SciTegic.value.DoubleValue
4.426

@<SCITEGIC>MOL_PROPERTY
Bond
SciTegic.value.DoubleValue
0.044

@<SCITEGIC>MOL_PROPERTY
Angle
SciTegic.value.DoubleValue
2.229

@<SCITEGIC>MOL_PROPERTY
Pdih
SciTegic.value.DoubleValue
12.953

@<SCITEGIC>MOL_PROPERTY
Idih
SciTegic.value.DoubleValue
0.000

@<SCITEGIC>MOL_PROPERTY
Tether
SciTegic.value.DoubleValue
0.000

@<TRIPOS>MOLECULE
guest-s20_confgen4.mol2 : confsearch ligand conformer 377
          17          16           1
SMALL
USER_CHARGES
 
@<TRIPOS>ATOM
       1    C1      22.567119   20.562629   23.582779 C.2        1 MOL1         0.6132
       2    O1      23.588991   20.209507   23.027891 O.co2      1 MOL1        -0.6749
       3    O2      22.469727   20.702594   24.786060 O.co2      1 MOL1        -0.6749
       4    C2      21.342185   20.851255   22.724970 C.3        1 MOL1        -0.1955
       5    H1      21.682783   21.095121   21.711480 H          1 MOL1         0.0733
       6    H2      20.857206   21.749205   23.124956 H          1 MOL1         0.0733
       7    C3      20.361221   19.694508   22.705229 C.2        1 MOL1        -0.1395
       8    H3      19.857175   19.496003   23.650604 H          1 MOL1         0.0816
       9    C4      20.105474   18.944862   21.628729 C.2        1 MOL1        -0.1394
      10    H4      20.612214   19.141896   20.684561 H          1 MOL1         0.0816
      11    C5      19.129917   17.789298   21.611951 C.3        1 MOL1        -0.1826
      12    H5      19.600930   16.913276   21.145834 H          1 MOL1         0.0736
      13    H6      18.863627   17.496131   22.636823 H          1 MOL1         0.0736
      14    C6      17.849195   18.156893   20.837557 C.3        1 MOL1        -0.2882
      15    H7      18.082012   18.417806   19.796813 H          1 MOL1         0.0749
      16    H8      17.145531   17.314364   20.828214 H          1 MOL1         0.0749
      17    H9      17.346219   19.015756   21.301206 H          1 MOL1         0.0749
@<TRIPOS>BOND
    1     1     2    1
    2     1     3    2
    3     1     4    1
    4     4     5    1
    5     4     6    1
    6     4     7    1
    7     7     8    1
    8     7     9    2
    9     9    10    1
   10     9    11    1
   11    11    12    1
   12    11    13    1
   13    11    14    1
   14    14    15    1
   15    14    16    1
   16    14    17    1
@<TRIPOS>SUBSTRUCTURE
       1 MOL1            1 RESIDUE      1      MOL     
@<SCITEGIC>MOL_PROPERTY
VConf Rank
SciTegic.value.IntegerValue
377

@<SCITEGIC>MOL_PROPERTY
Conf_Id
SciTegic.value.IntegerValue
35

@<SCITEGIC>MOL_PROPERTY
Delta U+W
SciTegic.value.DoubleValue
-0.102

@<SCITEGIC>MOL_PROPERTY
U+W
SciTegic.value.DoubleValue
-49.529

@<SCITEGIC>MOL_PROPERTY
Grad RMS
SciTegic.value.DoubleValue
0.000000

@<SCITEGIC>MOL_PROPERTY
U
SciTegic.value.DoubleValue
13.666

@<SCITEGIC>MOL_PROPERTY
W
SciTegic.value.DoubleValue
-63.195

@<SCITEGIC>MOL_PROPERTY
W(PB)
SciTegic.value.DoubleValue
-65.299

@<SCITEGIC>MOL_PROPERTY
W(SA)
SciTegic.value.DoubleValue
2.103

@<SCITEGIC>MOL_PROPERTY
Valence
SciTegic.value.DoubleValue
15.226

@<SCITEGIC>MOL_PROPERTY
Coulomb
SciTegic.value.DoubleValue
-1.822

@<SCITEGIC>MOL_PROPERTY
VdW
SciTegic.value.DoubleValue
0.261

@<SCITEGIC>MOL_PROPERTY
VdW6
SciTegic.value.DoubleValue
-4.165

@<SCITEGIC>MOL_PROPERTY
VdW12
SciTegic.value.DoubleValue
4.426

@<SCITEGIC>MOL_PROPERTY
Bond
SciTegic.value.DoubleValue
0.044

@<SCITEGIC>MOL_PROPERTY
Angle
SciTegic.value.DoubleValue
2.229

@<SCITEGIC>MOL_PROPERTY
Pdih
SciTegic.value.DoubleValue
12.953

@<SCITEGIC>MOL_PROPERTY
Idih
SciTegic.value.DoubleValue
0.000

@<SCITEGIC>MOL_PROPERTY
Tether
SciTegic.value.DoubleValue
0.000

@<TRIPOS>MOLECULE
guest-s20_confgen4.mol2 : confsearch ligand conformer 378
          17          16           1
SMALL
USER_CHARGES
 
@<TRIPOS>ATOM
       1    C1      21.130721   16.392204   21.458535 C.2        1 MOL1         0.6132
       2    O1      20.984355   16.221537   20.264206 O.co2      1 MOL1        -0.6749
       3    O2      22.137418   16.080151   22.063543 O.co2      1 MOL1        -0.6749
       4    C2      19.985245   17.023000   22.239351 C.3        1 MOL1        -0.1955
       5    H1      20.078485   16.720607   23.289328 H          1 MOL1         0.0733
       6    H2      19.048620   16.594370   21.864491 H          1 MOL1         0.0733
       7    C3      19.955664   18.534011   22.107530 C.2        1 MOL1        -0.1395
       8    H3      19.707942   18.898416   21.112075 H          1 MOL1         0.0816
       9    C4      20.214586   19.377033   23.114995 C.2        1 MOL1        -0.1394
      10    H4      20.463261   18.975218   24.096723 H          1 MOL1         0.0816
      11    C5      20.206616   20.895146   23.052871 C.3        1 MOL1        -0.1826
      12    H5      19.492829   21.278784   23.794381 H          1 MOL1         0.0736
      13    H6      21.189771   21.269832   23.368366 H          1 MOL1         0.0736
      14    C6      19.862698   21.489361   21.669160 C.3        1 MOL1        -0.2882
      15    H7      18.860768   21.178816   21.344968 H          1 MOL1         0.0749
      16    H8      19.878755   22.586342   21.706628 H          1 MOL1         0.0749
      17    H9      20.589128   21.168294   20.911067 H          1 MOL1         0.0749
@<TRIPOS>BOND
    1     1     2    1
    2     1     3    2
    3     1     4    1
    4     4     5    1
    5     4     6    1
    6     4     7    1
    7     7     8    1
    8     7     9    2
    9     9    10    1
   10     9    11    1
   11    11    12    1
   12    11    13    1
   13    11    14    1
   14    14    15    1
   15    14    16    1
   16    14    17    1
@<TRIPOS>SUBSTRUCTURE
       1 MOL1            1 RESIDUE      1      MOL     
@<SCITEGIC>MOL_PROPERTY
VConf Rank
SciTegic.value.IntegerValue
378

@<SCITEGIC>MOL_PROPERTY
Conf_Id
SciTegic.value.IntegerValue
19

@<SCITEGIC>MOL_PROPERTY
Delta U+W
SciTegic.value.DoubleValue
-0.496

@<SCITEGIC>MOL_PROPERTY
U+W
SciTegic.value.DoubleValue
-49.923

@<SCITEGIC>MOL_PROPERTY
Grad RMS
SciTegic.value.DoubleValue
0.000000

@<SCITEGIC>MOL_PROPERTY
U
SciTegic.value.DoubleValue
13.863

@<SCITEGIC>MOL_PROPERTY
W
SciTegic.value.DoubleValue
-63.786

@<SCITEGIC>MOL_PROPERTY
W(PB)
SciTegic.value.DoubleValue
-65.856

@<SCITEGIC>MOL_PROPERTY
W(SA)
SciTegic.value.DoubleValue
2.070

@<SCITEGIC>MOL_PROPERTY
Valence
SciTegic.value.DoubleValue
14.117

@<SCITEGIC>MOL_PROPERTY
Coulomb
SciTegic.value.DoubleValue
-1.228

@<SCITEGIC>MOL_PROPERTY
VdW
SciTegic.value.DoubleValue
0.974

@<SCITEGIC>MOL_PROPERTY
VdW6
SciTegic.value.DoubleValue
-4.885

@<SCITEGIC>MOL_PROPERTY
VdW12
SciTegic.value.DoubleValue
5.859

@<SCITEGIC>MOL_PROPERTY
Bond
SciTegic.value.DoubleValue
0.094

@<SCITEGIC>MOL_PROPERTY
Angle
SciTegic.value.DoubleValue
2.818

@<SCITEGIC>MOL_PROPERTY
Pdih
SciTegic.value.DoubleValue
11.205

@<SCITEGIC>MOL_PROPERTY
Idih
SciTegic.value.DoubleValue
0.000

@<SCITEGIC>MOL_PROPERTY
Tether
SciTegic.value.DoubleValue
0.000

@<TRIPOS>MOLECULE
guest-s20_confgen4.mol2 : confsearch ligand conformer 379
          17          16           1
SMALL
USER_CHARGES
 
@<TRIPOS>ATOM
       1    C1      18.223525   20.944274   21.052149 C.2        1 MOL1         0.6132
       2    O1      18.087170   21.757842   21.944520 O.co2      1 MOL1        -0.6749
       3    O2      18.393396   21.246594   19.887353 O.co2      1 MOL1        -0.6749
       4    C2      18.168153   19.464586   21.408920 C.3        1 MOL1        -0.1955
       5    H1      17.579873   18.955937   20.636465 H          1 MOL1         0.0733
       6    H2      17.618676   19.359305   22.352130 H          1 MOL1         0.0733
       7    C3      19.546492   18.839504   21.510004 C.2        1 MOL1        -0.1395
       8    H3      20.094400   18.767395   20.570956 H          1 MOL1         0.0816
       9    C4      20.091512   18.402705   22.649467 C.2        1 MOL1        -0.1394
      10    H4      19.545238   18.479774   23.588991 H          1 MOL1         0.0816
      11    C5      21.467273   17.782382   22.748545 C.3        1 MOL1        -0.1826
      12    H5      21.413889   16.852439   23.330677 H          1 MOL1         0.0736
      13    H6      21.838535   17.509289   21.751152 H          1 MOL1         0.0736
      14    C6      22.463798   18.750033   23.416064 C.3        1 MOL1        -0.2882
      15    H7      22.136888   19.010033   24.431424 H          1 MOL1         0.0749
      16    H8      23.460464   18.295093   23.485003 H          1 MOL1         0.0749
      17    H9      22.552294   19.678823   22.837101 H          1 MOL1         0.0749
@<TRIPOS>BOND
    1     1     2    1
    2     1     3    2
    3     1     4    1
    4     4     5    1
    5     4     6    1
    6     4     7    1
    7     7     8    1
    8     7     9    2
    9     9    10    1
   10     9    11    1
   11    11    12    1
   12    11    13    1
   13    11    14    1
   14    14    15    1
   15    14    16    1
   16    14    17    1
@<TRIPOS>SUBSTRUCTURE
       1 MOL1            1 RESIDUE      1      MOL     
@<SCITEGIC>MOL_PROPERTY
VConf Rank
SciTegic.value.IntegerValue
379

@<SCITEGIC>MOL_PROPERTY
Conf_Id
SciTegic.value.IntegerValue
7

@<SCITEGIC>MOL_PROPERTY
Delta U+W
SciTegic.value.DoubleValue
-0.041

@<SCITEGIC>MOL_PROPERTY
U+W
SciTegic.value.DoubleValue
-49.468

@<SCITEGIC>MOL_PROPERTY
Grad RMS
SciTegic.value.DoubleValue
0.000000

@<SCITEGIC>MOL_PROPERTY
U
SciTegic.value.DoubleValue
14.121

@<SCITEGIC>MOL_PROPERTY
W
SciTegic.value.DoubleValue
-63.589

@<SCITEGIC>MOL_PROPERTY
W(PB)
SciTegic.value.DoubleValue
-65.660

@<SCITEGIC>MOL_PROPERTY
W(SA)
SciTegic.value.DoubleValue
2.071

@<SCITEGIC>MOL_PROPERTY
Valence
SciTegic.value.DoubleValue
15.230

@<SCITEGIC>MOL_PROPERTY
Coulomb
SciTegic.value.DoubleValue
-1.333

@<SCITEGIC>MOL_PROPERTY
VdW
SciTegic.value.DoubleValue
0.224

@<SCITEGIC>MOL_PROPERTY
VdW6
SciTegic.value.DoubleValue
-4.212

@<SCITEGIC>MOL_PROPERTY
VdW12
SciTegic.value.DoubleValue
4.436

@<SCITEGIC>MOL_PROPERTY
Bond
SciTegic.value.DoubleValue
0.044

@<SCITEGIC>MOL_PROPERTY
Angle
SciTegic.value.DoubleValue
2.230

@<SCITEGIC>MOL_PROPERTY
Pdih
SciTegic.value.DoubleValue
12.956

@<SCITEGIC>MOL_PROPERTY
Idih
SciTegic.value.DoubleValue
0.000

@<SCITEGIC>MOL_PROPERTY
Tether
SciTegic.value.DoubleValue
0.000

@<TRIPOS>MOLECULE
guest-s20_confgen4.mol2 : confsearch ligand conformer 380
          17          16           1
SMALL
USER_CHARGES
 
@<TRIPOS>ATOM
       1    C1      19.425068   16.612766   22.032770 C.2        1 MOL1         0.6132
       2    O1      19.491399   16.254317   23.192126 O.co2      1 MOL1        -0.6749
       3    O2      20.014244   16.060351   21.124590 O.co2      1 MOL1        -0.6749
       4    C2      18.532333   17.802976   21.695128 C.3        1 MOL1        -0.1955
       5    H1      17.689969   17.801256   22.396689 H          1 MOL1         0.0733
       6    H2      18.099133   17.627081   20.703604 H          1 MOL1         0.0733
       7    C3      19.214102   19.163655   21.720031 C.2        1 MOL1        -0.1395
       8    H3      18.559067   19.999088   21.476046 H          1 MOL1         0.0816
       9    C4      20.500332   19.393903   22.009155 C.2        1 MOL1        -0.1394
      10    H4      21.176408   18.576565   22.257373 H          1 MOL1         0.0816
      11    C5      21.130442   20.768973   22.018476 C.3        1 MOL1        -0.1826
      12    H5      22.072812   20.748443   21.454529 H          1 MOL1         0.0736
      13    H6      20.477674   21.495230   21.514890 H          1 MOL1         0.0736
      14    C6      21.404236   21.242700   23.459190 C.3        1 MOL1        -0.2882
      15    H7      21.862627   22.240165   23.459884 H          1 MOL1         0.0749
      16    H8      20.471408   21.295764   24.035914 H          1 MOL1         0.0749
      17    H9      22.086152   20.553838   23.974861 H          1 MOL1         0.0749
@<TRIPOS>BOND
    1     1     2    1
    2     1     3    2
    3     1     4    1
    4     4     5    1
    5     4     6    1
    6     4     7    1
    7     7     8    1
    8     7     9    2
    9     9    10    1
   10     9    11    1
   11    11    12    1
   12    11    13    1
   13    11    14    1
   14    14    15    1
   15    14    16    1
   16    14    17    1
@<TRIPOS>SUBSTRUCTURE
       1 MOL1            1 RESIDUE      1      MOL     
@<SCITEGIC>MOL_PROPERTY
VConf Rank
SciTegic.value.IntegerValue
380

@<SCITEGIC>MOL_PROPERTY
Conf_Id
SciTegic.value.IntegerValue
39

@<SCITEGIC>MOL_PROPERTY
Delta U+W
SciTegic.value.DoubleValue
-0.422

@<SCITEGIC>MOL_PROPERTY
U+W
SciTegic.value.DoubleValue
-49.849

@<SCITEGIC>MOL_PROPERTY
Grad RMS
SciTegic.value.DoubleValue
0.000000

@<SCITEGIC>MOL_PROPERTY
U
SciTegic.value.DoubleValue
14.465

@<SCITEGIC>MOL_PROPERTY
W
SciTegic.value.DoubleValue
-64.314

@<SCITEGIC>MOL_PROPERTY
W(PB)
SciTegic.value.DoubleValue
-66.406

@<SCITEGIC>MOL_PROPERTY
W(SA)
SciTegic.value.DoubleValue
2.093

@<SCITEGIC>MOL_PROPERTY
Valence
SciTegic.value.DoubleValue
14.072

@<SCITEGIC>MOL_PROPERTY
Coulomb
SciTegic.value.DoubleValue
-0.199

@<SCITEGIC>MOL_PROPERTY
VdW
SciTegic.value.DoubleValue
0.592

@<SCITEGIC>MOL_PROPERTY
VdW6
SciTegic.value.DoubleValue
-5.019

@<SCITEGIC>MOL_PROPERTY
VdW12
SciTegic.value.DoubleValue
5.611

@<SCITEGIC>MOL_PROPERTY
Bond
SciTegic.value.DoubleValue
0.085

@<SCITEGIC>MOL_PROPERTY
Angle
SciTegic.value.DoubleValue
2.748

@<SCITEGIC>MOL_PROPERTY
Pdih
SciTegic.value.DoubleValue
11.238

@<SCITEGIC>MOL_PROPERTY
Idih
SciTegic.value.DoubleValue
0.001

@<SCITEGIC>MOL_PROPERTY
Tether
SciTegic.value.DoubleValue
0.000

@<TRIPOS>MOLECULE
guest-s20_confgen4.mol2 : confsearch ligand conformer 381
          17          16           1
SMALL
USER_CHARGES
 
@<TRIPOS>ATOM
       1    C1      19.602484   18.203800   19.170126 C.2        1 MOL1         0.6132
       2    O1      20.588697   17.942651   18.509712 O.co2      1 MOL1        -0.6749
       3    O2      18.613006   18.743449   18.715670 O.co2      1 MOL1        -0.6749
       4    C2      19.606895   17.828582   20.646201 C.3        1 MOL1        -0.1955
       5    H1      20.070897   16.839853   20.739080 H          1 MOL1         0.0733
       6    H2      18.566433   17.727024   20.977509 H          1 MOL1         0.0733
       7    C3      20.353256   18.836359   21.499474 C.2        1 MOL1        -0.1395
       8    H3      21.429819   18.877012   21.336499 H          1 MOL1         0.0816
       9    C4      19.771444   19.638141   22.396618 C.2        1 MOL1        -0.1394
      10    H4      18.694491   19.599059   22.556953 H          1 MOL1         0.0816
      11    C5      20.516782   20.645093   23.243872 C.3        1 MOL1        -0.1826
      12    H5      21.529590   20.804956   22.849050 H          1 MOL1         0.0736
      13    H6      20.005105   21.616142   23.201610 H          1 MOL1         0.0736
      14    C6      20.608675   20.176138   24.709033 C.3        1 MOL1        -0.2882
      15    H7      21.140001   19.217811   24.779058 H          1 MOL1         0.0749
      16    H8      21.149918   20.911076   25.318956 H          1 MOL1         0.0749
      17    H9      19.608217   20.044963   25.141821 H          1 MOL1         0.0749
@<TRIPOS>BOND
    1     1     2    1
    2     1     3    2
    3     1     4    1
    4     4     5    1
    5     4     6    1
    6     4     7    1
    7     7     8    1
    8     7     9    2
    9     9    10    1
   10     9    11    1
   11    11    12    1
   12    11    13    1
   13    11    14    1
   14    14    15    1
   15    14    16    1
   16    14    17    1
@<TRIPOS>SUBSTRUCTURE
       1 MOL1            1 RESIDUE      1      MOL     
@<SCITEGIC>MOL_PROPERTY
VConf Rank
SciTegic.value.IntegerValue
381

@<SCITEGIC>MOL_PROPERTY
Conf_Id
SciTegic.value.IntegerValue
38

@<SCITEGIC>MOL_PROPERTY
Delta U+W
SciTegic.value.DoubleValue
0.000

@<SCITEGIC>MOL_PROPERTY
U+W
SciTegic.value.DoubleValue
-49.427

@<SCITEGIC>MOL_PROPERTY
Grad RMS
SciTegic.value.DoubleValue
0.000000

@<SCITEGIC>MOL_PROPERTY
U
SciTegic.value.DoubleValue
13.666

@<SCITEGIC>MOL_PROPERTY
W
SciTegic.value.DoubleValue
-63.093

@<SCITEGIC>MOL_PROPERTY
W(PB)
SciTegic.value.DoubleValue
-65.225

@<SCITEGIC>MOL_PROPERTY
W(SA)
SciTegic.value.DoubleValue
2.132

@<SCITEGIC>MOL_PROPERTY
Valence
SciTegic.value.DoubleValue
15.226

@<SCITEGIC>MOL_PROPERTY
Coulomb
SciTegic.value.DoubleValue
-1.822

@<SCITEGIC>MOL_PROPERTY
VdW
SciTegic.value.DoubleValue
0.261

@<SCITEGIC>MOL_PROPERTY
VdW6
SciTegic.value.DoubleValue
-4.165

@<SCITEGIC>MOL_PROPERTY
VdW12
SciTegic.value.DoubleValue
4.426

@<SCITEGIC>MOL_PROPERTY
Bond
SciTegic.value.DoubleValue
0.044

@<SCITEGIC>MOL_PROPERTY
Angle
SciTegic.value.DoubleValue
2.229

@<SCITEGIC>MOL_PROPERTY
Pdih
SciTegic.value.DoubleValue
12.953

@<SCITEGIC>MOL_PROPERTY
Idih
SciTegic.value.DoubleValue
0.000

@<SCITEGIC>MOL_PROPERTY
Tether
SciTegic.value.DoubleValue
0.000

@<TRIPOS>MOLECULE
guest-s20_confgen4.mol2 : confsearch ligand conformer 382
          17          16           1
SMALL
USER_CHARGES
 
@<TRIPOS>ATOM
       1    C1      19.088871   21.768913   23.768288 C.2        1 MOL1         0.6132
       2    O1      17.874132   21.799298   23.750824 O.co2      1 MOL1        -0.6749
       3    O2      19.786637   22.762977   23.724474 O.co2      1 MOL1        -0.6749
       4    C2      19.776201   20.412588   23.855266 C.3        1 MOL1        -0.1955
       5    H1      19.073345   19.699861   24.303209 H          1 MOL1         0.0733
       6    H2      20.620370   20.508681   24.547835 H          1 MOL1         0.0733
       7    C3      20.263230   19.920583   22.505645 C.2        1 MOL1        -0.1395
       8    H3      21.081956   20.492466   22.069941 H          1 MOL1         0.0816
       9    C4      19.751645   18.867694   21.860715 C.2        1 MOL1        -0.1394
      10    H4      18.930850   18.298212   22.295512 H          1 MOL1         0.0816
      11    C5      20.235924   18.380933   20.513177 C.3        1 MOL1        -0.1826
      12    H5      19.377679   18.220279   19.846740 H          1 MOL1         0.0736
      13    H6      20.868762   19.141015   20.034626 H          1 MOL1         0.0736
      14    C6      21.031599   17.068383   20.651649 C.3        1 MOL1        -0.2882
      15    H7      20.410075   16.278246   21.093033 H          1 MOL1         0.0749
      16    H8      21.379735   16.719778   19.670649 H          1 MOL1         0.0749
      17    H9      21.910515   17.211197   21.294074 H          1 MOL1         0.0749
@<TRIPOS>BOND
    1     1     2    1
    2     1     3    2
    3     1     4    1
    4     4     5    1
    5     4     6    1
    6     4     7    1
    7     7     8    1
    8     7     9    2
    9     9    10    1
   10     9    11    1
   11    11    12    1
   12    11    13    1
   13    11    14    1
   14    14    15    1
   15    14    16    1
   16    14    17    1
@<TRIPOS>SUBSTRUCTURE
       1 MOL1            1 RESIDUE      1      MOL     
@<SCITEGIC>MOL_PROPERTY
VConf Rank
SciTegic.value.IntegerValue
382

@<SCITEGIC>MOL_PROPERTY
Conf_Id
SciTegic.value.IntegerValue
35

@<SCITEGIC>MOL_PROPERTY
Delta U+W
SciTegic.value.DoubleValue
-0.102

@<SCITEGIC>MOL_PROPERTY
U+W
SciTegic.value.DoubleValue
-49.529

@<SCITEGIC>MOL_PROPERTY
Grad RMS
SciTegic.value.DoubleValue
0.000000

@<SCITEGIC>MOL_PROPERTY
U
SciTegic.value.DoubleValue
13.666

@<SCITEGIC>MOL_PROPERTY
W
SciTegic.value.DoubleValue
-63.195

@<SCITEGIC>MOL_PROPERTY
W(PB)
SciTegic.value.DoubleValue
-65.299

@<SCITEGIC>MOL_PROPERTY
W(SA)
SciTegic.value.DoubleValue
2.103

@<SCITEGIC>MOL_PROPERTY
Valence
SciTegic.value.DoubleValue
15.226

@<SCITEGIC>MOL_PROPERTY
Coulomb
SciTegic.value.DoubleValue
-1.822

@<SCITEGIC>MOL_PROPERTY
VdW
SciTegic.value.DoubleValue
0.261

@<SCITEGIC>MOL_PROPERTY
VdW6
SciTegic.value.DoubleValue
-4.165

@<SCITEGIC>MOL_PROPERTY
VdW12
SciTegic.value.DoubleValue
4.426

@<SCITEGIC>MOL_PROPERTY
Bond
SciTegic.value.DoubleValue
0.044

@<SCITEGIC>MOL_PROPERTY
Angle
SciTegic.value.DoubleValue
2.229

@<SCITEGIC>MOL_PROPERTY
Pdih
SciTegic.value.DoubleValue
12.953

@<SCITEGIC>MOL_PROPERTY
Idih
SciTegic.value.DoubleValue
0.000

@<SCITEGIC>MOL_PROPERTY
Tether
SciTegic.value.DoubleValue
0.000

@<TRIPOS>MOLECULE
guest-s20_confgen4.mol2 : confsearch ligand conformer 383
          17          16           1
SMALL
USER_CHARGES
 
@<TRIPOS>ATOM
       1    C1      22.820822   18.944692   23.593492 C.2        1 MOL1         0.6132
       2    O1      22.789699   19.620085   24.603366 O.co2      1 MOL1        -0.6749
       3    O2      23.280337   17.820470   23.550840 O.co2      1 MOL1        -0.6749
       4    C2      22.261575   19.545399   22.310493 C.3        1 MOL1        -0.1955
       5    H1      22.732902   19.037824   21.460314 H          1 MOL1         0.0733
       6    H2      22.572753   20.595625   22.269219 H          1 MOL1         0.0733
       7    C3      20.749634   19.447136   22.234441 C.2        1 MOL1        -0.1395
       8    H3      20.217475   20.060809   22.959219 H          1 MOL1         0.0816
       9    C4      20.094324   18.672397   21.360908 C.2        1 MOL1        -0.1394
      10    H4      20.661205   18.068422   20.653134 H          1 MOL1         0.0816
      11    C5      18.587730   18.523430   21.232171 C.3        1 MOL1        -0.1826
      12    H5      18.289383   18.786930   20.208422 H          1 MOL1         0.0736
      13    H6      18.322751   17.464365   21.353362 H          1 MOL1         0.0736
      14    C6      17.761622   19.365487   22.229424 C.3        1 MOL1        -0.2882
      15    H7      17.960966   20.437340   22.099826 H          1 MOL1         0.0749
      16    H8      16.687350   19.202255   22.073457 H          1 MOL1         0.0749
      17    H9      17.996335   19.090456   23.266129 H          1 MOL1         0.0749
@<TRIPOS>BOND
    1     1     2    1
    2     1     3    2
    3     1     4    1
    4     4     5    1
    5     4     6    1
    6     4     7    1
    7     7     8    1
    8     7     9    2
    9     9    10    1
   10     9    11    1
   11    11    12    1
   12    11    13    1
   13    11    14    1
   14    14    15    1
   15    14    16    1
   16    14    17    1
@<TRIPOS>SUBSTRUCTURE
       1 MOL1            1 RESIDUE      1      MOL     
@<SCITEGIC>MOL_PROPERTY
VConf Rank
SciTegic.value.IntegerValue
383

@<SCITEGIC>MOL_PROPERTY
Conf_Id
SciTegic.value.IntegerValue
19

@<SCITEGIC>MOL_PROPERTY
Delta U+W
SciTegic.value.DoubleValue
-0.496

@<SCITEGIC>MOL_PROPERTY
U+W
SciTegic.value.DoubleValue
-49.923

@<SCITEGIC>MOL_PROPERTY
Grad RMS
SciTegic.value.DoubleValue
0.000000

@<SCITEGIC>MOL_PROPERTY
U
SciTegic.value.DoubleValue
13.863

@<SCITEGIC>MOL_PROPERTY
W
SciTegic.value.DoubleValue
-63.786

@<SCITEGIC>MOL_PROPERTY
W(PB)
SciTegic.value.DoubleValue
-65.856

@<SCITEGIC>MOL_PROPERTY
W(SA)
SciTegic.value.DoubleValue
2.070

@<SCITEGIC>MOL_PROPERTY
Valence
SciTegic.value.DoubleValue
14.117

@<SCITEGIC>MOL_PROPERTY
Coulomb
SciTegic.value.DoubleValue
-1.228

@<SCITEGIC>MOL_PROPERTY
VdW
SciTegic.value.DoubleValue
0.974

@<SCITEGIC>MOL_PROPERTY
VdW6
SciTegic.value.DoubleValue
-4.885

@<SCITEGIC>MOL_PROPERTY
VdW12
SciTegic.value.DoubleValue
5.859

@<SCITEGIC>MOL_PROPERTY
Bond
SciTegic.value.DoubleValue
0.094

@<SCITEGIC>MOL_PROPERTY
Angle
SciTegic.value.DoubleValue
2.818

@<SCITEGIC>MOL_PROPERTY
Pdih
SciTegic.value.DoubleValue
11.205

@<SCITEGIC>MOL_PROPERTY
Idih
SciTegic.value.DoubleValue
0.000

@<SCITEGIC>MOL_PROPERTY
Tether
SciTegic.value.DoubleValue
0.000

@<TRIPOS>MOLECULE
guest-s20_confgen4.mol2 : confsearch ligand conformer 384
          17          16           1
SMALL
USER_CHARGES
 
@<TRIPOS>ATOM
       1    C1      22.379729   20.893029   21.629735 C.2        1 MOL1         0.6132
       2    O1      22.723881   20.536288   20.520182 O.co2      1 MOL1        -0.6749
       3    O2      22.219796   22.056601   21.942023 O.co2      1 MOL1        -0.6749
       4    C2      22.145916   19.826266   22.691421 C.3        1 MOL1        -0.1955
       5    H1      22.578635   20.188798   23.631000 H          1 MOL1         0.0733
       6    H2      22.706774   18.928415   22.405140 H          1 MOL1         0.0733
       7    C3      20.674822   19.510228   22.883164 C.2        1 MOL1        -0.1395
       8    H3      20.079114   20.313594   23.315544 H          1 MOL1         0.0816
       9    C4      20.107127   18.346475   22.552079 C.2        1 MOL1        -0.1394
      10    H4      20.702282   17.545350   22.114990 H          1 MOL1         0.0816
      11    C5      18.639436   18.034424   22.741404 C.3        1 MOL1        -0.1826
      12    H5      18.527943   17.056225   23.228455 H          1 MOL1         0.0736
      13    H6      18.172099   18.773256   23.406935 H          1 MOL1         0.0736
      14    C6      17.897329   18.023586   21.390793 C.3        1 MOL1        -0.2882
      15    H7      18.319488   17.265576   20.718016 H          1 MOL1         0.0749
      16    H8      16.832784   17.797110   21.534034 H          1 MOL1         0.0749
      17    H9      17.974423   19.000787   20.896005 H          1 MOL1         0.0749
@<TRIPOS>BOND
    1     1     2    1
    2     1     3    2
    3     1     4    1
    4     4     5    1
    5     4     6    1
    6     4     7    1
    7     7     8    1
    8     7     9    2
    9     9    10    1
   10     9    11    1
   11    11    12    1
   12    11    13    1
   13    11    14    1
   14    14    15    1
   15    14    16    1
   16    14    17    1
@<TRIPOS>SUBSTRUCTURE
       1 MOL1            1 RESIDUE      1      MOL     
@<SCITEGIC>MOL_PROPERTY
VConf Rank
SciTegic.value.IntegerValue
384

@<SCITEGIC>MOL_PROPERTY
Conf_Id
SciTegic.value.IntegerValue
7

@<SCITEGIC>MOL_PROPERTY
Delta U+W
SciTegic.value.DoubleValue
-0.041

@<SCITEGIC>MOL_PROPERTY
U+W
SciTegic.value.DoubleValue
-49.468

@<SCITEGIC>MOL_PROPERTY
Grad RMS
SciTegic.value.DoubleValue
0.000000

@<SCITEGIC>MOL_PROPERTY
U
SciTegic.value.DoubleValue
14.121

@<SCITEGIC>MOL_PROPERTY
W
SciTegic.value.DoubleValue
-63.589

@<SCITEGIC>MOL_PROPERTY
W(PB)
SciTegic.value.DoubleValue
-65.660

@<SCITEGIC>MOL_PROPERTY
W(SA)
SciTegic.value.DoubleValue
2.071

@<SCITEGIC>MOL_PROPERTY
Valence
SciTegic.value.DoubleValue
15.230

@<SCITEGIC>MOL_PROPERTY
Coulomb
SciTegic.value.DoubleValue
-1.333

@<SCITEGIC>MOL_PROPERTY
VdW
SciTegic.value.DoubleValue
0.224

@<SCITEGIC>MOL_PROPERTY
VdW6
SciTegic.value.DoubleValue
-4.212

@<SCITEGIC>MOL_PROPERTY
VdW12
SciTegic.value.DoubleValue
4.436

@<SCITEGIC>MOL_PROPERTY
Bond
SciTegic.value.DoubleValue
0.044

@<SCITEGIC>MOL_PROPERTY
Angle
SciTegic.value.DoubleValue
2.230

@<SCITEGIC>MOL_PROPERTY
Pdih
SciTegic.value.DoubleValue
12.956

@<SCITEGIC>MOL_PROPERTY
Idih
SciTegic.value.DoubleValue
0.000

@<SCITEGIC>MOL_PROPERTY
Tether
SciTegic.value.DoubleValue
0.000

@<TRIPOS>MOLECULE
guest-s20_confgen4.mol2 : confsearch ligand conformer 385
          17          16           1
SMALL
USER_CHARGES
 
@<TRIPOS>ATOM
       1    C1      20.863305   18.433912   24.793082 C.2        1 MOL1         0.6132
       2    O1      20.889346   17.228912   24.637232 O.co2      1 MOL1        -0.6749
       3    O2      20.218656   18.984359   25.664011 O.co2      1 MOL1        -0.6749
       4    C2      21.707020   19.300466   23.863132 C.3        1 MOL1        -0.1955
       5    H1      22.598841   18.726495   23.585678 H          1 MOL1         0.0733
       6    H2      22.068829   20.159071   24.440723 H          1 MOL1         0.0733
       7    C3      21.004526   19.791256   22.605155 C.2        1 MOL1        -0.1395
       8    H3      21.624554   20.407967   21.955710 H          1 MOL1         0.0816
       9    C4      19.739248   19.528414   22.257330 C.2        1 MOL1        -0.1394
      10    H4      19.098227   18.913795   22.888256 H          1 MOL1         0.0816
      11    C5      19.086853   20.043164   20.993465 C.3        1 MOL1        -0.1826
      12    H5      18.105891   20.475634   21.232635 H          1 MOL1         0.0736
      13    H6      19.687396   20.849849   20.551017 H          1 MOL1         0.0736
      14    C6      18.911825   18.912643   19.960835 C.3        1 MOL1        -0.2882
      15    H7      18.436823   19.291443   19.046535 H          1 MOL1         0.0749
      16    H8      19.883630   18.481365   19.686628 H          1 MOL1         0.0749
      17    H9      18.282437   18.108329   20.363832 H          1 MOL1         0.0749
@<TRIPOS>BOND
    1     1     2    1
    2     1     3    2
    3     1     4    1
    4     4     5    1
    5     4     6    1
    6     4     7    1
    7     7     8    1
    8     7     9    2
    9     9    10    1
   10     9    11    1
   11    11    12    1
   12    11    13    1
   13    11    14    1
   14    14    15    1
   15    14    16    1
   16    14    17    1
@<TRIPOS>SUBSTRUCTURE
       1 MOL1            1 RESIDUE      1      MOL     
@<SCITEGIC>MOL_PROPERTY
VConf Rank
SciTegic.value.IntegerValue
385

@<SCITEGIC>MOL_PROPERTY
Conf_Id
SciTegic.value.IntegerValue
39

@<SCITEGIC>MOL_PROPERTY
Delta U+W
SciTegic.value.DoubleValue
-0.422

@<SCITEGIC>MOL_PROPERTY
U+W
SciTegic.value.DoubleValue
-49.849

@<SCITEGIC>MOL_PROPERTY
Grad RMS
SciTegic.value.DoubleValue
0.000000

@<SCITEGIC>MOL_PROPERTY
U
SciTegic.value.DoubleValue
14.465

@<SCITEGIC>MOL_PROPERTY
W
SciTegic.value.DoubleValue
-64.314

@<SCITEGIC>MOL_PROPERTY
W(PB)
SciTegic.value.DoubleValue
-66.406

@<SCITEGIC>MOL_PROPERTY
W(SA)
SciTegic.value.DoubleValue
2.093

@<SCITEGIC>MOL_PROPERTY
Valence
SciTegic.value.DoubleValue
14.072

@<SCITEGIC>MOL_PROPERTY
Coulomb
SciTegic.value.DoubleValue
-0.199

@<SCITEGIC>MOL_PROPERTY
VdW
SciTegic.value.DoubleValue
0.592

@<SCITEGIC>MOL_PROPERTY
VdW6
SciTegic.value.DoubleValue
-5.019

@<SCITEGIC>MOL_PROPERTY
VdW12
SciTegic.value.DoubleValue
5.611

@<SCITEGIC>MOL_PROPERTY
Bond
SciTegic.value.DoubleValue
0.085

@<SCITEGIC>MOL_PROPERTY
Angle
SciTegic.value.DoubleValue
2.748

@<SCITEGIC>MOL_PROPERTY
Pdih
SciTegic.value.DoubleValue
11.238

@<SCITEGIC>MOL_PROPERTY
Idih
SciTegic.value.DoubleValue
0.001

@<SCITEGIC>MOL_PROPERTY
Tether
SciTegic.value.DoubleValue
0.000

@<TRIPOS>MOLECULE
guest-s20_confgen4.mol2 : confsearch ligand conformer 386
          17          16           1
SMALL
USER_CHARGES
 
@<TRIPOS>ATOM
       1    C1      19.707147   21.677425   24.124578 C.2        1 MOL1         0.6132
       2    O1      18.560866   22.016798   24.343268 O.co2      1 MOL1        -0.6749
       3    O2      20.627401   22.460965   23.998014 O.co2      1 MOL1        -0.6749
       4    C2      20.005302   20.188383   24.008562 C.3        1 MOL1        -0.1955
       5    H1      19.428677   19.669969   24.783326 H          1 MOL1         0.0733
       6    H2      21.065898   20.031834   24.239365 H          1 MOL1         0.0733
       7    C3      19.658547   19.631397   22.640983 C.2        1 MOL1        -0.1395
       8    H3      18.595048   19.605413   22.405409 H          1 MOL1         0.0816
       9    C4      20.560867   19.195397   21.756704 C.2        1 MOL1        -0.1394
      10    H4      21.624340   19.224430   21.991744 H          1 MOL1         0.0816
      11    C5      20.213487   18.643824   20.392001 C.3        1 MOL1        -0.1826
      12    H5      19.172966   18.884269   20.133693 H          1 MOL1         0.0736
      13    H6      20.845337   19.117908   19.628754 H          1 MOL1         0.0736
      14    C6      20.410537   17.116056   20.345533 C.3        1 MOL1        -0.2882
      15    H7      19.768685   16.617538   21.083846 H          1 MOL1         0.0749
      16    H8      20.157560   16.721731   19.352761 H          1 MOL1         0.0749
      17    H9      21.453047   16.848771   20.562698 H          1 MOL1         0.0749
@<TRIPOS>BOND
    1     1     2    1
    2     1     3    2
    3     1     4    1
    4     4     5    1
    5     4     6    1
    6     4     7    1
    7     7     8    1
    8     7     9    2
    9     9    10    1
   10     9    11    1
   11    11    12    1
   12    11    13    1
   13    11    14    1
   14    14    15    1
   15    14    16    1
   16    14    17    1
@<TRIPOS>SUBSTRUCTURE
       1 MOL1            1 RESIDUE      1      MOL     
@<SCITEGIC>MOL_PROPERTY
VConf Rank
SciTegic.value.IntegerValue
386

@<SCITEGIC>MOL_PROPERTY
Conf_Id
SciTegic.value.IntegerValue
38

@<SCITEGIC>MOL_PROPERTY
Delta U+W
SciTegic.value.DoubleValue
0.000

@<SCITEGIC>MOL_PROPERTY
U+W
SciTegic.value.DoubleValue
-49.427

@<SCITEGIC>MOL_PROPERTY
Grad RMS
SciTegic.value.DoubleValue
0.000000

@<SCITEGIC>MOL_PROPERTY
U
SciTegic.value.DoubleValue
13.666

@<SCITEGIC>MOL_PROPERTY
W
SciTegic.value.DoubleValue
-63.093

@<SCITEGIC>MOL_PROPERTY
W(PB)
SciTegic.value.DoubleValue
-65.225

@<SCITEGIC>MOL_PROPERTY
W(SA)
SciTegic.value.DoubleValue
2.132

@<SCITEGIC>MOL_PROPERTY
Valence
SciTegic.value.DoubleValue
15.226

@<SCITEGIC>MOL_PROPERTY
Coulomb
SciTegic.value.DoubleValue
-1.822

@<SCITEGIC>MOL_PROPERTY
VdW
SciTegic.value.DoubleValue
0.261

@<SCITEGIC>MOL_PROPERTY
VdW6
SciTegic.value.DoubleValue
-4.165

@<SCITEGIC>MOL_PROPERTY
VdW12
SciTegic.value.DoubleValue
4.426

@<SCITEGIC>MOL_PROPERTY
Bond
SciTegic.value.DoubleValue
0.044

@<SCITEGIC>MOL_PROPERTY
Angle
SciTegic.value.DoubleValue
2.229

@<SCITEGIC>MOL_PROPERTY
Pdih
SciTegic.value.DoubleValue
12.953

@<SCITEGIC>MOL_PROPERTY
Idih
SciTegic.value.DoubleValue
0.000

@<SCITEGIC>MOL_PROPERTY
Tether
SciTegic.value.DoubleValue
0.000

@<TRIPOS>MOLECULE
guest-s20_confgen4.mol2 : confsearch ligand conformer 387
          17          16           1
SMALL
USER_CHARGES
 
@<TRIPOS>ATOM
       1    C1      23.014174   20.382286   21.657856 C.2        1 MOL1         0.6132
       2    O1      23.558947   20.512586   22.736310 O.co2      1 MOL1        -0.6749
       3    O2      23.165678   21.153515   20.730918 O.co2      1 MOL1        -0.6749
       4    C2      22.095391   19.185040   21.452814 C.3        1 MOL1        -0.1955
       5    H1      22.386657   18.403170   22.164491 H          1 MOL1         0.0733
       6    H2      22.280702   18.788879   20.447715 H          1 MOL1         0.0733
       7    C3      20.629954   19.543935   21.609126 C.2        1 MOL1        -0.1395
       8    H3      20.225786   20.196094   20.835473 H          1 MOL1         0.0816
       9    C4      19.854334   19.115562   22.609695 C.2        1 MOL1        -0.1394
      10    H4      20.259950   18.466033   23.384710 H          1 MOL1         0.0816
      11    C5      18.394289   19.477672   22.766105 C.3        1 MOL1        -0.1826
      12    H5      18.202481   19.807597   23.796102 H          1 MOL1         0.0736
      13    H6      18.135176   20.321170   22.111437 H          1 MOL1         0.0736
      14    C6      17.487191   18.276877   22.433952 C.3        1 MOL1        -0.2882
      15    H7      17.698653   17.430138   23.100094 H          1 MOL1         0.0749
      16    H8      16.429128   18.545472   22.549907 H          1 MOL1         0.0749
      17    H9      17.643032   17.945077   21.398953 H          1 MOL1         0.0749
@<TRIPOS>BOND
    1     1     2    1
    2     1     3    2
    3     1     4    1
    4     4     5    1
    5     4     6    1
    6     4     7    1
    7     7     8    1
    8     7     9    2
    9     9    10    1
   10     9    11    1
   11    11    12    1
   12    11    13    1
   13    11    14    1
   14    14    15    1
   15    14    16    1
   16    14    17    1
@<TRIPOS>SUBSTRUCTURE
       1 MOL1            1 RESIDUE      1      MOL     
@<SCITEGIC>MOL_PROPERTY
VConf Rank
SciTegic.value.IntegerValue
387

@<SCITEGIC>MOL_PROPERTY
Conf_Id
SciTegic.value.IntegerValue
35

@<SCITEGIC>MOL_PROPERTY
Delta U+W
SciTegic.value.DoubleValue
-0.102

@<SCITEGIC>MOL_PROPERTY
U+W
SciTegic.value.DoubleValue
-49.529

@<SCITEGIC>MOL_PROPERTY
Grad RMS
SciTegic.value.DoubleValue
0.000000

@<SCITEGIC>MOL_PROPERTY
U
SciTegic.value.DoubleValue
13.666

@<SCITEGIC>MOL_PROPERTY
W
SciTegic.value.DoubleValue
-63.195

@<SCITEGIC>MOL_PROPERTY
W(PB)
SciTegic.value.DoubleValue
-65.299

@<SCITEGIC>MOL_PROPERTY
W(SA)
SciTegic.value.DoubleValue
2.103

@<SCITEGIC>MOL_PROPERTY
Valence
SciTegic.value.DoubleValue
15.226

@<SCITEGIC>MOL_PROPERTY
Coulomb
SciTegic.value.DoubleValue
-1.822

@<SCITEGIC>MOL_PROPERTY
VdW
SciTegic.value.DoubleValue
0.261

@<SCITEGIC>MOL_PROPERTY
VdW6
SciTegic.value.DoubleValue
-4.165

@<SCITEGIC>MOL_PROPERTY
VdW12
SciTegic.value.DoubleValue
4.426

@<SCITEGIC>MOL_PROPERTY
Bond
SciTegic.value.DoubleValue
0.044

@<SCITEGIC>MOL_PROPERTY
Angle
SciTegic.value.DoubleValue
2.229

@<SCITEGIC>MOL_PROPERTY
Pdih
SciTegic.value.DoubleValue
12.953

@<SCITEGIC>MOL_PROPERTY
Idih
SciTegic.value.DoubleValue
0.000

@<SCITEGIC>MOL_PROPERTY
Tether
SciTegic.value.DoubleValue
0.000

@<TRIPOS>MOLECULE
guest-s20_confgen4.mol2 : confsearch ligand conformer 388
          17          16           1
SMALL
USER_CHARGES
 
@<TRIPOS>ATOM
       1    C1      18.187598   18.354180   20.201074 C.2        1 MOL1         0.6132
       2    O1      18.693580   17.671792   19.331994 O.co2      1 MOL1        -0.6749
       3    O2      17.123524   18.092641   20.726614 O.co2      1 MOL1        -0.6749
       4    C2      18.924246   19.610172   20.647761 C.3        1 MOL1        -0.1955
       5    H1      18.190587   20.304457   21.074724 H          1 MOL1         0.0733
       6    H2      19.338146   20.091181   19.753990 H          1 MOL1         0.0733
       7    C3      20.033252   19.311184   21.638779 C.2        1 MOL1        -0.1395
       8    H3      20.873400   18.755222   21.226291 H          1 MOL1         0.0816
       9    C4      20.006377   19.683179   22.924707 C.2        1 MOL1        -0.1394
      10    H4      19.146308   20.234816   23.302943 H          1 MOL1         0.0816
      11    C5      21.076398   19.415088   23.969585 C.3        1 MOL1        -0.1826
      12    H5      21.414013   20.372786   24.388318 H          1 MOL1         0.0736
      13    H6      20.625690   18.868551   24.809037 H          1 MOL1         0.0736
      14    C6      22.303904   18.628612   23.458984 C.3        1 MOL1        -0.2882
      15    H7      22.813145   19.172893   22.652862 H          1 MOL1         0.0749
      16    H8      23.027431   18.475343   24.270184 H          1 MOL1         0.0749
      17    H9      22.009267   17.641024   23.080370 H          1 MOL1         0.0749
@<TRIPOS>BOND
    1     1     2    1
    2     1     3    2
    3     1     4    1
    4     4     5    1
    5     4     6    1
    6     4     7    1
    7     7     8    1
    8     7     9    2
    9     9    10    1
   10     9    11    1
   11    11    12    1
   12    11    13    1
   13    11    14    1
   14    14    15    1
   15    14    16    1
   16    14    17    1
@<TRIPOS>SUBSTRUCTURE
       1 MOL1            1 RESIDUE      1      MOL     
@<SCITEGIC>MOL_PROPERTY
VConf Rank
SciTegic.value.IntegerValue
388

@<SCITEGIC>MOL_PROPERTY
Conf_Id
SciTegic.value.IntegerValue
19

@<SCITEGIC>MOL_PROPERTY
Delta U+W
SciTegic.value.DoubleValue
-0.496

@<SCITEGIC>MOL_PROPERTY
U+W
SciTegic.value.DoubleValue
-49.923

@<SCITEGIC>MOL_PROPERTY
Grad RMS
SciTegic.value.DoubleValue
0.000000

@<SCITEGIC>MOL_PROPERTY
U
SciTegic.value.DoubleValue
13.863

@<SCITEGIC>MOL_PROPERTY
W
SciTegic.value.DoubleValue
-63.786

@<SCITEGIC>MOL_PROPERTY
W(PB)
SciTegic.value.DoubleValue
-65.856

@<SCITEGIC>MOL_PROPERTY
W(SA)
SciTegic.value.DoubleValue
2.070

@<SCITEGIC>MOL_PROPERTY
Valence
SciTegic.value.DoubleValue
14.117

@<SCITEGIC>MOL_PROPERTY
Coulomb
SciTegic.value.DoubleValue
-1.228

@<SCITEGIC>MOL_PROPERTY
VdW
SciTegic.value.DoubleValue
0.974

@<SCITEGIC>MOL_PROPERTY
VdW6
SciTegic.value.DoubleValue
-4.885

@<SCITEGIC>MOL_PROPERTY
VdW12
SciTegic.value.DoubleValue
5.859

@<SCITEGIC>MOL_PROPERTY
Bond
SciTegic.value.DoubleValue
0.094

@<SCITEGIC>MOL_PROPERTY
Angle
SciTegic.value.DoubleValue
2.818

@<SCITEGIC>MOL_PROPERTY
Pdih
SciTegic.value.DoubleValue
11.205

@<SCITEGIC>MOL_PROPERTY
Idih
SciTegic.value.DoubleValue
0.000

@<SCITEGIC>MOL_PROPERTY
Tether
SciTegic.value.DoubleValue
0.000

@<TRIPOS>MOLECULE
guest-s20_confgen4.mol2 : confsearch ligand conformer 389
          17          16           1
SMALL
USER_CHARGES
 
@<TRIPOS>ATOM
       1    C1      17.866383   17.246048   22.462223 C.2        1 MOL1         0.6132
       2    O1      17.210729   17.775795   23.337608 O.co2      1 MOL1        -0.6749
       3    O2      17.389937   16.828901   21.424924 O.co2      1 MOL1        -0.6749
       4    C2      19.365349   17.085383   22.679282 C.3        1 MOL1        -0.1955
       5    H1      19.649209   16.086739   22.327689 H          1 MOL1         0.0733
       6    H2      19.560871   17.113441   23.758003 H          1 MOL1         0.0733
       7    C3      20.174132   18.142923   21.952478 C.2        1 MOL1        -0.1395
       8    H3      20.152223   18.079252   20.864966 H          1 MOL1         0.0816
       9    C4      20.871329   19.106328   22.562382 C.2        1 MOL1        -0.1394
      10    H4      20.888696   19.172616   23.649748 H          1 MOL1         0.0816
      11    C5      21.674778   20.161663   21.835696 C.3        1 MOL1        -0.1826
      12    H5      22.677011   20.235620   22.279072 H          1 MOL1         0.0736
      13    H6      21.815558   19.880443   20.782935 H          1 MOL1         0.0736
      14    C6      20.978341   21.534529   21.907835 C.3        1 MOL1        -0.2882
      15    H7      20.859311   21.859044   22.949923 H          1 MOL1         0.0749
      16    H8      21.565315   22.296413   21.378627 H          1 MOL1         0.0749
      17    H9      19.982403   21.490870   21.447529 H          1 MOL1         0.0749
@<TRIPOS>BOND
    1     1     2    1
    2     1     3    2
    3     1     4    1
    4     4     5    1
    5     4     6    1
    6     4     7    1
    7     7     8    1
    8     7     9    2
    9     9    10    1
   10     9    11    1
   11    11    12    1
   12    11    13    1
   13    11    14    1
   14    14    15    1
   15    14    16    1
   16    14    17    1
@<TRIPOS>SUBSTRUCTURE
       1 MOL1            1 RESIDUE      1      MOL     
@<SCITEGIC>MOL_PROPERTY
VConf Rank
SciTegic.value.IntegerValue
389

@<SCITEGIC>MOL_PROPERTY
Conf_Id
SciTegic.value.IntegerValue
7

@<SCITEGIC>MOL_PROPERTY
Delta U+W
SciTegic.value.DoubleValue
-0.041

@<SCITEGIC>MOL_PROPERTY
U+W
SciTegic.value.DoubleValue
-49.468

@<SCITEGIC>MOL_PROPERTY
Grad RMS
SciTegic.value.DoubleValue
0.000000

@<SCITEGIC>MOL_PROPERTY
U
SciTegic.value.DoubleValue
14.121

@<SCITEGIC>MOL_PROPERTY
W
SciTegic.value.DoubleValue
-63.589

@<SCITEGIC>MOL_PROPERTY
W(PB)
SciTegic.value.DoubleValue
-65.660

@<SCITEGIC>MOL_PROPERTY
W(SA)
SciTegic.value.DoubleValue
2.071

@<SCITEGIC>MOL_PROPERTY
Valence
SciTegic.value.DoubleValue
15.230

@<SCITEGIC>MOL_PROPERTY
Coulomb
SciTegic.value.DoubleValue
-1.333

@<SCITEGIC>MOL_PROPERTY
VdW
SciTegic.value.DoubleValue
0.224

@<SCITEGIC>MOL_PROPERTY
VdW6
SciTegic.value.DoubleValue
-4.212

@<SCITEGIC>MOL_PROPERTY
VdW12
SciTegic.value.DoubleValue
4.436

@<SCITEGIC>MOL_PROPERTY
Bond
SciTegic.value.DoubleValue
0.044

@<SCITEGIC>MOL_PROPERTY
Angle
SciTegic.value.DoubleValue
2.230

@<SCITEGIC>MOL_PROPERTY
Pdih
SciTegic.value.DoubleValue
12.956

@<SCITEGIC>MOL_PROPERTY
Idih
SciTegic.value.DoubleValue
0.000

@<SCITEGIC>MOL_PROPERTY
Tether
SciTegic.value.DoubleValue
0.000

@<TRIPOS>MOLECULE
guest-s20_confgen4.mol2 : confsearch ligand conformer 390
          17          16           1
SMALL
USER_CHARGES
 
@<TRIPOS>ATOM
       1    C1      22.697523   20.254053   22.532530 C.2        1 MOL1         0.6132
       2    O1      23.279158   19.268995   22.942842 O.co2      1 MOL1        -0.6749
       3    O2      22.720757   21.330653   23.095980 O.co2      1 MOL1        -0.6749
       4    C2      21.919217   20.140576   21.225266 C.3        1 MOL1        -0.1955
       5    H1      22.433520   19.410036   20.589993 H          1 MOL1         0.0733
       6    H2      21.997350   21.101529   20.703552 H          1 MOL1         0.0733
       7    C3      20.453799   19.753233   21.364528 C.2        1 MOL1        -0.1395
       8    H3      19.917063   19.678003   20.419647 H          1 MOL1         0.0816
       9    C4      19.810491   19.508327   22.512209 C.2        1 MOL1        -0.1394
      10    H4      20.323946   19.575632   23.470628 H          1 MOL1         0.0816
      11    C5      18.349070   19.127347   22.596134 C.3        1 MOL1        -0.1826
      12    H5      17.849154   19.741904   23.357005 H          1 MOL1         0.0736
      13    H6      17.842292   19.332032   21.643016 H          1 MOL1         0.0736
      14    C6      18.185090   17.636623   22.950941 C.3        1 MOL1        -0.2882
      15    H7      17.122933   17.366121   23.011864 H          1 MOL1         0.0749
      16    H8      18.655732   17.000722   22.189547 H          1 MOL1         0.0749
      17    H9      18.650313   17.411284   23.919573 H          1 MOL1         0.0749
@<TRIPOS>BOND
    1     1     2    1
    2     1     3    2
    3     1     4    1
    4     4     5    1
    5     4     6    1
    6     4     7    1
    7     7     8    1
    8     7     9    2
    9     9    10    1
   10     9    11    1
   11    11    12    1
   12    11    13    1
   13    11    14    1
   14    14    15    1
   15    14    16    1
   16    14    17    1
@<TRIPOS>SUBSTRUCTURE
       1 MOL1            1 RESIDUE      1      MOL     
@<SCITEGIC>MOL_PROPERTY
VConf Rank
SciTegic.value.IntegerValue
390

@<SCITEGIC>MOL_PROPERTY
Conf_Id
SciTegic.value.IntegerValue
39

@<SCITEGIC>MOL_PROPERTY
Delta U+W
SciTegic.value.DoubleValue
-0.422

@<SCITEGIC>MOL_PROPERTY
U+W
SciTegic.value.DoubleValue
-49.849

@<SCITEGIC>MOL_PROPERTY
Grad RMS
SciTegic.value.DoubleValue
0.000000

@<SCITEGIC>MOL_PROPERTY
U
SciTegic.value.DoubleValue
14.465

@<SCITEGIC>MOL_PROPERTY
W
SciTegic.value.DoubleValue
-64.314

@<SCITEGIC>MOL_PROPERTY
W(PB)
SciTegic.value.DoubleValue
-66.406

@<SCITEGIC>MOL_PROPERTY
W(SA)
SciTegic.value.DoubleValue
2.093

@<SCITEGIC>MOL_PROPERTY
Valence
SciTegic.value.DoubleValue
14.072

@<SCITEGIC>MOL_PROPERTY
Coulomb
SciTegic.value.DoubleValue
-0.199

@<SCITEGIC>MOL_PROPERTY
VdW
SciTegic.value.DoubleValue
0.592

@<SCITEGIC>MOL_PROPERTY
VdW6
SciTegic.value.DoubleValue
-5.019

@<SCITEGIC>MOL_PROPERTY
VdW12
SciTegic.value.DoubleValue
5.611

@<SCITEGIC>MOL_PROPERTY
Bond
SciTegic.value.DoubleValue
0.085

@<SCITEGIC>MOL_PROPERTY
Angle
SciTegic.value.DoubleValue
2.748

@<SCITEGIC>MOL_PROPERTY
Pdih
SciTegic.value.DoubleValue
11.238

@<SCITEGIC>MOL_PROPERTY
Idih
SciTegic.value.DoubleValue
0.001

@<SCITEGIC>MOL_PROPERTY
Tether
SciTegic.value.DoubleValue
0.000

@<TRIPOS>MOLECULE
guest-s20_confgen4.mol2 : confsearch ligand conformer 391
          17          16           1
SMALL
USER_CHARGES
 
@<TRIPOS>ATOM
       1    C1      19.812536   16.381489   23.356105 C.2        1 MOL1         0.6132
       2    O1      19.025932   16.265563   24.275222 O.co2      1 MOL1        -0.6749
       3    O2      20.889535   15.819815   23.318486 O.co2      1 MOL1        -0.6749
       4    C2      19.423036   17.275565   22.186267 C.3        1 MOL1        -0.1955
       5    H1      18.363057   17.100147   21.969051 H          1 MOL1         0.0733
       6    H2      19.988953   16.952477   21.304228 H          1 MOL1         0.0733
       7    C3      19.659082   18.745800   22.475120 C.2        1 MOL1        -0.1395
       8    H3      19.012096   19.179813   23.236857 H          1 MOL1         0.0816
       9    C4      20.584649   19.492038   21.864644 C.2        1 MOL1        -0.1394
      10    H4      21.233265   19.056668   21.105162 H          1 MOL1         0.0816
      11    C5      20.821124   20.957004   22.156662 C.3        1 MOL1        -0.1826
      12    H5      20.321813   21.248174   23.091076 H          1 MOL1         0.0736
      13    H6      21.894675   21.137110   22.303582 H          1 MOL1         0.0736
      14    C6      20.304623   21.841666   21.005289 C.3        1 MOL1        -0.2882
      15    H7      19.226360   21.697514   20.856391 H          1 MOL1         0.0749
      16    H8      20.479550   22.903393   21.222595 H          1 MOL1         0.0749
      17    H9      20.815426   21.597871   20.064505 H          1 MOL1         0.0749
@<TRIPOS>BOND
    1     1     2    1
    2     1     3    2
    3     1     4    1
    4     4     5    1
    5     4     6    1
    6     4     7    1
    7     7     8    1
    8     7     9    2
    9     9    10    1
   10     9    11    1
   11    11    12    1
   12    11    13    1
   13    11    14    1
   14    14    15    1
   15    14    16    1
   16    14    17    1
@<TRIPOS>SUBSTRUCTURE
       1 MOL1            1 RESIDUE      1      MOL     
@<SCITEGIC>MOL_PROPERTY
VConf Rank
SciTegic.value.IntegerValue
391

@<SCITEGIC>MOL_PROPERTY
Conf_Id
SciTegic.value.IntegerValue
38

@<SCITEGIC>MOL_PROPERTY
Delta U+W
SciTegic.value.DoubleValue
0.000

@<SCITEGIC>MOL_PROPERTY
U+W
SciTegic.value.DoubleValue
-49.427

@<SCITEGIC>MOL_PROPERTY
Grad RMS
SciTegic.value.DoubleValue
0.000000

@<SCITEGIC>MOL_PROPERTY
U
SciTegic.value.DoubleValue
13.666

@<SCITEGIC>MOL_PROPERTY
W
SciTegic.value.DoubleValue
-63.093

@<SCITEGIC>MOL_PROPERTY
W(PB)
SciTegic.value.DoubleValue
-65.225

@<SCITEGIC>MOL_PROPERTY
W(SA)
SciTegic.value.DoubleValue
2.132

@<SCITEGIC>MOL_PROPERTY
Valence
SciTegic.value.DoubleValue
15.226

@<SCITEGIC>MOL_PROPERTY
Coulomb
SciTegic.value.DoubleValue
-1.822

@<SCITEGIC>MOL_PROPERTY
VdW
SciTegic.value.DoubleValue
0.261

@<SCITEGIC>MOL_PROPERTY
VdW6
SciTegic.value.DoubleValue
-4.165

@<SCITEGIC>MOL_PROPERTY
VdW12
SciTegic.value.DoubleValue
4.426

@<SCITEGIC>MOL_PROPERTY
Bond
SciTegic.value.DoubleValue
0.044

@<SCITEGIC>MOL_PROPERTY
Angle
SciTegic.value.DoubleValue
2.229

@<SCITEGIC>MOL_PROPERTY
Pdih
SciTegic.value.DoubleValue
12.953

@<SCITEGIC>MOL_PROPERTY
Idih
SciTegic.value.DoubleValue
0.000

@<SCITEGIC>MOL_PROPERTY
Tether
SciTegic.value.DoubleValue
0.000

@<TRIPOS>MOLECULE
guest-s20_confgen4.mol2 : confsearch ligand conformer 392
          17          16           1
SMALL
USER_CHARGES
 
@<TRIPOS>ATOM
       1    C1      18.447970   19.886213   24.741518 C.2        1 MOL1         0.6132
       2    O1      18.994884   20.786626   25.347291 O.co2      1 MOL1        -0.6749
       3    O2      17.914343   18.938532   25.283830 O.co2      1 MOL1        -0.6749
       4    C2      18.424091   19.949625   23.220001 C.3        1 MOL1        -0.1955
       5    H1      18.539999   20.997599   22.918413 H          1 MOL1         0.0733
       6    H2      17.430494   19.628175   22.886922 H          1 MOL1         0.0733
       7    C3      19.492668   19.079945   22.585538 C.2        1 MOL1        -0.1395
       8    H3      19.351755   18.006454   22.707859 H          1 MOL1         0.0816
       9    C4      20.548855   19.554576   21.918137 C.2        1 MOL1        -0.1394
      10    H4      20.690833   20.628211   21.798933 H          1 MOL1         0.0816
      11    C5      21.615493   18.685968   21.289548 C.3        1 MOL1        -0.1826
      12    H5      22.609917   19.057278   21.572004 H          1 MOL1         0.0736
      13    H6      21.544487   17.656472   21.666794 H          1 MOL1         0.0736
      14    C6      21.487861   18.676319   19.753749 C.3        1 MOL1        -0.2882
      15    H7      21.593560   19.690029   19.345522 H          1 MOL1         0.0749
      16    H8      22.264820   18.045037   19.303301 H          1 MOL1         0.0749
      17    H9      20.509497   18.284046   19.446298 H          1 MOL1         0.0749
@<TRIPOS>BOND
    1     1     2    1
    2     1     3    2
    3     1     4    1
    4     4     5    1
    5     4     6    1
    6     4     7    1
    7     7     8    1
    8     7     9    2
    9     9    10    1
   10     9    11    1
   11    11    12    1
   12    11    13    1
   13    11    14    1
   14    14    15    1
   15    14    16    1
   16    14    17    1
@<TRIPOS>SUBSTRUCTURE
       1 MOL1            1 RESIDUE      1      MOL     
@<SCITEGIC>MOL_PROPERTY
VConf Rank
SciTegic.value.IntegerValue
392

@<SCITEGIC>MOL_PROPERTY
Conf_Id
SciTegic.value.IntegerValue
35

@<SCITEGIC>MOL_PROPERTY
Delta U+W
SciTegic.value.DoubleValue
-0.102

@<SCITEGIC>MOL_PROPERTY
U+W
SciTegic.value.DoubleValue
-49.529

@<SCITEGIC>MOL_PROPERTY
Grad RMS
SciTegic.value.DoubleValue
0.000000

@<SCITEGIC>MOL_PROPERTY
U
SciTegic.value.DoubleValue
13.666

@<SCITEGIC>MOL_PROPERTY
W
SciTegic.value.DoubleValue
-63.195

@<SCITEGIC>MOL_PROPERTY
W(PB)
SciTegic.value.DoubleValue
-65.299

@<SCITEGIC>MOL_PROPERTY
W(SA)
SciTegic.value.DoubleValue
2.103

@<SCITEGIC>MOL_PROPERTY
Valence
SciTegic.value.DoubleValue
15.226

@<SCITEGIC>MOL_PROPERTY
Coulomb
SciTegic.value.DoubleValue
-1.822

@<SCITEGIC>MOL_PROPERTY
VdW
SciTegic.value.DoubleValue
0.261

@<SCITEGIC>MOL_PROPERTY
VdW6
SciTegic.value.DoubleValue
-4.165

@<SCITEGIC>MOL_PROPERTY
VdW12
SciTegic.value.DoubleValue
4.426

@<SCITEGIC>MOL_PROPERTY
Bond
SciTegic.value.DoubleValue
0.044

@<SCITEGIC>MOL_PROPERTY
Angle
SciTegic.value.DoubleValue
2.229

@<SCITEGIC>MOL_PROPERTY
Pdih
SciTegic.value.DoubleValue
12.953

@<SCITEGIC>MOL_PROPERTY
Idih
SciTegic.value.DoubleValue
0.000

@<SCITEGIC>MOL_PROPERTY
Tether
SciTegic.value.DoubleValue
0.000

@<TRIPOS>MOLECULE
guest-s20_confgen4.mol2 : confsearch ligand conformer 393
          17          16           1
SMALL
USER_CHARGES
 
@<TRIPOS>ATOM
       1    C1      21.472356   21.045594   20.371664 C.2        1 MOL1         0.6132
       2    O1      20.945021   20.981602   19.278598 O.co2      1 MOL1        -0.6749
       3    O2      21.719744   22.091868   20.938197 O.co2      1 MOL1        -0.6749
       4    C2      21.851610   19.742677   21.063234 C.3        1 MOL1        -0.1955
       5    H1      22.660108   19.954063   21.773327 H          1 MOL1         0.0733
       6    H2      22.261155   19.067227   20.303267 H          1 MOL1         0.0733
       7    C3      20.671902   19.089784   21.758521 C.2        1 MOL1        -0.1395
       8    H3      19.901669   18.712172   21.088267 H          1 MOL1         0.0816
       9    C4      20.556732   18.977531   23.087749 C.2        1 MOL1        -0.1394
      10    H4      21.346108   19.371488   23.727098 H          1 MOL1         0.0816
      11    C5      19.405513   18.341452   23.848465 C.3        1 MOL1        -0.1826
      12    H5      19.798658   17.533776   24.480606 H          1 MOL1         0.0736
      13    H6      18.985153   19.081523   24.542808 H          1 MOL1         0.0736
      14    C6      18.270191   17.780630   22.963846 C.3        1 MOL1        -0.2882
      15    H7      18.644530   16.996895   22.292257 H          1 MOL1         0.0749
      16    H8      17.479416   17.340960   23.585453 H          1 MOL1         0.0749
      17    H9      17.816998   18.573879   22.354862 H          1 MOL1         0.0749
@<TRIPOS>BOND
    1     1     2    1
    2     1     3    2
    3     1     4    1
    4     4     5    1
    5     4     6    1
    6     4     7    1
    7     7     8    1
    8     7     9    2
    9     9    10    1
   10     9    11    1
   11    11    12    1
   12    11    13    1
   13    11    14    1
   14    14    15    1
   15    14    16    1
   16    14    17    1
@<TRIPOS>SUBSTRUCTURE
       1 MOL1            1 RESIDUE      1      MOL     
@<SCITEGIC>MOL_PROPERTY
VConf Rank
SciTegic.value.IntegerValue
393

@<SCITEGIC>MOL_PROPERTY
Conf_Id
SciTegic.value.IntegerValue
19

@<SCITEGIC>MOL_PROPERTY
Delta U+W
SciTegic.value.DoubleValue
-0.496

@<SCITEGIC>MOL_PROPERTY
U+W
SciTegic.value.DoubleValue
-49.923

@<SCITEGIC>MOL_PROPERTY
Grad RMS
SciTegic.value.DoubleValue
0.000000

@<SCITEGIC>MOL_PROPERTY
U
SciTegic.value.DoubleValue
13.863

@<SCITEGIC>MOL_PROPERTY
W
SciTegic.value.DoubleValue
-63.786

@<SCITEGIC>MOL_PROPERTY
W(PB)
SciTegic.value.DoubleValue
-65.856

@<SCITEGIC>MOL_PROPERTY
W(SA)
SciTegic.value.DoubleValue
2.070

@<SCITEGIC>MOL_PROPERTY
Valence
SciTegic.value.DoubleValue
14.117

@<SCITEGIC>MOL_PROPERTY
Coulomb
SciTegic.value.DoubleValue
-1.228

@<SCITEGIC>MOL_PROPERTY
VdW
SciTegic.value.DoubleValue
0.974

@<SCITEGIC>MOL_PROPERTY
VdW6
SciTegic.value.DoubleValue
-4.885

@<SCITEGIC>MOL_PROPERTY
VdW12
SciTegic.value.DoubleValue
5.859

@<SCITEGIC>MOL_PROPERTY
Bond
SciTegic.value.DoubleValue
0.094

@<SCITEGIC>MOL_PROPERTY
Angle
SciTegic.value.DoubleValue
2.818

@<SCITEGIC>MOL_PROPERTY
Pdih
SciTegic.value.DoubleValue
11.205

@<SCITEGIC>MOL_PROPERTY
Idih
SciTegic.value.DoubleValue
0.000

@<SCITEGIC>MOL_PROPERTY
Tether
SciTegic.value.DoubleValue
0.000

@<TRIPOS>MOLECULE
guest-s20_confgen4.mol2 : confsearch ligand conformer 394
          17          16           1
SMALL
USER_CHARGES
 
@<TRIPOS>ATOM
       1    C1      18.459738   20.736495   23.926697 C.2        1 MOL1         0.6132
       2    O1      18.917280   21.846639   23.739484 O.co2      1 MOL1        -0.6749
       3    O2      17.269800   20.489619   23.916654 O.co2      1 MOL1        -0.6749
       4    C2      19.427803   19.592732   24.199613 C.3        1 MOL1        -0.1955
       5    H1      19.004904   18.981450   25.005203 H          1 MOL1         0.0733
       6    H2      20.364646   20.018973   24.578161 H          1 MOL1         0.0733
       7    C3      19.676687   18.737030   22.972179 C.2        1 MOL1        -0.1395
       8    H3      18.820861   18.156813   22.628484 H          1 MOL1         0.0816
       9    C4      20.843463   18.675605   22.323276 C.2        1 MOL1        -0.1394
      10    H4      21.697423   19.259965   22.664355 H          1 MOL1         0.0816
      11    C5      21.088690   17.823927   21.097778 C.3        1 MOL1        -0.1826
      12    H5      22.019553   17.254229   21.222114 H          1 MOL1         0.0736
      13    H6      20.282530   17.087779   20.973677 H          1 MOL1         0.0736
      14    C6      21.184195   18.693978   19.829361 C.3        1 MOL1        -0.2882
      15    H7      22.008504   19.414706   19.909940 H          1 MOL1         0.0749
      16    H8      21.361718   18.070956   18.943135 H          1 MOL1         0.0749
      17    H9      20.253780   19.255111   19.670810 H          1 MOL1         0.0749
@<TRIPOS>BOND
    1     1     2    1
    2     1     3    2
    3     1     4    1
    4     4     5    1
    5     4     6    1
    6     4     7    1
    7     7     8    1
    8     7     9    2
    9     9    10    1
   10     9    11    1
   11    11    12    1
   12    11    13    1
   13    11    14    1
   14    14    15    1
   15    14    16    1
   16    14    17    1
@<TRIPOS>SUBSTRUCTURE
       1 MOL1            1 RESIDUE      1      MOL     
@<SCITEGIC>MOL_PROPERTY
VConf Rank
SciTegic.value.IntegerValue
394

@<SCITEGIC>MOL_PROPERTY
Conf_Id
SciTegic.value.IntegerValue
7

@<SCITEGIC>MOL_PROPERTY
Delta U+W
SciTegic.value.DoubleValue
-0.041

@<SCITEGIC>MOL_PROPERTY
U+W
SciTegic.value.DoubleValue
-49.468

@<SCITEGIC>MOL_PROPERTY
Grad RMS
SciTegic.value.DoubleValue
0.000000

@<SCITEGIC>MOL_PROPERTY
U
SciTegic.value.DoubleValue
14.121

@<SCITEGIC>MOL_PROPERTY
W
SciTegic.value.DoubleValue
-63.589

@<SCITEGIC>MOL_PROPERTY
W(PB)
SciTegic.value.DoubleValue
-65.660

@<SCITEGIC>MOL_PROPERTY
W(SA)
SciTegic.value.DoubleValue
2.071

@<SCITEGIC>MOL_PROPERTY
Valence
SciTegic.value.DoubleValue
15.230

@<SCITEGIC>MOL_PROPERTY
Coulomb
SciTegic.value.DoubleValue
-1.333

@<SCITEGIC>MOL_PROPERTY
VdW
SciTegic.value.DoubleValue
0.224

@<SCITEGIC>MOL_PROPERTY
VdW6
SciTegic.value.DoubleValue
-4.212

@<SCITEGIC>MOL_PROPERTY
VdW12
SciTegic.value.DoubleValue
4.436

@<SCITEGIC>MOL_PROPERTY
Bond
SciTegic.value.DoubleValue
0.044

@<SCITEGIC>MOL_PROPERTY
Angle
SciTegic.value.DoubleValue
2.230

@<SCITEGIC>MOL_PROPERTY
Pdih
SciTegic.value.DoubleValue
12.956

@<SCITEGIC>MOL_PROPERTY
Idih
SciTegic.value.DoubleValue
0.000

@<SCITEGIC>MOL_PROPERTY
Tether
SciTegic.value.DoubleValue
0.000

@<TRIPOS>MOLECULE
guest-s20_confgen4.mol2 : confsearch ligand conformer 395
          17          16           1
SMALL
USER_CHARGES
 
@<TRIPOS>ATOM
       1    C1      17.455175   19.931372   22.464142 C.2        1 MOL1         0.6132
       2    O1      17.264232   19.764533   23.652712 O.co2      1 MOL1        -0.6749
       3    O2      16.787610   19.403616   21.596437 O.co2      1 MOL1        -0.6749
       4    C2      18.575210   20.875808   22.038537 C.3        1 MOL1        -0.1955
       5    H1      18.662075   21.659348   22.800303 H          1 MOL1         0.0733
       6    H2      18.256361   21.382360   21.120136 H          1 MOL1         0.0733
       7    C3      19.933964   20.226295   21.817633 C.2        1 MOL1        -0.1395
       8    H3      20.718814   20.918078   21.514331 H          1 MOL1         0.0816
       9    C4      20.218063   18.926873   21.965235 C.2        1 MOL1        -0.1394
      10    H4      19.451975   18.214208   22.268468 H          1 MOL1         0.0816
      11    C5      21.588249   18.330420   21.731194 C.3        1 MOL1        -0.1826
      12    H5      21.499922   17.435737   21.100115 H          1 MOL1         0.0736
      13    H6      22.228520   19.038062   21.186722 H          1 MOL1         0.0736
      14    C6      22.263226   17.953927   23.064497 C.3        1 MOL1        -0.2882
      15    H7      23.256311   17.520438   22.888630 H          1 MOL1         0.0749
      16    H8      22.385674   18.838845   23.702871 H          1 MOL1         0.0749
      17    H9      21.662026   17.217152   23.613294 H          1 MOL1         0.0749
@<TRIPOS>BOND
    1     1     2    1
    2     1     3    2
    3     1     4    1
    4     4     5    1
    5     4     6    1
    6     4     7    1
    7     7     8    1
    8     7     9    2
    9     9    10    1
   10     9    11    1
   11    11    12    1
   12    11    13    1
   13    11    14    1
   14    14    15    1
   15    14    16    1
   16    14    17    1
@<TRIPOS>SUBSTRUCTURE
       1 MOL1            1 RESIDUE      1      MOL     
@<SCITEGIC>MOL_PROPERTY
VConf Rank
SciTegic.value.IntegerValue
395

@<SCITEGIC>MOL_PROPERTY
Conf_Id
SciTegic.value.IntegerValue
39

@<SCITEGIC>MOL_PROPERTY
Delta U+W
SciTegic.value.DoubleValue
-0.422

@<SCITEGIC>MOL_PROPERTY
U+W
SciTegic.value.DoubleValue
-49.849

@<SCITEGIC>MOL_PROPERTY
Grad RMS
SciTegic.value.DoubleValue
0.000000

@<SCITEGIC>MOL_PROPERTY
U
SciTegic.value.DoubleValue
14.465

@<SCITEGIC>MOL_PROPERTY
W
SciTegic.value.DoubleValue
-64.314

@<SCITEGIC>MOL_PROPERTY
W(PB)
SciTegic.value.DoubleValue
-66.406

@<SCITEGIC>MOL_PROPERTY
W(SA)
SciTegic.value.DoubleValue
2.093

@<SCITEGIC>MOL_PROPERTY
Valence
SciTegic.value.DoubleValue
14.072

@<SCITEGIC>MOL_PROPERTY
Coulomb
SciTegic.value.DoubleValue
-0.199

@<SCITEGIC>MOL_PROPERTY
VdW
SciTegic.value.DoubleValue
0.592

@<SCITEGIC>MOL_PROPERTY
VdW6
SciTegic.value.DoubleValue
-5.019

@<SCITEGIC>MOL_PROPERTY
VdW12
SciTegic.value.DoubleValue
5.611

@<SCITEGIC>MOL_PROPERTY
Bond
SciTegic.value.DoubleValue
0.085

@<SCITEGIC>MOL_PROPERTY
Angle
SciTegic.value.DoubleValue
2.748

@<SCITEGIC>MOL_PROPERTY
Pdih
SciTegic.value.DoubleValue
11.238

@<SCITEGIC>MOL_PROPERTY
Idih
SciTegic.value.DoubleValue
0.001

@<SCITEGIC>MOL_PROPERTY
Tether
SciTegic.value.DoubleValue
0.000

@<TRIPOS>MOLECULE
guest-s20_confgen4.mol2 : confsearch ligand conformer 396
          17          16           1
SMALL
USER_CHARGES
 
@<TRIPOS>ATOM
       1    C1      18.041370   16.910863   22.503379 C.2        1 MOL1         0.6132
       2    O1      18.321599   16.080227   23.345089 O.co2      1 MOL1        -0.6749
       3    O2      17.538521   16.637935   21.431245 O.co2      1 MOL1        -0.6749
       4    C2      18.332082   18.373402   22.813330 C.3        1 MOL1        -0.1955
       5    H1      18.060710   18.554365   23.859809 H          1 MOL1         0.0733
       6    H2      17.668516   18.992967   22.198140 H          1 MOL1         0.0733
       7    C3      19.786019   18.738349   22.581756 C.2        1 MOL1        -0.1395
       8    H3      20.495840   18.279822   23.269584 H          1 MOL1         0.0816
       9    C4      20.209988   19.557114   21.614232 C.2        1 MOL1        -0.1394
      10    H4      19.499953   20.012930   20.924925 H          1 MOL1         0.0816
      11    C5      21.660559   19.916904   21.382469 C.3        1 MOL1        -0.1826
      12    H5      22.319303   19.232511   21.934632 H          1 MOL1         0.0736
      13    H6      21.905896   19.800374   20.318154 H          1 MOL1         0.0736
      14    C6      21.948515   21.366170   21.820385 C.3        1 MOL1        -0.2882
      15    H7      21.734621   21.500364   22.888956 H          1 MOL1         0.0749
      16    H8      23.002333   21.621624   21.649222 H          1 MOL1         0.0749
      17    H9      21.329889   22.076188   21.255934 H          1 MOL1         0.0749
@<TRIPOS>BOND
    1     1     2    1
    2     1     3    2
    3     1     4    1
    4     4     5    1
    5     4     6    1
    6     4     7    1
    7     7     8    1
    8     7     9    2
    9     9    10    1
   10     9    11    1
   11    11    12    1
   12    11    13    1
   13    11    14    1
   14    14    15    1
   15    14    16    1
   16    14    17    1
@<TRIPOS>SUBSTRUCTURE
       1 MOL1            1 RESIDUE      1      MOL     
@<SCITEGIC>MOL_PROPERTY
VConf Rank
SciTegic.value.IntegerValue
396

@<SCITEGIC>MOL_PROPERTY
Conf_Id
SciTegic.value.IntegerValue
38

@<SCITEGIC>MOL_PROPERTY
Delta U+W
SciTegic.value.DoubleValue
0.000

@<SCITEGIC>MOL_PROPERTY
U+W
SciTegic.value.DoubleValue
-49.427

@<SCITEGIC>MOL_PROPERTY
Grad RMS
SciTegic.value.DoubleValue
0.000000

@<SCITEGIC>MOL_PROPERTY
U
SciTegic.value.DoubleValue
13.666

@<SCITEGIC>MOL_PROPERTY
W
SciTegic.value.DoubleValue
-63.093

@<SCITEGIC>MOL_PROPERTY
W(PB)
SciTegic.value.DoubleValue
-65.225

@<SCITEGIC>MOL_PROPERTY
W(SA)
SciTegic.value.DoubleValue
2.132

@<SCITEGIC>MOL_PROPERTY
Valence
SciTegic.value.DoubleValue
15.226

@<SCITEGIC>MOL_PROPERTY
Coulomb
SciTegic.value.DoubleValue
-1.822

@<SCITEGIC>MOL_PROPERTY
VdW
SciTegic.value.DoubleValue
0.261

@<SCITEGIC>MOL_PROPERTY
VdW6
SciTegic.value.DoubleValue
-4.165

@<SCITEGIC>MOL_PROPERTY
VdW12
SciTegic.value.DoubleValue
4.426

@<SCITEGIC>MOL_PROPERTY
Bond
SciTegic.value.DoubleValue
0.044

@<SCITEGIC>MOL_PROPERTY
Angle
SciTegic.value.DoubleValue
2.229

@<SCITEGIC>MOL_PROPERTY
Pdih
SciTegic.value.DoubleValue
12.953

@<SCITEGIC>MOL_PROPERTY
Idih
SciTegic.value.DoubleValue
0.000

@<SCITEGIC>MOL_PROPERTY
Tether
SciTegic.value.DoubleValue
0.000

@<TRIPOS>MOLECULE
guest-s20_confgen4.mol2 : confsearch ligand conformer 397
          17          16           1
SMALL
USER_CHARGES
 
@<TRIPOS>ATOM
       1    C1      20.777202   21.940704   20.557805 C.2        1 MOL1         0.6132
       2    O1      21.097380   21.668563   19.417523 O.co2      1 MOL1        -0.6749
       3    O2      21.296917   22.825692   21.208691 O.co2      1 MOL1        -0.6749
       4    C2      19.660356   21.133592   21.206518 C.3        1 MOL1        -0.1955
       5    H1      19.037797   20.707775   20.410439 H          1 MOL1         0.0733
       6    H2      19.028263   21.829363   21.770317 H          1 MOL1         0.0733
       7    C3      20.186761   20.047195   22.124877 C.2        1 MOL1        -0.1395
       8    H3      20.680511   20.401585   23.029211 H          1 MOL1         0.0816
       9    C4      20.076871   18.737987   21.879667 C.2        1 MOL1        -0.1394
      10    H4      19.585839   18.384365   20.973632 H          1 MOL1         0.0816
      11    C5      20.605886   17.656178   22.794628 C.3        1 MOL1        -0.1826
      12    H5      21.180170   16.924559   22.210278 H          1 MOL1         0.0736
      13    H6      21.298057   18.082451   23.533824 H          1 MOL1         0.0736
      14    C6      19.455333   16.939051   23.527442 C.3        1 MOL1        -0.2882
      15    H7      18.767303   16.469939   22.811917 H          1 MOL1         0.0749
      16    H8      19.845283   16.154800   24.189239 H          1 MOL1         0.0749
      17    H9      18.881597   17.647308   24.139650 H          1 MOL1         0.0749
@<TRIPOS>BOND
    1     1     2    1
    2     1     3    2
    3     1     4    1
    4     4     5    1
    5     4     6    1
    6     4     7    1
    7     7     8    1
    8     7     9    2
    9     9    10    1
   10     9    11    1
   11    11    12    1
   12    11    13    1
   13    11    14    1
   14    14    15    1
   15    14    16    1
   16    14    17    1
@<TRIPOS>SUBSTRUCTURE
       1 MOL1            1 RESIDUE      1      MOL     
@<SCITEGIC>MOL_PROPERTY
VConf Rank
SciTegic.value.IntegerValue
397

@<SCITEGIC>MOL_PROPERTY
Conf_Id
SciTegic.value.IntegerValue
35

@<SCITEGIC>MOL_PROPERTY
Delta U+W
SciTegic.value.DoubleValue
-0.102

@<SCITEGIC>MOL_PROPERTY
U+W
SciTegic.value.DoubleValue
-49.529

@<SCITEGIC>MOL_PROPERTY
Grad RMS
SciTegic.value.DoubleValue
0.000000

@<SCITEGIC>MOL_PROPERTY
U
SciTegic.value.DoubleValue
13.666

@<SCITEGIC>MOL_PROPERTY
W
SciTegic.value.DoubleValue
-63.195

@<SCITEGIC>MOL_PROPERTY
W(PB)
SciTegic.value.DoubleValue
-65.299

@<SCITEGIC>MOL_PROPERTY
W(SA)
SciTegic.value.DoubleValue
2.103

@<SCITEGIC>MOL_PROPERTY
Valence
SciTegic.value.DoubleValue
15.226

@<SCITEGIC>MOL_PROPERTY
Coulomb
SciTegic.value.DoubleValue
-1.822

@<SCITEGIC>MOL_PROPERTY
VdW
SciTegic.value.DoubleValue
0.261

@<SCITEGIC>MOL_PROPERTY
VdW6
SciTegic.value.DoubleValue
-4.165

@<SCITEGIC>MOL_PROPERTY
VdW12
SciTegic.value.DoubleValue
4.426

@<SCITEGIC>MOL_PROPERTY
Bond
SciTegic.value.DoubleValue
0.044

@<SCITEGIC>MOL_PROPERTY
Angle
SciTegic.value.DoubleValue
2.229

@<SCITEGIC>MOL_PROPERTY
Pdih
SciTegic.value.DoubleValue
12.953

@<SCITEGIC>MOL_PROPERTY
Idih
SciTegic.value.DoubleValue
0.000

@<SCITEGIC>MOL_PROPERTY
Tether
SciTegic.value.DoubleValue
0.000

@<TRIPOS>MOLECULE
guest-s20_confgen4.mol2 : confsearch ligand conformer 398
          17          16           1
SMALL
USER_CHARGES
 
@<TRIPOS>ATOM
       1    C1      19.861613   16.211458   21.715898 C.2        1 MOL1         0.6132
       2    O1      19.580839   16.021565   20.548817 O.co2      1 MOL1        -0.6749
       3    O2      20.681085   15.553025   22.325635 O.co2      1 MOL1        -0.6749
       4    C2      19.139125   17.329890   22.455368 C.3        1 MOL1        -0.1955
       5    H1      19.164084   17.103721   23.528126 H          1 MOL1         0.0733
       6    H2      18.087159   17.309362   22.148031 H          1 MOL1         0.0733
       7    C3      19.737741   18.694649   22.171649 C.2        1 MOL1        -0.1395
       8    H3      19.602414   19.046687   21.150451 H          1 MOL1         0.0816
       9    C4      20.390490   19.428035   23.082021 C.2        1 MOL1        -0.1394
      10    H4      20.510106   19.040722   24.093340 H          1 MOL1         0.0816
      11    C5      21.016126   20.795760   22.866393 C.3        1 MOL1        -0.1826
      12    H5      20.578324   21.505096   23.581709 H          1 MOL1         0.0736
      13    H6      22.083786   20.743043   23.119067 H          1 MOL1         0.0736
      14    C6      20.865182   21.364019   21.437993 C.3        1 MOL1        -0.2882
      15    H7      19.806871   21.481838   21.170602 H          1 MOL1         0.0749
      16    H8      21.342304   22.349841   21.363579 H          1 MOL1         0.0749
      17    H9      21.339617   20.704409   20.699538 H          1 MOL1         0.0749
@<TRIPOS>BOND
    1     1     2    1
    2     1     3    2
    3     1     4    1
    4     4     5    1
    5     4     6    1
    6     4     7    1
    7     7     8    1
    8     7     9    2
    9     9    10    1
   10     9    11    1
   11    11    12    1
   12    11    13    1
   13    11    14    1
   14    14    15    1
   15    14    16    1
   16    14    17    1
@<TRIPOS>SUBSTRUCTURE
       1 MOL1            1 RESIDUE      1      MOL     
@<SCITEGIC>MOL_PROPERTY
VConf Rank
SciTegic.value.IntegerValue
398

@<SCITEGIC>MOL_PROPERTY
Conf_Id
SciTegic.value.IntegerValue
19

@<SCITEGIC>MOL_PROPERTY
Delta U+W
SciTegic.value.DoubleValue
-0.496

@<SCITEGIC>MOL_PROPERTY
U+W
SciTegic.value.DoubleValue
-49.923

@<SCITEGIC>MOL_PROPERTY
Grad RMS
SciTegic.value.DoubleValue
0.000000

@<SCITEGIC>MOL_PROPERTY
U
SciTegic.value.DoubleValue
13.863

@<SCITEGIC>MOL_PROPERTY
W
SciTegic.value.DoubleValue
-63.786

@<SCITEGIC>MOL_PROPERTY
W(PB)
SciTegic.value.DoubleValue
-65.856

@<SCITEGIC>MOL_PROPERTY
W(SA)
SciTegic.value.DoubleValue
2.070

@<SCITEGIC>MOL_PROPERTY
Valence
SciTegic.value.DoubleValue
14.117

@<SCITEGIC>MOL_PROPERTY
Coulomb
SciTegic.value.DoubleValue
-1.228

@<SCITEGIC>MOL_PROPERTY
VdW
SciTegic.value.DoubleValue
0.974

@<SCITEGIC>MOL_PROPERTY
VdW6
SciTegic.value.DoubleValue
-4.885

@<SCITEGIC>MOL_PROPERTY
VdW12
SciTegic.value.DoubleValue
5.859

@<SCITEGIC>MOL_PROPERTY
Bond
SciTegic.value.DoubleValue
0.094

@<SCITEGIC>MOL_PROPERTY
Angle
SciTegic.value.DoubleValue
2.818

@<SCITEGIC>MOL_PROPERTY
Pdih
SciTegic.value.DoubleValue
11.205

@<SCITEGIC>MOL_PROPERTY
Idih
SciTegic.value.DoubleValue
0.000

@<SCITEGIC>MOL_PROPERTY
Tether
SciTegic.value.DoubleValue
0.000

@<TRIPOS>MOLECULE
guest-s20_confgen4.mol2 : confsearch ligand conformer 399
          17          16           1
SMALL
USER_CHARGES
 
@<TRIPOS>ATOM
       1    C1      19.656673   20.566720   19.739601 C.2        1 MOL1         0.6132
       2    O1      19.749125   21.719029   20.114365 O.co2      1 MOL1        -0.6749
       3    O2      20.187152   20.143341   18.731462 O.co2      1 MOL1        -0.6749
       4    C2      18.822272   19.601328   20.571238 C.3        1 MOL1        -0.1955
       5    H1      18.235241   18.985473   19.880151 H          1 MOL1         0.0733
       6    H2      18.109305   20.186837   21.164122 H          1 MOL1         0.0733
       7    C3      19.673435   18.717032   21.462478 C.2        1 MOL1        -0.1395
       8    H3      20.298643   17.994016   20.939431 H          1 MOL1         0.0816
       9    C4      19.691961   18.791125   22.796788 C.2        1 MOL1        -0.1394
      10    H4      19.070439   19.517782   23.319030 H          1 MOL1         0.0816
      11    C5      20.543638   17.910371   23.683498 C.3        1 MOL1        -0.1826
      12    H5      19.929664   17.496348   24.494758 H          1 MOL1         0.0736
      13    H6      20.933528   17.054871   23.114892 H          1 MOL1         0.0736
      14    C6      21.721271   18.702978   24.283454 C.3        1 MOL1        -0.2882
      15    H7      21.359125   19.543247   24.890268 H          1 MOL1         0.0749
      16    H8      22.336174   18.059053   24.925578 H          1 MOL1         0.0749
      17    H9      22.363930   19.106457   23.489807 H          1 MOL1         0.0749
@<TRIPOS>BOND
    1     1     2    1
    2     1     3    2
    3     1     4    1
    4     4     5    1
    5     4     6    1
    6     4     7    1
    7     7     8    1
    8     7     9    2
    9     9    10    1
   10     9    11    1
   11    11    12    1
   12    11    13    1
   13    11    14    1
   14    14    15    1
   15    14    16    1
   16    14    17    1
@<TRIPOS>SUBSTRUCTURE
       1 MOL1            1 RESIDUE      1      MOL     
@<SCITEGIC>MOL_PROPERTY
VConf Rank
SciTegic.value.IntegerValue
399

@<SCITEGIC>MOL_PROPERTY
Conf_Id
SciTegic.value.IntegerValue
7

@<SCITEGIC>MOL_PROPERTY
Delta U+W
SciTegic.value.DoubleValue
-0.041

@<SCITEGIC>MOL_PROPERTY
U+W
SciTegic.value.DoubleValue
-49.468

@<SCITEGIC>MOL_PROPERTY
Grad RMS
SciTegic.value.DoubleValue
0.000000

@<SCITEGIC>MOL_PROPERTY
U
SciTegic.value.DoubleValue
14.121

@<SCITEGIC>MOL_PROPERTY
W
SciTegic.value.DoubleValue
-63.589

@<SCITEGIC>MOL_PROPERTY
W(PB)
SciTegic.value.DoubleValue
-65.660

@<SCITEGIC>MOL_PROPERTY
W(SA)
SciTegic.value.DoubleValue
2.071

@<SCITEGIC>MOL_PROPERTY
Valence
SciTegic.value.DoubleValue
15.230

@<SCITEGIC>MOL_PROPERTY
Coulomb
SciTegic.value.DoubleValue
-1.333

@<SCITEGIC>MOL_PROPERTY
VdW
SciTegic.value.DoubleValue
0.224

@<SCITEGIC>MOL_PROPERTY
VdW6
SciTegic.value.DoubleValue
-4.212

@<SCITEGIC>MOL_PROPERTY
VdW12
SciTegic.value.DoubleValue
4.436

@<SCITEGIC>MOL_PROPERTY
Bond
SciTegic.value.DoubleValue
0.044

@<SCITEGIC>MOL_PROPERTY
Angle
SciTegic.value.DoubleValue
2.230

@<SCITEGIC>MOL_PROPERTY
Pdih
SciTegic.value.DoubleValue
12.956

@<SCITEGIC>MOL_PROPERTY
Idih
SciTegic.value.DoubleValue
0.000

@<SCITEGIC>MOL_PROPERTY
Tether
SciTegic.value.DoubleValue
0.000

@<TRIPOS>MOLECULE
guest-s20_confgen4.mol2 : confsearch ligand conformer 400
          17          16           1
SMALL
USER_CHARGES
 
@<TRIPOS>ATOM
       1    C1      22.884979   19.462666   22.264454 C.2        1 MOL1         0.6132
       2    O1      23.141343   19.103316   23.396769 O.co2      1 MOL1        -0.6749
       3    O2      23.271901   20.512325   21.789491 O.co2      1 MOL1        -0.6749
       4    C2      22.056311   18.533691   21.382472 C.3        1 MOL1        -0.1955
       5    H1      22.285333   17.501634   21.672601 H          1 MOL1         0.0733
       6    H2      22.412759   18.643132   20.351605 H          1 MOL1         0.0733
       7    C3      20.550931   18.754227   21.427984 C.2        1 MOL1        -0.1395
       8    H3      19.978590   18.080817   20.791203 H          1 MOL1         0.0816
       9    C4      19.912272   19.672667   22.162544 C.2        1 MOL1        -0.1394
      10    H4      20.460614   20.357587   22.808252 H          1 MOL1         0.0816
      11    C5      18.410356   19.851903   22.170630 C.3        1 MOL1        -0.1826
      12    H5      18.163526   20.915208   22.048252 H          1 MOL1         0.0736
      13    H6      17.954740   19.323029   21.322184 H          1 MOL1         0.0736
      14    C6      17.797664   19.330345   23.485020 C.3        1 MOL1        -0.2882
      15    H7      16.708099   19.464159   23.485975 H          1 MOL1         0.0749
      16    H8      18.009972   18.261148   23.616687 H          1 MOL1         0.0749
      17    H9      18.208017   19.869216   24.349131 H          1 MOL1         0.0749
@<TRIPOS>BOND
    1     1     2    1
    2     1     3    2
    3     1     4    1
    4     4     5    1
    5     4     6    1
    6     4     7    1
    7     7     8    1
    8     7     9    2
    9     9    10    1
   10     9    11    1
   11    11    12    1
   12    11    13    1
   13    11    14    1
   14    14    15    1
   15    14    16    1
   16    14    17    1
@<TRIPOS>SUBSTRUCTURE
       1 MOL1            1 RESIDUE      1      MOL     
@<SCITEGIC>MOL_PROPERTY
VConf Rank
SciTegic.value.IntegerValue
400

@<SCITEGIC>MOL_PROPERTY
Conf_Id
SciTegic.value.IntegerValue
39

@<SCITEGIC>MOL_PROPERTY
Delta U+W
SciTegic.value.DoubleValue
-0.422

@<SCITEGIC>MOL_PROPERTY
U+W
SciTegic.value.DoubleValue
-49.849

@<SCITEGIC>MOL_PROPERTY
Grad RMS
SciTegic.value.DoubleValue
0.000000

@<SCITEGIC>MOL_PROPERTY
U
SciTegic.value.DoubleValue
14.465

@<SCITEGIC>MOL_PROPERTY
W
SciTegic.value.DoubleValue
-64.314

@<SCITEGIC>MOL_PROPERTY
W(PB)
SciTegic.value.DoubleValue
-66.406

@<SCITEGIC>MOL_PROPERTY
W(SA)
SciTegic.value.DoubleValue
2.093

@<SCITEGIC>MOL_PROPERTY
Valence
SciTegic.value.DoubleValue
14.072

@<SCITEGIC>MOL_PROPERTY
Coulomb
SciTegic.value.DoubleValue
-0.199

@<SCITEGIC>MOL_PROPERTY
VdW
SciTegic.value.DoubleValue
0.592

@<SCITEGIC>MOL_PROPERTY
VdW6
SciTegic.value.DoubleValue
-5.019

@<SCITEGIC>MOL_PROPERTY
VdW12
SciTegic.value.DoubleValue
5.611

@<SCITEGIC>MOL_PROPERTY
Bond
SciTegic.value.DoubleValue
0.085

@<SCITEGIC>MOL_PROPERTY
Angle
SciTegic.value.DoubleValue
2.748

@<SCITEGIC>MOL_PROPERTY
Pdih
SciTegic.value.DoubleValue
11.238

@<SCITEGIC>MOL_PROPERTY
Idih
SciTegic.value.DoubleValue
0.001

@<SCITEGIC>MOL_PROPERTY
Tether
SciTegic.value.DoubleValue
0.000

@<TRIPOS>MOLECULE
guest-s20_confgen4.mol2 : confsearch ligand conformer 401
          17          16           1
SMALL
USER_CHARGES
 
@<TRIPOS>ATOM
       1    C1      19.790099   19.511028   25.245240 C.2        1 MOL1         0.6132
       2    O1      20.011062   20.602268   25.732407 O.co2      1 MOL1        -0.6749
       3    O2      20.130751   18.464049   25.759640 O.co2      1 MOL1        -0.6749
       4    C2      19.040592   19.454625   23.920603 C.3        1 MOL1        -0.1955
       5    H1      18.237999   20.200256   23.957867 H          1 MOL1         0.0733
       6    H2      18.561542   18.471519   23.839032 H          1 MOL1         0.0733
       7    C3      19.943155   19.720004   22.730771 C.2        1 MOL1        -0.1395
       8    H3      20.330165   20.735946   22.658070 H          1 MOL1         0.0816
       9    C4      20.268308   18.802260   21.815211 C.2        1 MOL1        -0.1394
      10    H4      19.883357   17.785768   21.890157 H          1 MOL1         0.0816
      11    C5      21.171479   19.067695   20.631510 C.3        1 MOL1        -0.1826
      12    H5      21.713738   20.013747   20.766276 H          1 MOL1         0.0736
      13    H6      21.930406   18.276875   20.559624 H          1 MOL1         0.0736
      14    C6      20.363620   19.125187   19.320358 C.3        1 MOL1        -0.2882
      15    H7      19.614309   19.926839   19.358943 H          1 MOL1         0.0749
      16    H8      21.024359   19.317386   18.465040 H          1 MOL1         0.0749
      17    H9      19.840773   18.176658   19.140492 H          1 MOL1         0.0749
@<TRIPOS>BOND
    1     1     2    1
    2     1     3    2
    3     1     4    1
    4     4     5    1
    5     4     6    1
    6     4     7    1
    7     7     8    1
    8     7     9    2
    9     9    10    1
   10     9    11    1
   11    11    12    1
   12    11    13    1
   13    11    14    1
   14    14    15    1
   15    14    16    1
   16    14    17    1
@<TRIPOS>SUBSTRUCTURE
       1 MOL1            1 RESIDUE      1      MOL     
@<SCITEGIC>MOL_PROPERTY
VConf Rank
SciTegic.value.IntegerValue
401

@<SCITEGIC>MOL_PROPERTY
Conf_Id
SciTegic.value.IntegerValue
38

@<SCITEGIC>MOL_PROPERTY
Delta U+W
SciTegic.value.DoubleValue
0.000

@<SCITEGIC>MOL_PROPERTY
U+W
SciTegic.value.DoubleValue
-49.427

@<SCITEGIC>MOL_PROPERTY
Grad RMS
SciTegic.value.DoubleValue
0.000000

@<SCITEGIC>MOL_PROPERTY
U
SciTegic.value.DoubleValue
13.666

@<SCITEGIC>MOL_PROPERTY
W
SciTegic.value.DoubleValue
-63.093

@<SCITEGIC>MOL_PROPERTY
W(PB)
SciTegic.value.DoubleValue
-65.225

@<SCITEGIC>MOL_PROPERTY
W(SA)
SciTegic.value.DoubleValue
2.132

@<SCITEGIC>MOL_PROPERTY
Valence
SciTegic.value.DoubleValue
15.226

@<SCITEGIC>MOL_PROPERTY
Coulomb
SciTegic.value.DoubleValue
-1.822

@<SCITEGIC>MOL_PROPERTY
VdW
SciTegic.value.DoubleValue
0.261

@<SCITEGIC>MOL_PROPERTY
VdW6
SciTegic.value.DoubleValue
-4.165

@<SCITEGIC>MOL_PROPERTY
VdW12
SciTegic.value.DoubleValue
4.426

@<SCITEGIC>MOL_PROPERTY
Bond
SciTegic.value.DoubleValue
0.044

@<SCITEGIC>MOL_PROPERTY
Angle
SciTegic.value.DoubleValue
2.229

@<SCITEGIC>MOL_PROPERTY
Pdih
SciTegic.value.DoubleValue
12.953

@<SCITEGIC>MOL_PROPERTY
Idih
SciTegic.value.DoubleValue
0.000

@<SCITEGIC>MOL_PROPERTY
Tether
SciTegic.value.DoubleValue
0.000

@<TRIPOS>MOLECULE
guest-s20_confgen4.mol2 : confsearch ligand conformer 402
          17          16           1
SMALL
USER_CHARGES
 
@<TRIPOS>ATOM
       1    C1      17.558110   18.046434   23.566205 C.2        1 MOL1         0.6132
       2    O1      17.788074   17.964549   24.756680 O.co2      1 MOL1        -0.6749
       3    O2      16.920580   17.217968   22.946399 O.co2      1 MOL1        -0.6749
       4    C2      18.092378   19.255006   22.808897 C.3        1 MOL1        -0.1955
       5    H1      18.247662   20.068899   23.527302 H          1 MOL1         0.0733
       6    H2      17.312608   19.585874   22.113202 H          1 MOL1         0.0733
       7    C3      19.369933   18.947494   22.051246 C.2        1 MOL1        -0.1395
       8    H3      19.259002   18.262574   21.211139 H          1 MOL1         0.0816
       9    C4      20.566915   19.455811   22.359589 C.2        1 MOL1        -0.1394
      10    H4      20.677678   20.138145   23.201736 H          1 MOL1         0.0816
      11    C5      21.840443   19.144945   21.605394 C.3        1 MOL1        -0.1826
      12    H5      22.636609   18.881821   22.314914 H          1 MOL1         0.0736
      13    H6      21.697844   18.272005   20.953580 H          1 MOL1         0.0736
      14    C6      22.288124   20.349240   20.754326 C.3        1 MOL1        -0.2882
      15    H7      22.475273   21.227436   21.386130 H          1 MOL1         0.0749
      16    H8      23.212964   20.117947   20.210028 H          1 MOL1         0.0749
      17    H9      21.517329   20.614957   20.018888 H          1 MOL1         0.0749
@<TRIPOS>BOND
    1     1     2    1
    2     1     3    2
    3     1     4    1
    4     4     5    1
    5     4     6    1
    6     4     7    1
    7     7     8    1
    8     7     9    2
    9     9    10    1
   10     9    11    1
   11    11    12    1
   12    11    13    1
   13    11    14    1
   14    14    15    1
   15    14    16    1
   16    14    17    1
@<TRIPOS>SUBSTRUCTURE
       1 MOL1            1 RESIDUE      1      MOL     
@<SCITEGIC>MOL_PROPERTY
VConf Rank
SciTegic.value.IntegerValue
402

@<SCITEGIC>MOL_PROPERTY
Conf_Id
SciTegic.value.IntegerValue
35

@<SCITEGIC>MOL_PROPERTY
Delta U+W
SciTegic.value.DoubleValue
-0.102

@<SCITEGIC>MOL_PROPERTY
U+W
SciTegic.value.DoubleValue
-49.529

@<SCITEGIC>MOL_PROPERTY
Grad RMS
SciTegic.value.DoubleValue
0.000000

@<SCITEGIC>MOL_PROPERTY
U
SciTegic.value.DoubleValue
13.666

@<SCITEGIC>MOL_PROPERTY
W
SciTegic.value.DoubleValue
-63.195

@<SCITEGIC>MOL_PROPERTY
W(PB)
SciTegic.value.DoubleValue
-65.299

@<SCITEGIC>MOL_PROPERTY
W(SA)
SciTegic.value.DoubleValue
2.103

@<SCITEGIC>MOL_PROPERTY
Valence
SciTegic.value.DoubleValue
15.226

@<SCITEGIC>MOL_PROPERTY
Coulomb
SciTegic.value.DoubleValue
-1.822

@<SCITEGIC>MOL_PROPERTY
VdW
SciTegic.value.DoubleValue
0.261

@<SCITEGIC>MOL_PROPERTY
VdW6
SciTegic.value.DoubleValue
-4.165

@<SCITEGIC>MOL_PROPERTY
VdW12
SciTegic.value.DoubleValue
4.426

@<SCITEGIC>MOL_PROPERTY
Bond
SciTegic.value.DoubleValue
0.044

@<SCITEGIC>MOL_PROPERTY
Angle
SciTegic.value.DoubleValue
2.229

@<SCITEGIC>MOL_PROPERTY
Pdih
SciTegic.value.DoubleValue
12.953

@<SCITEGIC>MOL_PROPERTY
Idih
SciTegic.value.DoubleValue
0.000

@<SCITEGIC>MOL_PROPERTY
Tether
SciTegic.value.DoubleValue
0.000

@<TRIPOS>MOLECULE
guest-s20_confgen4.mol2 : confsearch ligand conformer 403
          17          16           1
SMALL
USER_CHARGES
 
@<TRIPOS>ATOM
       1    C1      17.972671   18.047877   20.610225 C.2        1 MOL1         0.6132
       2    O1      16.920178   18.312013   21.157456 O.co2      1 MOL1        -0.6749
       3    O2      18.166171   18.194146   19.419422 O.co2      1 MOL1        -0.6749
       4    C2      19.106504   17.494645   21.463485 C.3        1 MOL1        -0.1955
       5    H1      19.780135   16.925645   20.811530 H          1 MOL1         0.0733
       6    H2      18.672999   16.782943   22.175569 H          1 MOL1         0.0733
       7    C3      19.857586   18.582876   22.207149 C.2        1 MOL1        -0.1395
       8    H3      19.282412   19.081199   22.985570 H          1 MOL1         0.0816
       9    C4      21.124356   18.928736   21.945642 C.2        1 MOL1        -0.1394
      10    H4      21.667053   18.410301   21.155839 H          1 MOL1         0.0816
      11    C5      21.933641   20.007380   22.645766 C.3        1 MOL1        -0.1826
      12    H5      22.842724   19.555567   23.065217 H          1 MOL1         0.0736
      13    H6      22.282521   20.732699   21.898292 H          1 MOL1         0.0736
      14    C6      21.183694   20.761476   23.766009 C.3        1 MOL1        -0.2882
      15    H7      20.866312   20.073091   24.560237 H          1 MOL1         0.0749
      16    H8      21.832963   21.521491   24.219723 H          1 MOL1         0.0749
      17    H9      20.294945   21.271037   23.371089 H          1 MOL1         0.0749
@<TRIPOS>BOND
    1     1     2    1
    2     1     3    2
    3     1     4    1
    4     4     5    1
    5     4     6    1
    6     4     7    1
    7     7     8    1
    8     7     9    2
    9     9    10    1
   10     9    11    1
   11    11    12    1
   12    11    13    1
   13    11    14    1
   14    14    15    1
   15    14    16    1
   16    14    17    1
@<TRIPOS>SUBSTRUCTURE
       1 MOL1            1 RESIDUE      1      MOL     
@<SCITEGIC>MOL_PROPERTY
VConf Rank
SciTegic.value.IntegerValue
403

@<SCITEGIC>MOL_PROPERTY
Conf_Id
SciTegic.value.IntegerValue
19

@<SCITEGIC>MOL_PROPERTY
Delta U+W
SciTegic.value.DoubleValue
-0.496

@<SCITEGIC>MOL_PROPERTY
U+W
SciTegic.value.DoubleValue
-49.923

@<SCITEGIC>MOL_PROPERTY
Grad RMS
SciTegic.value.DoubleValue
0.000000

@<SCITEGIC>MOL_PROPERTY
U
SciTegic.value.DoubleValue
13.863

@<SCITEGIC>MOL_PROPERTY
W
SciTegic.value.DoubleValue
-63.786

@<SCITEGIC>MOL_PROPERTY
W(PB)
SciTegic.value.DoubleValue
-65.856

@<SCITEGIC>MOL_PROPERTY
W(SA)
SciTegic.value.DoubleValue
2.070

@<SCITEGIC>MOL_PROPERTY
Valence
SciTegic.value.DoubleValue
14.117

@<SCITEGIC>MOL_PROPERTY
Coulomb
SciTegic.value.DoubleValue
-1.228

@<SCITEGIC>MOL_PROPERTY
VdW
SciTegic.value.DoubleValue
0.974

@<SCITEGIC>MOL_PROPERTY
VdW6
SciTegic.value.DoubleValue
-4.885

@<SCITEGIC>MOL_PROPERTY
VdW12
SciTegic.value.DoubleValue
5.859

@<SCITEGIC>MOL_PROPERTY
Bond
SciTegic.value.DoubleValue
0.094

@<SCITEGIC>MOL_PROPERTY
Angle
SciTegic.value.DoubleValue
2.818

@<SCITEGIC>MOL_PROPERTY
Pdih
SciTegic.value.DoubleValue
11.205

@<SCITEGIC>MOL_PROPERTY
Idih
SciTegic.value.DoubleValue
0.000

@<SCITEGIC>MOL_PROPERTY
Tether
SciTegic.value.DoubleValue
0.000

@<TRIPOS>MOLECULE
guest-s20_confgen4.mol2 : confsearch ligand conformer 404
          17          16           1
SMALL
USER_CHARGES
 
@<TRIPOS>ATOM
       1    C1      17.723289   20.200305   21.027330 C.2        1 MOL1         0.6132
       2    O1      17.025063   20.389619   22.003780 O.co2      1 MOL1        -0.6749
       3    O2      17.882094   21.021257   20.145389 O.co2      1 MOL1        -0.6749
       4    C2      18.430293   18.857838   20.894084 C.3        1 MOL1        -0.1955
       5    H1      18.347030   18.538103   19.848942 H          1 MOL1         0.0733
       6    H2      17.886736   18.122159   21.499044 H          1 MOL1         0.0733
       7    C3      19.889305   18.926632   21.303127 C.2        1 MOL1        -0.1395
       8    H3      20.527902   19.520466   20.649850 H          1 MOL1         0.0816
       9    C4      20.395813   18.324374   22.383382 C.2        1 MOL1        -0.1394
      10    H4      19.755773   17.734945   23.039112 H          1 MOL1         0.0816
      11    C5      21.850421   18.396654   22.791091 C.3        1 MOL1        -0.1826
      12    H5      22.222802   17.388390   23.017493 H          1 MOL1         0.0736
      13    H6      22.462908   18.780710   21.963704 H          1 MOL1         0.0736
      14    C6      22.034992   19.301678   24.024727 C.3        1 MOL1        -0.2882
      15    H7      21.463286   18.918920   24.880340 H          1 MOL1         0.0749
      16    H8      23.092262   19.350922   24.315970 H          1 MOL1         0.0749
      17    H9      21.691608   20.323037   23.813554 H          1 MOL1         0.0749
@<TRIPOS>BOND
    1     1     2    1
    2     1     3    2
    3     1     4    1
    4     4     5    1
    5     4     6    1
    6     4     7    1
    7     7     8    1
    8     7     9    2
    9     9    10    1
   10     9    11    1
   11    11    12    1
   12    11    13    1
   13    11    14    1
   14    14    15    1
   15    14    16    1
   16    14    17    1
@<TRIPOS>SUBSTRUCTURE
       1 MOL1            1 RESIDUE      1      MOL     
@<SCITEGIC>MOL_PROPERTY
VConf Rank
SciTegic.value.IntegerValue
404

@<SCITEGIC>MOL_PROPERTY
Conf_Id
SciTegic.value.IntegerValue
7

@<SCITEGIC>MOL_PROPERTY
Delta U+W
SciTegic.value.DoubleValue
-0.041

@<SCITEGIC>MOL_PROPERTY
U+W
SciTegic.value.DoubleValue
-49.468

@<SCITEGIC>MOL_PROPERTY
Grad RMS
SciTegic.value.DoubleValue
0.000000

@<SCITEGIC>MOL_PROPERTY
U
SciTegic.value.DoubleValue
14.121

@<SCITEGIC>MOL_PROPERTY
W
SciTegic.value.DoubleValue
-63.589

@<SCITEGIC>MOL_PROPERTY
W(PB)
SciTegic.value.DoubleValue
-65.660

@<SCITEGIC>MOL_PROPERTY
W(SA)
SciTegic.value.DoubleValue
2.071

@<SCITEGIC>MOL_PROPERTY
Valence
SciTegic.value.DoubleValue
15.230

@<SCITEGIC>MOL_PROPERTY
Coulomb
SciTegic.value.DoubleValue
-1.333

@<SCITEGIC>MOL_PROPERTY
VdW
SciTegic.value.DoubleValue
0.224

@<SCITEGIC>MOL_PROPERTY
VdW6
SciTegic.value.DoubleValue
-4.212

@<SCITEGIC>MOL_PROPERTY
VdW12
SciTegic.value.DoubleValue
4.436

@<SCITEGIC>MOL_PROPERTY
Bond
SciTegic.value.DoubleValue
0.044

@<SCITEGIC>MOL_PROPERTY
Angle
SciTegic.value.DoubleValue
2.230

@<SCITEGIC>MOL_PROPERTY
Pdih
SciTegic.value.DoubleValue
12.956

@<SCITEGIC>MOL_PROPERTY
Idih
SciTegic.value.DoubleValue
0.000

@<SCITEGIC>MOL_PROPERTY
Tether
SciTegic.value.DoubleValue
0.000

@<TRIPOS>MOLECULE
guest-s20_confgen4.mol2 : confsearch ligand conformer 405
          17          16           1
SMALL
USER_CHARGES
 
@<TRIPOS>ATOM
       1    C1      21.464444   19.164100   24.681529 C.2        1 MOL1         0.6132
       2    O1      20.618420   18.654069   25.389416 O.co2      1 MOL1        -0.6749
       3    O2      22.018477   20.212795   24.946802 O.co2      1 MOL1        -0.6749
       4    C2      21.873116   18.434920   23.405261 C.3        1 MOL1        -0.1955
       5    H1      21.779464   17.358148   23.588455 H          1 MOL1         0.0733
       6    H2      22.940716   18.620733   23.239658 H          1 MOL1         0.0733
       7    C3      21.090008   18.809616   22.154973 C.2        1 MOL1        -0.1395
       8    H3      21.397829   18.277697   21.255610 H          1 MOL1         0.0816
       9    C4      20.095737   19.702868   22.087720 C.2        1 MOL1        -0.1394
      10    H4      19.767909   20.247734   22.972244 H          1 MOL1         0.0816
      11    C5      19.348872   20.040608   20.816475 C.3        1 MOL1        -0.1826
      12    H5      19.286099   21.131277   20.702362 H          1 MOL1         0.0736
      13    H6      19.891446   19.662733   19.938991 H          1 MOL1         0.0736
      14    C6      17.928298   19.443357   20.833705 C.3        1 MOL1        -0.2882
      15    H7      17.390591   19.692665   19.909705 H          1 MOL1         0.0749
      16    H8      17.966428   18.349537   20.921443 H          1 MOL1         0.0749
      17    H9      17.349553   19.834214   21.680903 H          1 MOL1         0.0749
@<TRIPOS>BOND
    1     1     2    1
    2     1     3    2
    3     1     4    1
    4     4     5    1
    5     4     6    1
    6     4     7    1
    7     7     8    1
    8     7     9    2
    9     9    10    1
   10     9    11    1
   11    11    12    1
   12    11    13    1
   13    11    14    1
   14    14    15    1
   15    14    16    1
   16    14    17    1
@<TRIPOS>SUBSTRUCTURE
       1 MOL1            1 RESIDUE      1      MOL     
@<SCITEGIC>MOL_PROPERTY
VConf Rank
SciTegic.value.IntegerValue
405

@<SCITEGIC>MOL_PROPERTY
Conf_Id
SciTegic.value.IntegerValue
39

@<SCITEGIC>MOL_PROPERTY
Delta U+W
SciTegic.value.DoubleValue
-0.422

@<SCITEGIC>MOL_PROPERTY
U+W
SciTegic.value.DoubleValue
-49.849

@<SCITEGIC>MOL_PROPERTY
Grad RMS
SciTegic.value.DoubleValue
0.000000

@<SCITEGIC>MOL_PROPERTY
U
SciTegic.value.DoubleValue
14.465

@<SCITEGIC>MOL_PROPERTY
W
SciTegic.value.DoubleValue
-64.314

@<SCITEGIC>MOL_PROPERTY
W(PB)
SciTegic.value.DoubleValue
-66.406

@<SCITEGIC>MOL_PROPERTY
W(SA)
SciTegic.value.DoubleValue
2.093

@<SCITEGIC>MOL_PROPERTY
Valence
SciTegic.value.DoubleValue
14.072

@<SCITEGIC>MOL_PROPERTY
Coulomb
SciTegic.value.DoubleValue
-0.199

@<SCITEGIC>MOL_PROPERTY
VdW
SciTegic.value.DoubleValue
0.592

@<SCITEGIC>MOL_PROPERTY
VdW6
SciTegic.value.DoubleValue
-5.019

@<SCITEGIC>MOL_PROPERTY
VdW12
SciTegic.value.DoubleValue
5.611

@<SCITEGIC>MOL_PROPERTY
Bond
SciTegic.value.DoubleValue
0.085

@<SCITEGIC>MOL_PROPERTY
Angle
SciTegic.value.DoubleValue
2.748

@<SCITEGIC>MOL_PROPERTY
Pdih
SciTegic.value.DoubleValue
11.238

@<SCITEGIC>MOL_PROPERTY
Idih
SciTegic.value.DoubleValue
0.001

@<SCITEGIC>MOL_PROPERTY
Tether
SciTegic.value.DoubleValue
0.000

@<TRIPOS>MOLECULE
guest-s20_confgen4.mol2 : confsearch ligand conformer 406
          17          16           1
SMALL
USER_CHARGES
 
@<TRIPOS>ATOM
       1    C1      21.212632   16.655258   23.499390 C.2        1 MOL1         0.6132
       2    O1      21.057824   15.612181   22.895249 O.co2      1 MOL1        -0.6749
       3    O2      21.081788   16.760479   24.702979 O.co2      1 MOL1        -0.6749
       4    C2      21.596786   17.895662   22.703509 C.3        1 MOL1        -0.1955
       5    H1      22.334058   17.595172   21.950086 H          1 MOL1         0.0733
       6    H2      22.098433   18.596600   23.381503 H          1 MOL1         0.0733
       7    C3      20.403031   18.548198   22.032770 C.2        1 MOL1        -0.1395
       8    H3      19.948265   17.970614   21.228541 H          1 MOL1         0.0816
       9    C4      19.909992   19.742701   22.373800 C.2        1 MOL1        -0.1394
      10    H4      20.363386   20.318400   23.180066 H          1 MOL1         0.0816
      11    C5      18.717229   20.390129   21.706360 C.3        1 MOL1        -0.1826
      12    H5      18.170666   19.655301   21.099303 H          1 MOL1         0.0736
      13    H6      18.015916   20.751773   22.470499 H          1 MOL1         0.0736
      14    C6      19.154075   21.566683   20.811961 C.3        1 MOL1        -0.2882
      15    H7      19.836850   21.224239   20.023195 H          1 MOL1         0.0749
      16    H8      18.284350   22.032805   20.330927 H          1 MOL1         0.0749
      17    H9      19.670433   22.335915   21.401101 H          1 MOL1         0.0749
@<TRIPOS>BOND
    1     1     2    1
    2     1     3    2
    3     1     4    1
    4     4     5    1
    5     4     6    1
    6     4     7    1
    7     7     8    1
    8     7     9    2
    9     9    10    1
   10     9    11    1
   11    11    12    1
   12    11    13    1
   13    11    14    1
   14    14    15    1
   15    14    16    1
   16    14    17    1
@<TRIPOS>SUBSTRUCTURE
       1 MOL1            1 RESIDUE      1      MOL     
@<SCITEGIC>MOL_PROPERTY
VConf Rank
SciTegic.value.IntegerValue
406

@<SCITEGIC>MOL_PROPERTY
Conf_Id
SciTegic.value.IntegerValue
38

@<SCITEGIC>MOL_PROPERTY
Delta U+W
SciTegic.value.DoubleValue
0.000

@<SCITEGIC>MOL_PROPERTY
U+W
SciTegic.value.DoubleValue
-49.427

@<SCITEGIC>MOL_PROPERTY
Grad RMS
SciTegic.value.DoubleValue
0.000000

@<SCITEGIC>MOL_PROPERTY
U
SciTegic.value.DoubleValue
13.666

@<SCITEGIC>MOL_PROPERTY
W
SciTegic.value.DoubleValue
-63.093

@<SCITEGIC>MOL_PROPERTY
W(PB)
SciTegic.value.DoubleValue
-65.225

@<SCITEGIC>MOL_PROPERTY
W(SA)
SciTegic.value.DoubleValue
2.132

@<SCITEGIC>MOL_PROPERTY
Valence
SciTegic.value.DoubleValue
15.226

@<SCITEGIC>MOL_PROPERTY
Coulomb
SciTegic.value.DoubleValue
-1.822

@<SCITEGIC>MOL_PROPERTY
VdW
SciTegic.value.DoubleValue
0.261

@<SCITEGIC>MOL_PROPERTY
VdW6
SciTegic.value.DoubleValue
-4.165

@<SCITEGIC>MOL_PROPERTY
VdW12
SciTegic.value.DoubleValue
4.426

@<SCITEGIC>MOL_PROPERTY
Bond
SciTegic.value.DoubleValue
0.044

@<SCITEGIC>MOL_PROPERTY
Angle
SciTegic.value.DoubleValue
2.229

@<SCITEGIC>MOL_PROPERTY
Pdih
SciTegic.value.DoubleValue
12.953

@<SCITEGIC>MOL_PROPERTY
Idih
SciTegic.value.DoubleValue
0.000

@<SCITEGIC>MOL_PROPERTY
Tether
SciTegic.value.DoubleValue
0.000

@<TRIPOS>MOLECULE
guest-s20_confgen4.mol2 : confsearch ligand conformer 407
          17          16           1
SMALL
USER_CHARGES
 
@<TRIPOS>ATOM
       1    C1      20.442211   22.303609   21.284647 C.2        1 MOL1         0.6132
       2    O1      21.626482   22.544673   21.157342 O.co2      1 MOL1        -0.6749
       3    O2      19.642997   23.089926   21.753607 O.co2      1 MOL1        -0.6749
       4    C2      19.928550   20.944739   20.827230 C.3        1 MOL1        -0.1955
       5    H1      20.624445   20.549522   20.077447 H          1 MOL1         0.0733
       6    H2      18.968561   21.102237   20.322134 H          1 MOL1         0.0733
       7    C3      19.758163   19.970878   21.977581 C.2        1 MOL1        -0.1395
       8    H3      18.964947   20.218006   22.682517 H          1 MOL1         0.0816
       9    C4      20.506814   18.877803   22.153473 C.2        1 MOL1        -0.1394
      10    H4      21.301906   18.632995   21.449940 H          1 MOL1         0.0816
      11    C5      20.338069   17.909980   23.303328 C.3        1 MOL1        -0.1826
      12    H5      21.315310   17.703186   23.760241 H          1 MOL1         0.0736
      13    H6      19.709950   18.352163   24.088923 H          1 MOL1         0.0736
      14    C6      19.703911   16.588738   22.826651 C.3        1 MOL1        -0.2882
      15    H7      20.331484   16.104744   22.066829 H          1 MOL1         0.0749
      16    H8      19.584642   15.890320   23.665146 H          1 MOL1         0.0749
      17    H9      18.713082   16.767586   22.388621 H          1 MOL1         0.0749
@<TRIPOS>BOND
    1     1     2    1
    2     1     3    2
    3     1     4    1
    4     4     5    1
    5     4     6    1
    6     4     7    1
    7     7     8    1
    8     7     9    2
    9     9    10    1
   10     9    11    1
   11    11    12    1
   12    11    13    1
   13    11    14    1
   14    14    15    1
   15    14    16    1
   16    14    17    1
@<TRIPOS>SUBSTRUCTURE
       1 MOL1            1 RESIDUE      1      MOL     
@<SCITEGIC>MOL_PROPERTY
VConf Rank
SciTegic.value.IntegerValue
407

@<SCITEGIC>MOL_PROPERTY
Conf_Id
SciTegic.value.IntegerValue
35

@<SCITEGIC>MOL_PROPERTY
Delta U+W
SciTegic.value.DoubleValue
-0.102

@<SCITEGIC>MOL_PROPERTY
U+W
SciTegic.value.DoubleValue
-49.529

@<SCITEGIC>MOL_PROPERTY
Grad RMS
SciTegic.value.DoubleValue
0.000000

@<SCITEGIC>MOL_PROPERTY
U
SciTegic.value.DoubleValue
13.666

@<SCITEGIC>MOL_PROPERTY
W
SciTegic.value.DoubleValue
-63.195

@<SCITEGIC>MOL_PROPERTY
W(PB)
SciTegic.value.DoubleValue
-65.299

@<SCITEGIC>MOL_PROPERTY
W(SA)
SciTegic.value.DoubleValue
2.103

@<SCITEGIC>MOL_PROPERTY
Valence
SciTegic.value.DoubleValue
15.226

@<SCITEGIC>MOL_PROPERTY
Coulomb
SciTegic.value.DoubleValue
-1.822

@<SCITEGIC>MOL_PROPERTY
VdW
SciTegic.value.DoubleValue
0.261

@<SCITEGIC>MOL_PROPERTY
VdW6
SciTegic.value.DoubleValue
-4.165

@<SCITEGIC>MOL_PROPERTY
VdW12
SciTegic.value.DoubleValue
4.426

@<SCITEGIC>MOL_PROPERTY
Bond
SciTegic.value.DoubleValue
0.044

@<SCITEGIC>MOL_PROPERTY
Angle
SciTegic.value.DoubleValue
2.229

@<SCITEGIC>MOL_PROPERTY
Pdih
SciTegic.value.DoubleValue
12.953

@<SCITEGIC>MOL_PROPERTY
Idih
SciTegic.value.DoubleValue
0.000

@<SCITEGIC>MOL_PROPERTY
Tether
SciTegic.value.DoubleValue
0.000

@<TRIPOS>MOLECULE
guest-s20_confgen4.mol2 : confsearch ligand conformer 408
          17          16           1
SMALL
USER_CHARGES
 
@<TRIPOS>ATOM
       1    C1      18.503232   16.709557   22.402942 C.2        1 MOL1         0.6132
       2    O1      18.955936   15.942802   23.230056 O.co2      1 MOL1        -0.6749
       3    O2      17.326137   17.003294   22.332133 O.co2      1 MOL1        -0.6749
       4    C2      19.463620   17.327545   21.395252 C.3        1 MOL1        -0.1955
       5    H1      18.889450   17.615866   20.506553 H          1 MOL1         0.0733
       6    H2      20.167986   16.548044   21.082591 H          1 MOL1         0.0733
       7    C3      20.218905   18.513433   21.965006 C.2        1 MOL1        -0.1395
       8    H3      20.929555   18.264279   22.751129 H          1 MOL1         0.0816
       9    C4      20.042881   19.776788   21.557993 C.2        1 MOL1        -0.1394
      10    H4      19.319180   19.988283   20.771474 H          1 MOL1         0.0816
      11    C5      20.759703   21.008366   22.085224 C.3        1 MOL1        -0.1826
      12    H5      21.266395   21.510998   21.250280 H          1 MOL1         0.0736
      13    H6      20.012959   21.725583   22.451960 H          1 MOL1         0.0736
      14    C6      21.786970   20.735155   23.205985 C.3        1 MOL1        -0.2882
      15    H7      22.581246   20.062297   22.857002 H          1 MOL1         0.0749
      16    H8      22.258743   21.671143   23.532157 H          1 MOL1         0.0749
      17    H9      21.303966   20.279688   24.080482 H          1 MOL1         0.0749
@<TRIPOS>BOND
    1     1     2    1
    2     1     3    2
    3     1     4    1
    4     4     5    1
    5     4     6    1
    6     4     7    1
    7     7     8    1
    8     7     9    2
    9     9    10    1
   10     9    11    1
   11    11    12    1
   12    11    13    1
   13    11    14    1
   14    14    15    1
   15    14    16    1
   16    14    17    1
@<TRIPOS>SUBSTRUCTURE
       1 MOL1            1 RESIDUE      1      MOL     
@<SCITEGIC>MOL_PROPERTY
VConf Rank
SciTegic.value.IntegerValue
408

@<SCITEGIC>MOL_PROPERTY
Conf_Id
SciTegic.value.IntegerValue
19

@<SCITEGIC>MOL_PROPERTY
Delta U+W
SciTegic.value.DoubleValue
-0.496

@<SCITEGIC>MOL_PROPERTY
U+W
SciTegic.value.DoubleValue
-49.923

@<SCITEGIC>MOL_PROPERTY
Grad RMS
SciTegic.value.DoubleValue
0.000000

@<SCITEGIC>MOL_PROPERTY
U
SciTegic.value.DoubleValue
13.863

@<SCITEGIC>MOL_PROPERTY
W
SciTegic.value.DoubleValue
-63.786

@<SCITEGIC>MOL_PROPERTY
W(PB)
SciTegic.value.DoubleValue
-65.856

@<SCITEGIC>MOL_PROPERTY
W(SA)
SciTegic.value.DoubleValue
2.070

@<SCITEGIC>MOL_PROPERTY
Valence
SciTegic.value.DoubleValue
14.117

@<SCITEGIC>MOL_PROPERTY
Coulomb
SciTegic.value.DoubleValue
-1.228

@<SCITEGIC>MOL_PROPERTY
VdW
SciTegic.value.DoubleValue
0.974

@<SCITEGIC>MOL_PROPERTY
VdW6
SciTegic.value.DoubleValue
-4.885

@<SCITEGIC>MOL_PROPERTY
VdW12
SciTegic.value.DoubleValue
5.859

@<SCITEGIC>MOL_PROPERTY
Bond
SciTegic.value.DoubleValue
0.094

@<SCITEGIC>MOL_PROPERTY
Angle
SciTegic.value.DoubleValue
2.818

@<SCITEGIC>MOL_PROPERTY
Pdih
SciTegic.value.DoubleValue
11.205

@<SCITEGIC>MOL_PROPERTY
Idih
SciTegic.value.DoubleValue
0.000

@<SCITEGIC>MOL_PROPERTY
Tether
SciTegic.value.DoubleValue
0.000

@<TRIPOS>MOLECULE
guest-s20_confgen4.mol2 : confsearch ligand conformer 409
          17          16           1
SMALL
USER_CHARGES
 
@<TRIPOS>ATOM
       1    C1      19.549247   18.867503   19.346401 C.2        1 MOL1         0.6132
       2    O1      18.948705   19.903254   19.138118 O.co2      1 MOL1        -0.6749
       3    O2      20.439090   18.451134   18.630986 O.co2      1 MOL1        -0.6749
       4    C2      19.160005   18.039013   20.563743 C.3        1 MOL1        -0.1955
       5    H1      19.150489   16.985236   20.262166 H          1 MOL1         0.0733
       6    H2      18.132815   18.302011   20.843684 H          1 MOL1         0.0733
       7    C3      20.109322   18.238571   21.729821 C.2        1 MOL1        -0.1395
       8    H3      21.118087   17.855321   21.579057 H          1 MOL1         0.0816
       9    C4      19.776449   18.842648   22.874592 C.2        1 MOL1        -0.1394
      10    H4      18.769056   19.230270   23.022806 H          1 MOL1         0.0816
      11    C5      20.725432   19.043220   24.034997 C.3        1 MOL1        -0.1826
      12    H5      20.240977   18.728297   24.969154 H          1 MOL1         0.0736
      13    H6      21.618002   18.413867   23.914824 H          1 MOL1         0.0736
      14    C6      21.154079   20.518991   24.150545 C.3        1 MOL1        -0.2882
      15    H7      20.283364   21.168371   24.310500 H          1 MOL1         0.0749
      16    H8      21.842898   20.658783   24.993786 H          1 MOL1         0.0749
      17    H9      21.663558   20.849517   23.235742 H          1 MOL1         0.0749
@<TRIPOS>BOND
    1     1     2    1
    2     1     3    2
    3     1     4    1
    4     4     5    1
    5     4     6    1
    6     4     7    1
    7     7     8    1
    8     7     9    2
    9     9    10    1
   10     9    11    1
   11    11    12    1
   12    11    13    1
   13    11    14    1
   14    14    15    1
   15    14    16    1
   16    14    17    1
@<TRIPOS>SUBSTRUCTURE
       1 MOL1            1 RESIDUE      1      MOL     
@<SCITEGIC>MOL_PROPERTY
VConf Rank
SciTegic.value.IntegerValue
409

@<SCITEGIC>MOL_PROPERTY
Conf_Id
SciTegic.value.IntegerValue
7

@<SCITEGIC>MOL_PROPERTY
Delta U+W
SciTegic.value.DoubleValue
-0.041

@<SCITEGIC>MOL_PROPERTY
U+W
SciTegic.value.DoubleValue
-49.468

@<SCITEGIC>MOL_PROPERTY
Grad RMS
SciTegic.value.DoubleValue
0.000000

@<SCITEGIC>MOL_PROPERTY
U
SciTegic.value.DoubleValue
14.121

@<SCITEGIC>MOL_PROPERTY
W
SciTegic.value.DoubleValue
-63.589

@<SCITEGIC>MOL_PROPERTY
W(PB)
SciTegic.value.DoubleValue
-65.660

@<SCITEGIC>MOL_PROPERTY
W(SA)
SciTegic.value.DoubleValue
2.071

@<SCITEGIC>MOL_PROPERTY
Valence
SciTegic.value.DoubleValue
15.230

@<SCITEGIC>MOL_PROPERTY
Coulomb
SciTegic.value.DoubleValue
-1.333

@<SCITEGIC>MOL_PROPERTY
VdW
SciTegic.value.DoubleValue
0.224

@<SCITEGIC>MOL_PROPERTY
VdW6
SciTegic.value.DoubleValue
-4.212

@<SCITEGIC>MOL_PROPERTY
VdW12
SciTegic.value.DoubleValue
4.436

@<SCITEGIC>MOL_PROPERTY
Bond
SciTegic.value.DoubleValue
0.044

@<SCITEGIC>MOL_PROPERTY
Angle
SciTegic.value.DoubleValue
2.230

@<SCITEGIC>MOL_PROPERTY
Pdih
SciTegic.value.DoubleValue
12.956

@<SCITEGIC>MOL_PROPERTY
Idih
SciTegic.value.DoubleValue
0.000

@<SCITEGIC>MOL_PROPERTY
Tether
SciTegic.value.DoubleValue
0.000

@<TRIPOS>MOLECULE
guest-s20_confgen4.mol2 : confsearch ligand conformer 410
          17          16           1
SMALL
USER_CHARGES
 
@<TRIPOS>ATOM
       1    C1      20.997595   20.939402   24.290089 C.2        1 MOL1         0.6132
       2    O1      21.048474   22.003922   23.705966 O.co2      1 MOL1        -0.6749
       3    O2      21.932874   20.465652   24.904822 O.co2      1 MOL1        -0.6749
       4    C2      19.680534   20.169547   24.274266 C.3        1 MOL1        -0.1955
       5    H1      18.864245   20.900343   24.237141 H          1 MOL1         0.0733
       6    H2      19.580857   19.655014   25.237095 H          1 MOL1         0.0733
       7    C3      19.519245   19.166653   23.140658 C.2        1 MOL1        -0.1395
       8    H3      18.572362   18.628229   23.148250 H          1 MOL1         0.0816
       9    C4      20.416235   18.914201   22.180099 C.2        1 MOL1        -0.1394
      10    H4      21.370261   19.439174   22.148925 H          1 MOL1         0.0816
      11    C5      20.207025   17.903737   21.074145 C.3        1 MOL1        -0.1826
      12    H5      21.095060   17.263527   20.984461 H          1 MOL1         0.0736
      13    H6      19.363643   17.241064   21.312317 H          1 MOL1         0.0736
      14    C6      19.940629   18.604136   19.727478 C.3        1 MOL1        -0.2882
      15    H7      19.790979   17.866338   18.928529 H          1 MOL1         0.0749
      16    H8      19.041080   19.231066   19.785479 H          1 MOL1         0.0749
      17    H9      20.786308   19.245067   19.445534 H          1 MOL1         0.0749
@<TRIPOS>BOND
    1     1     2    1
    2     1     3    2
    3     1     4    1
    4     4     5    1
    5     4     6    1
    6     4     7    1
    7     7     8    1
    8     7     9    2
    9     9    10    1
   10     9    11    1
   11    11    12    1
   12    11    13    1
   13    11    14    1
   14    14    15    1
   15    14    16    1
   16    14    17    1
@<TRIPOS>SUBSTRUCTURE
       1 MOL1            1 RESIDUE      1      MOL     
@<SCITEGIC>MOL_PROPERTY
VConf Rank
SciTegic.value.IntegerValue
410

@<SCITEGIC>MOL_PROPERTY
Conf_Id
SciTegic.value.IntegerValue
39

@<SCITEGIC>MOL_PROPERTY
Delta U+W
SciTegic.value.DoubleValue
-0.422

@<SCITEGIC>MOL_PROPERTY
U+W
SciTegic.value.DoubleValue
-49.849

@<SCITEGIC>MOL_PROPERTY
Grad RMS
SciTegic.value.DoubleValue
0.000000

@<SCITEGIC>MOL_PROPERTY
U
SciTegic.value.DoubleValue
14.465

@<SCITEGIC>MOL_PROPERTY
W
SciTegic.value.DoubleValue
-64.314

@<SCITEGIC>MOL_PROPERTY
W(PB)
SciTegic.value.DoubleValue
-66.406

@<SCITEGIC>MOL_PROPERTY
W(SA)
SciTegic.value.DoubleValue
2.093

@<SCITEGIC>MOL_PROPERTY
Valence
SciTegic.value.DoubleValue
14.072

@<SCITEGIC>MOL_PROPERTY
Coulomb
SciTegic.value.DoubleValue
-0.199

@<SCITEGIC>MOL_PROPERTY
VdW
SciTegic.value.DoubleValue
0.592

@<SCITEGIC>MOL_PROPERTY
VdW6
SciTegic.value.DoubleValue
-5.019

@<SCITEGIC>MOL_PROPERTY
VdW12
SciTegic.value.DoubleValue
5.611

@<SCITEGIC>MOL_PROPERTY
Bond
SciTegic.value.DoubleValue
0.085

@<SCITEGIC>MOL_PROPERTY
Angle
SciTegic.value.DoubleValue
2.748

@<SCITEGIC>MOL_PROPERTY
Pdih
SciTegic.value.DoubleValue
11.238

@<SCITEGIC>MOL_PROPERTY
Idih
SciTegic.value.DoubleValue
0.001

@<SCITEGIC>MOL_PROPERTY
Tether
SciTegic.value.DoubleValue
0.000

@<TRIPOS>MOLECULE
guest-s20_confgen4.mol2 : confsearch ligand conformer 411
          17          16           1
SMALL
USER_CHARGES
 
@<TRIPOS>ATOM
       1    C1      17.381336   17.858617   21.348007 C.2        1 MOL1         0.6132
       2    O1      16.490293   17.921023   22.172088 O.co2      1 MOL1        -0.6749
       3    O2      17.618312   16.865815   20.688458 O.co2      1 MOL1        -0.6749
       4    C2      18.243241   19.094797   21.127600 C.3        1 MOL1        -0.1955
       5    H1      17.583516   19.970045   21.142170 H          1 MOL1         0.0733
       6    H2      18.676284   19.036246   20.121775 H          1 MOL1         0.0733
       7    C3      19.327124   19.242071   22.178435 C.2        1 MOL1        -0.1395
       8    H3      18.972506   19.465543   23.184173 H          1 MOL1         0.0816
       9    C4      20.634378   19.112547   21.932392 C.2        1 MOL1        -0.1394
      10    H4      20.988108   18.886138   20.927069 H          1 MOL1         0.0816
      11    C5      21.713517   19.256013   22.982249 C.3        1 MOL1        -0.1826
      12    H5      21.276308   19.224132   23.989747 H          1 MOL1         0.0736
      13    H6      22.411294   18.410400   22.914562 H          1 MOL1         0.0736
      14    C6      22.487762   20.576530   22.803815 C.3        1 MOL1        -0.2882
      15    H7      21.813839   21.438752   22.893271 H          1 MOL1         0.0749
      16    H8      23.269763   20.674680   23.567967 H          1 MOL1         0.0749
      17    H9      22.968131   20.618760   21.817463 H          1 MOL1         0.0749
@<TRIPOS>BOND
    1     1     2    1
    2     1     3    2
    3     1     4    1
    4     4     5    1
    5     4     6    1
    6     4     7    1
    7     7     8    1
    8     7     9    2
    9     9    10    1
   10     9    11    1
   11    11    12    1
   12    11    13    1
   13    11    14    1
   14    14    15    1
   15    14    16    1
   16    14    17    1
@<TRIPOS>SUBSTRUCTURE
       1 MOL1            1 RESIDUE      1      MOL     
@<SCITEGIC>MOL_PROPERTY
VConf Rank
SciTegic.value.IntegerValue
411

@<SCITEGIC>MOL_PROPERTY
Conf_Id
SciTegic.value.IntegerValue
38

@<SCITEGIC>MOL_PROPERTY
Delta U+W
SciTegic.value.DoubleValue
0.000

@<SCITEGIC>MOL_PROPERTY
U+W
SciTegic.value.DoubleValue
-49.427

@<SCITEGIC>MOL_PROPERTY
Grad RMS
SciTegic.value.DoubleValue
0.000000

@<SCITEGIC>MOL_PROPERTY
U
SciTegic.value.DoubleValue
13.666

@<SCITEGIC>MOL_PROPERTY
W
SciTegic.value.DoubleValue
-63.093

@<SCITEGIC>MOL_PROPERTY
W(PB)
SciTegic.value.DoubleValue
-65.225

@<SCITEGIC>MOL_PROPERTY
W(SA)
SciTegic.value.DoubleValue
2.132

@<SCITEGIC>MOL_PROPERTY
Valence
SciTegic.value.DoubleValue
15.226

@<SCITEGIC>MOL_PROPERTY
Coulomb
SciTegic.value.DoubleValue
-1.822

@<SCITEGIC>MOL_PROPERTY
VdW
SciTegic.value.DoubleValue
0.261

@<SCITEGIC>MOL_PROPERTY
VdW6
SciTegic.value.DoubleValue
-4.165

@<SCITEGIC>MOL_PROPERTY
VdW12
SciTegic.value.DoubleValue
4.426

@<SCITEGIC>MOL_PROPERTY
Bond
SciTegic.value.DoubleValue
0.044

@<SCITEGIC>MOL_PROPERTY
Angle
SciTegic.value.DoubleValue
2.229

@<SCITEGIC>MOL_PROPERTY
Pdih
SciTegic.value.DoubleValue
12.953

@<SCITEGIC>MOL_PROPERTY
Idih
SciTegic.value.DoubleValue
0.000

@<SCITEGIC>MOL_PROPERTY
Tether
SciTegic.value.DoubleValue
0.000

@<TRIPOS>MOLECULE
guest-s20_confgen4.mol2 : confsearch ligand conformer 412
          17          16           1
SMALL
USER_CHARGES
 
@<TRIPOS>ATOM
       1    C1      19.500868   19.106563   18.998867 C.2        1 MOL1         0.6132
       2    O1      18.805523   18.135339   18.775181 O.co2      1 MOL1        -0.6749
       3    O2      20.389015   19.481907   18.259088 O.co2      1 MOL1        -0.6749
       4    C2      19.243404   19.901251   20.272362 C.3        1 MOL1        -0.1955
       5    H1      18.207722   19.721967   20.585187 H          1 MOL1         0.0733
       6    H2      19.323765   20.966020   20.024743 H          1 MOL1         0.0733
       7    C3      20.215246   19.549998   21.382717 C.2        1 MOL1        -0.1395
       8    H3      21.248444   19.848751   21.208216 H          1 MOL1         0.0816
       9    C4      19.872102   18.917740   22.509096 C.2        1 MOL1        -0.1394
      10    H4      18.839360   18.616459   22.681530 H          1 MOL1         0.0816
      11    C5      20.843266   18.564791   23.613446 C.3        1 MOL1        -0.1826
      12    H5      20.708174   17.514175   23.904116 H          1 MOL1         0.0736
      13    H6      21.879086   18.663599   23.260552 H          1 MOL1         0.0736
      14    C6      20.635211   19.469083   24.843905 C.3        1 MOL1        -0.2882
      15    H7      19.617523   19.361403   25.241578 H          1 MOL1         0.0749
      16    H8      21.342168   19.207806   25.642047 H          1 MOL1         0.0749
      17    H9      20.790649   20.524252   24.583024 H          1 MOL1         0.0749
@<TRIPOS>BOND
    1     1     2    1
    2     1     3    2
    3     1     4    1
    4     4     5    1
    5     4     6    1
    6     4     7    1
    7     7     8    1
    8     7     9    2
    9     9    10    1
   10     9    11    1
   11    11    12    1
   12    11    13    1
   13    11    14    1
   14    14    15    1
   15    14    16    1
   16    14    17    1
@<TRIPOS>SUBSTRUCTURE
       1 MOL1            1 RESIDUE      1      MOL     
@<SCITEGIC>MOL_PROPERTY
VConf Rank
SciTegic.value.IntegerValue
412

@<SCITEGIC>MOL_PROPERTY
Conf_Id
SciTegic.value.IntegerValue
35

@<SCITEGIC>MOL_PROPERTY
Delta U+W
SciTegic.value.DoubleValue
-0.102

@<SCITEGIC>MOL_PROPERTY
U+W
SciTegic.value.DoubleValue
-49.529

@<SCITEGIC>MOL_PROPERTY
Grad RMS
SciTegic.value.DoubleValue
0.000000

@<SCITEGIC>MOL_PROPERTY
U
SciTegic.value.DoubleValue
13.666

@<SCITEGIC>MOL_PROPERTY
W
SciTegic.value.DoubleValue
-63.195

@<SCITEGIC>MOL_PROPERTY
W(PB)
SciTegic.value.DoubleValue
-65.299

@<SCITEGIC>MOL_PROPERTY
W(SA)
SciTegic.value.DoubleValue
2.103

@<SCITEGIC>MOL_PROPERTY
Valence
SciTegic.value.DoubleValue
15.226

@<SCITEGIC>MOL_PROPERTY
Coulomb
SciTegic.value.DoubleValue
-1.822

@<SCITEGIC>MOL_PROPERTY
VdW
SciTegic.value.DoubleValue
0.261

@<SCITEGIC>MOL_PROPERTY
VdW6
SciTegic.value.DoubleValue
-4.165

@<SCITEGIC>MOL_PROPERTY
VdW12
SciTegic.value.DoubleValue
4.426

@<SCITEGIC>MOL_PROPERTY
Bond
SciTegic.value.DoubleValue
0.044

@<SCITEGIC>MOL_PROPERTY
Angle
SciTegic.value.DoubleValue
2.229

@<SCITEGIC>MOL_PROPERTY
Pdih
SciTegic.value.DoubleValue
12.953

@<SCITEGIC>MOL_PROPERTY
Idih
SciTegic.value.DoubleValue
0.000

@<SCITEGIC>MOL_PROPERTY
Tether
SciTegic.value.DoubleValue
0.000

@<TRIPOS>MOLECULE
guest-s20_confgen4.mol2 : confsearch ligand conformer 413
          17          16           1
SMALL
USER_CHARGES
 
@<TRIPOS>ATOM
       1    C1      17.460569   18.064090   22.276309 C.2        1 MOL1         0.6132
       2    O1      16.757259   18.710730   21.525188 O.co2      1 MOL1        -0.6749
       3    O2      17.443309   16.850366   22.334840 O.co2      1 MOL1        -0.6749
       4    C2      18.407639   18.818241   23.200434 C.3        1 MOL1        -0.1955
       5    H1      18.626361   18.178294   24.063692 H          1 MOL1         0.0733
       6    H2      17.874926   19.697658   23.580372 H          1 MOL1         0.0733
       7    C3      19.684141   19.245070   22.500601 C.2        1 MOL1        -0.1395
       8    H3      19.549117   20.005350   21.733246 H          1 MOL1         0.0816
       9    C4      20.893004   18.741086   22.778738 C.2        1 MOL1        -0.1394
      10    H4      20.988517   17.978017   23.550546 H          1 MOL1         0.0816
      11    C5      22.207727   19.118372   22.117113 C.3        1 MOL1        -0.1826
      12    H5      22.908128   19.466646   22.888249 H          1 MOL1         0.0736
      13    H6      22.664048   18.214918   21.690426 H          1 MOL1         0.0736
      14    C6      22.097624   20.194537   21.014491 C.3        1 MOL1        -0.2882
      15    H7      21.694439   21.132528   21.418243 H          1 MOL1         0.0749
      16    H8      23.085458   20.409911   20.586909 H          1 MOL1         0.0749
      17    H9      21.444598   19.857307   20.198818 H          1 MOL1         0.0749
@<TRIPOS>BOND
    1     1     2    1
    2     1     3    2
    3     1     4    1
    4     4     5    1
    5     4     6    1
    6     4     7    1
    7     7     8    1
    8     7     9    2
    9     9    10    1
   10     9    11    1
   11    11    12    1
   12    11    13    1
   13    11    14    1
   14    14    15    1
   15    14    16    1
   16    14    17    1
@<TRIPOS>SUBSTRUCTURE
       1 MOL1            1 RESIDUE      1      MOL     
@<SCITEGIC>MOL_PROPERTY
VConf Rank
SciTegic.value.IntegerValue
413

@<SCITEGIC>MOL_PROPERTY
Conf_Id
SciTegic.value.IntegerValue
19

@<SCITEGIC>MOL_PROPERTY
Delta U+W
SciTegic.value.DoubleValue
-0.496

@<SCITEGIC>MOL_PROPERTY
U+W
SciTegic.value.DoubleValue
-49.923

@<SCITEGIC>MOL_PROPERTY
Grad RMS
SciTegic.value.DoubleValue
0.000000

@<SCITEGIC>MOL_PROPERTY
U
SciTegic.value.DoubleValue
13.863

@<SCITEGIC>MOL_PROPERTY
W
SciTegic.value.DoubleValue
-63.786

@<SCITEGIC>MOL_PROPERTY
W(PB)
SciTegic.value.DoubleValue
-65.856

@<SCITEGIC>MOL_PROPERTY
W(SA)
SciTegic.value.DoubleValue
2.070

@<SCITEGIC>MOL_PROPERTY
Valence
SciTegic.value.DoubleValue
14.117

@<SCITEGIC>MOL_PROPERTY
Coulomb
SciTegic.value.DoubleValue
-1.228

@<SCITEGIC>MOL_PROPERTY
VdW
SciTegic.value.DoubleValue
0.974

@<SCITEGIC>MOL_PROPERTY
VdW6
SciTegic.value.DoubleValue
-4.885

@<SCITEGIC>MOL_PROPERTY
VdW12
SciTegic.value.DoubleValue
5.859

@<SCITEGIC>MOL_PROPERTY
Bond
SciTegic.value.DoubleValue
0.094

@<SCITEGIC>MOL_PROPERTY
Angle
SciTegic.value.DoubleValue
2.818

@<SCITEGIC>MOL_PROPERTY
Pdih
SciTegic.value.DoubleValue
11.205

@<SCITEGIC>MOL_PROPERTY
Idih
SciTegic.value.DoubleValue
0.000

@<SCITEGIC>MOL_PROPERTY
Tether
SciTegic.value.DoubleValue
0.000

@<TRIPOS>MOLECULE
guest-s20_confgen4.mol2 : confsearch ligand conformer 414
          17          16           1
SMALL
USER_CHARGES
 
@<TRIPOS>ATOM
       1    C1      17.571203   17.715016   21.882459 C.2        1 MOL1         0.6132
       2    O1      16.895067   18.238325   22.746056 O.co2      1 MOL1        -0.6749
       3    O2      17.189976   17.545693   20.740969 O.co2      1 MOL1        -0.6749
       4    C2      18.968776   17.234713   22.251139 C.3        1 MOL1        -0.1955
       5    H1      19.122166   16.257500   21.778899 H          1 MOL1         0.0733
       6    H2      19.002075   17.075812   23.335711 H          1 MOL1         0.0733
       7    C3      20.050613   18.202042   21.809926 C.2        1 MOL1        -0.1395
       8    H3      20.181286   18.293450   20.732065 H          1 MOL1         0.0816
       9    C4      20.806766   18.916863   22.648664 C.2        1 MOL1        -0.1394
      10    H4      20.672156   18.828908   23.726255 H          1 MOL1         0.0816
      11    C5      21.883008   19.883083   22.206559 C.3        1 MOL1        -0.1826
      12    H5      22.804579   19.697204   22.774607 H          1 MOL1         0.0736
      13    H6      22.128510   19.726544   21.147110 H          1 MOL1         0.0736
      14    C6      21.435923   21.342976   22.415891 C.3        1 MOL1        -0.2882
      15    H7      21.220793   21.538737   23.474580 H          1 MOL1         0.0749
      16    H8      22.220337   22.039790   22.093072 H          1 MOL1         0.0749
      17    H9      20.528342   21.559352   21.836961 H          1 MOL1         0.0749
@<TRIPOS>BOND
    1     1     2    1
    2     1     3    2
    3     1     4    1
    4     4     5    1
    5     4     6    1
    6     4     7    1
    7     7     8    1
    8     7     9    2
    9     9    10    1
   10     9    11    1
   11    11    12    1
   12    11    13    1
   13    11    14    1
   14    14    15    1
   15    14    16    1
   16    14    17    1
@<TRIPOS>SUBSTRUCTURE
       1 MOL1            1 RESIDUE      1      MOL     
@<SCITEGIC>MOL_PROPERTY
VConf Rank
SciTegic.value.IntegerValue
414

@<SCITEGIC>MOL_PROPERTY
Conf_Id
SciTegic.value.IntegerValue
7

@<SCITEGIC>MOL_PROPERTY
Delta U+W
SciTegic.value.DoubleValue
-0.041

@<SCITEGIC>MOL_PROPERTY
U+W
SciTegic.value.DoubleValue
-49.468

@<SCITEGIC>MOL_PROPERTY
Grad RMS
SciTegic.value.DoubleValue
0.000000

@<SCITEGIC>MOL_PROPERTY
U
SciTegic.value.DoubleValue
14.121

@<SCITEGIC>MOL_PROPERTY
W
SciTegic.value.DoubleValue
-63.589

@<SCITEGIC>MOL_PROPERTY
W(PB)
SciTegic.value.DoubleValue
-65.660

@<SCITEGIC>MOL_PROPERTY
W(SA)
SciTegic.value.DoubleValue
2.071

@<SCITEGIC>MOL_PROPERTY
Valence
SciTegic.value.DoubleValue
15.230

@<SCITEGIC>MOL_PROPERTY
Coulomb
SciTegic.value.DoubleValue
-1.333

@<SCITEGIC>MOL_PROPERTY
VdW
SciTegic.value.DoubleValue
0.224

@<SCITEGIC>MOL_PROPERTY
VdW6
SciTegic.value.DoubleValue
-4.212

@<SCITEGIC>MOL_PROPERTY
VdW12
SciTegic.value.DoubleValue
4.436

@<SCITEGIC>MOL_PROPERTY
Bond
SciTegic.value.DoubleValue
0.044

@<SCITEGIC>MOL_PROPERTY
Angle
SciTegic.value.DoubleValue
2.230

@<SCITEGIC>MOL_PROPERTY
Pdih
SciTegic.value.DoubleValue
12.956

@<SCITEGIC>MOL_PROPERTY
Idih
SciTegic.value.DoubleValue
0.000

@<SCITEGIC>MOL_PROPERTY
Tether
SciTegic.value.DoubleValue
0.000

@<TRIPOS>MOLECULE
guest-s20_confgen4.mol2 : confsearch ligand conformer 415
          17          16           1
SMALL
USER_CHARGES
 
@<TRIPOS>ATOM
       1    C1      17.446782   18.650841   22.063268 C.2        1 MOL1         0.6132
       2    O1      16.940611   19.683554   22.456062 O.co2      1 MOL1        -0.6749
       3    O2      17.192712   17.558351   22.531238 O.co2      1 MOL1        -0.6749
       4    C2      18.433176   18.726549   20.901858 C.3        1 MOL1        -0.1955
       5    H1      18.127674   19.557025   20.254752 H          1 MOL1         0.0733
       6    H2      18.314958   17.817182   20.301195 H          1 MOL1         0.0733
       7    C3      19.895048   18.894422   21.291250 C.2        1 MOL1        -0.1395
       8    H3      20.581860   18.946081   20.447352 H          1 MOL1         0.0816
       9    C4      20.371926   18.980971   22.538684 C.2        1 MOL1        -0.1394
      10    H4      19.706749   18.933092   23.400067 H          1 MOL1         0.0816
      11    C5      21.837951   19.146233   22.872449 C.3        1 MOL1        -0.1826
      12    H5      22.124353   18.425357   23.650158 H          1 MOL1         0.0736
      13    H6      22.460181   18.925933   21.994125 H          1 MOL1         0.0736
      14    C6      22.136252   20.576464   23.362851 C.3        1 MOL1        -0.2882
      15    H7      23.200931   20.690261   23.604860 H          1 MOL1         0.0749
      16    H8      21.881362   21.314328   22.590722 H          1 MOL1         0.0749
      17    H9      21.554881   20.810430   24.264364 H          1 MOL1         0.0749
@<TRIPOS>BOND
    1     1     2    1
    2     1     3    2
    3     1     4    1
    4     4     5    1
    5     4     6    1
    6     4     7    1
    7     7     8    1
    8     7     9    2
    9     9    10    1
   10     9    11    1
   11    11    12    1
   12    11    13    1
   13    11    14    1
   14    14    15    1
   15    14    16    1
   16    14    17    1
@<TRIPOS>SUBSTRUCTURE
       1 MOL1            1 RESIDUE      1      MOL     
@<SCITEGIC>MOL_PROPERTY
VConf Rank
SciTegic.value.IntegerValue
415

@<SCITEGIC>MOL_PROPERTY
Conf_Id
SciTegic.value.IntegerValue
39

@<SCITEGIC>MOL_PROPERTY
Delta U+W
SciTegic.value.DoubleValue
-0.422

@<SCITEGIC>MOL_PROPERTY
U+W
SciTegic.value.DoubleValue
-49.849

@<SCITEGIC>MOL_PROPERTY
Grad RMS
SciTegic.value.DoubleValue
0.000000

@<SCITEGIC>MOL_PROPERTY
U
SciTegic.value.DoubleValue
14.465

@<SCITEGIC>MOL_PROPERTY
W
SciTegic.value.DoubleValue
-64.314

@<SCITEGIC>MOL_PROPERTY
W(PB)
SciTegic.value.DoubleValue
-66.406

@<SCITEGIC>MOL_PROPERTY
W(SA)
SciTegic.value.DoubleValue
2.093

@<SCITEGIC>MOL_PROPERTY
Valence
SciTegic.value.DoubleValue
14.072

@<SCITEGIC>MOL_PROPERTY
Coulomb
SciTegic.value.DoubleValue
-0.199

@<SCITEGIC>MOL_PROPERTY
VdW
SciTegic.value.DoubleValue
0.592

@<SCITEGIC>MOL_PROPERTY
VdW6
SciTegic.value.DoubleValue
-5.019

@<SCITEGIC>MOL_PROPERTY
VdW12
SciTegic.value.DoubleValue
5.611

@<SCITEGIC>MOL_PROPERTY
Bond
SciTegic.value.DoubleValue
0.085

@<SCITEGIC>MOL_PROPERTY
Angle
SciTegic.value.DoubleValue
2.748

@<SCITEGIC>MOL_PROPERTY
Pdih
SciTegic.value.DoubleValue
11.238

@<SCITEGIC>MOL_PROPERTY
Idih
SciTegic.value.DoubleValue
0.001

@<SCITEGIC>MOL_PROPERTY
Tether
SciTegic.value.DoubleValue
0.000

@<TRIPOS>MOLECULE
guest-s20_confgen4.mol2 : confsearch ligand conformer 416
          17          16           1
SMALL
USER_CHARGES
 
@<TRIPOS>ATOM
       1    C1      18.285355   17.517681   24.004642 C.2        1 MOL1         0.6132
       2    O1      17.853241   18.064730   25.000120 O.co2      1 MOL1        -0.6749
       3    O2      18.683649   16.369681   23.988052 O.co2      1 MOL1        -0.6749
       4    C2      18.323887   18.314313   22.707146 C.3        1 MOL1        -0.1955
       5    H1      17.396376   18.894923   22.642915 H          1 MOL1         0.0733
       6    H2      18.317826   17.606420   21.869596 H          1 MOL1         0.0733
       7    C3      19.523660   19.239052   22.628731 C.2        1 MOL1        -0.1395
       8    H3      19.516610   20.070713   23.332643 H          1 MOL1         0.0816
       9    C4      20.539543   19.080627   21.774850 C.2        1 MOL1        -0.1394
      10    H4      20.547392   18.247091   21.073268 H          1 MOL1         0.0816
      11    C5      21.736893   20.001588   21.700656 C.3        1 MOL1        -0.1826
      12    H5      21.781933   20.645877   22.589523 H          1 MOL1         0.0736
      13    H6      22.661183   19.408137   21.694372 H          1 MOL1         0.0736
      14    C6      21.682069   20.880503   20.435918 C.3        1 MOL1        -0.2882
      15    H7      20.777507   21.502883   20.432578 H          1 MOL1         0.0749
      16    H8      22.553687   21.546086   20.387281 H          1 MOL1         0.0749
      17    H9      21.674903   20.261804   19.528951 H          1 MOL1         0.0749
@<TRIPOS>BOND
    1     1     2    1
    2     1     3    2
    3     1     4    1
    4     4     5    1
    5     4     6    1
    6     4     7    1
    7     7     8    1
    8     7     9    2
    9     9    10    1
   10     9    11    1
   11    11    12    1
   12    11    13    1
   13    11    14    1
   14    14    15    1
   15    14    16    1
   16    14    17    1
@<TRIPOS>SUBSTRUCTURE
       1 MOL1            1 RESIDUE      1      MOL     
@<SCITEGIC>MOL_PROPERTY
VConf Rank
SciTegic.value.IntegerValue
416

@<SCITEGIC>MOL_PROPERTY
Conf_Id
SciTegic.value.IntegerValue
38

@<SCITEGIC>MOL_PROPERTY
Delta U+W
SciTegic.value.DoubleValue
0.000

@<SCITEGIC>MOL_PROPERTY
U+W
SciTegic.value.DoubleValue
-49.427

@<SCITEGIC>MOL_PROPERTY
Grad RMS
SciTegic.value.DoubleValue
0.000000

@<SCITEGIC>MOL_PROPERTY
U
SciTegic.value.DoubleValue
13.666

@<SCITEGIC>MOL_PROPERTY
W
SciTegic.value.DoubleValue
-63.093

@<SCITEGIC>MOL_PROPERTY
W(PB)
SciTegic.value.DoubleValue
-65.225

@<SCITEGIC>MOL_PROPERTY
W(SA)
SciTegic.value.DoubleValue
2.132

@<SCITEGIC>MOL_PROPERTY
Valence
SciTegic.value.DoubleValue
15.226

@<SCITEGIC>MOL_PROPERTY
Coulomb
SciTegic.value.DoubleValue
-1.822

@<SCITEGIC>MOL_PROPERTY
VdW
SciTegic.value.DoubleValue
0.261

@<SCITEGIC>MOL_PROPERTY
VdW6
SciTegic.value.DoubleValue
-4.165

@<SCITEGIC>MOL_PROPERTY
VdW12
SciTegic.value.DoubleValue
4.426

@<SCITEGIC>MOL_PROPERTY
Bond
SciTegic.value.DoubleValue
0.044

@<SCITEGIC>MOL_PROPERTY
Angle
SciTegic.value.DoubleValue
2.229

@<SCITEGIC>MOL_PROPERTY
Pdih
SciTegic.value.DoubleValue
12.953

@<SCITEGIC>MOL_PROPERTY
Idih
SciTegic.value.DoubleValue
0.000

@<SCITEGIC>MOL_PROPERTY
Tether
SciTegic.value.DoubleValue
0.000

@<TRIPOS>MOLECULE
guest-s20_confgen4.mol2 : confsearch ligand conformer 417
          17          16           1
SMALL
USER_CHARGES
 
@<TRIPOS>ATOM
       1    C1      20.392064   21.984471   23.699450 C.2        1 MOL1         0.6132
       2    O1      19.437235   22.696561   23.458519 O.co2      1 MOL1        -0.6749
       3    O2      21.523384   22.403867   23.844989 O.co2      1 MOL1        -0.6749
       4    C2      20.159621   20.485137   23.832015 C.3        1 MOL1        -0.1955
       5    H1      19.108265   20.323172   24.098581 H          1 MOL1         0.0733
       6    H2      20.762811   20.125812   24.673772 H          1 MOL1         0.0733
       7    C3      20.523395   19.727071   22.569578 C.2        1 MOL1        -0.1395
       8    H3      21.585741   19.708321   22.328186 H          1 MOL1         0.0816
       9    C4      19.636523   19.114189   21.779601 C.2        1 MOL1        -0.1394
      10    H4      18.574046   19.136034   22.019860 H          1 MOL1         0.0816
      11    C5      20.000672   18.362113   20.519006 C.3        1 MOL1        -0.1826
      12    H5      19.344752   18.677842   19.696439 H          1 MOL1         0.0736
      13    H6      21.028329   18.600907   20.212222 H          1 MOL1         0.0736
      14    C6      19.870416   16.840355   20.724794 C.3        1 MOL1        -0.2882
      15    H7      18.841744   16.568305   20.995444 H          1 MOL1         0.0749
      16    H8      20.135226   16.300080   19.806609 H          1 MOL1         0.0749
      17    H9      20.537301   16.496868   21.526592 H          1 MOL1         0.0749
@<TRIPOS>BOND
    1     1     2    1
    2     1     3    2
    3     1     4    1
    4     4     5    1
    5     4     6    1
    6     4     7    1
    7     7     8    1
    8     7     9    2
    9     9    10    1
   10     9    11    1
   11    11    12    1
   12    11    13    1
   13    11    14    1
   14    14    15    1
   15    14    16    1
   16    14    17    1
@<TRIPOS>SUBSTRUCTURE
       1 MOL1            1 RESIDUE      1      MOL     
@<SCITEGIC>MOL_PROPERTY
VConf Rank
SciTegic.value.IntegerValue
417

@<SCITEGIC>MOL_PROPERTY
Conf_Id
SciTegic.value.IntegerValue
35

@<SCITEGIC>MOL_PROPERTY
Delta U+W
SciTegic.value.DoubleValue
-0.102

@<SCITEGIC>MOL_PROPERTY
U+W
SciTegic.value.DoubleValue
-49.529

@<SCITEGIC>MOL_PROPERTY
Grad RMS
SciTegic.value.DoubleValue
0.000000

@<SCITEGIC>MOL_PROPERTY
U
SciTegic.value.DoubleValue
13.666

@<SCITEGIC>MOL_PROPERTY
W
SciTegic.value.DoubleValue
-63.195

@<SCITEGIC>MOL_PROPERTY
W(PB)
SciTegic.value.DoubleValue
-65.299

@<SCITEGIC>MOL_PROPERTY
W(SA)
SciTegic.value.DoubleValue
2.103

@<SCITEGIC>MOL_PROPERTY
Valence
SciTegic.value.DoubleValue
15.226

@<SCITEGIC>MOL_PROPERTY
Coulomb
SciTegic.value.DoubleValue
-1.822

@<SCITEGIC>MOL_PROPERTY
VdW
SciTegic.value.DoubleValue
0.261

@<SCITEGIC>MOL_PROPERTY
VdW6
SciTegic.value.DoubleValue
-4.165

@<SCITEGIC>MOL_PROPERTY
VdW12
SciTegic.value.DoubleValue
4.426

@<SCITEGIC>MOL_PROPERTY
Bond
SciTegic.value.DoubleValue
0.044

@<SCITEGIC>MOL_PROPERTY
Angle
SciTegic.value.DoubleValue
2.229

@<SCITEGIC>MOL_PROPERTY
Pdih
SciTegic.value.DoubleValue
12.953

@<SCITEGIC>MOL_PROPERTY
Idih
SciTegic.value.DoubleValue
0.000

@<SCITEGIC>MOL_PROPERTY
Tether
SciTegic.value.DoubleValue
0.000

@<TRIPOS>MOLECULE
guest-s20_confgen4.mol2 : confsearch ligand conformer 418
          17          16           1
SMALL
USER_CHARGES
 
@<TRIPOS>ATOM
       1    C1      18.107306   17.804090   23.801581 C.2        1 MOL1         0.6132
       2    O1      18.117979   18.243754   24.934521 O.co2      1 MOL1        -0.6749
       3    O2      17.092884   17.648054   23.150852 O.co2      1 MOL1        -0.6749
       4    C2      19.437915   17.419469   23.168144 C.3        1 MOL1        -0.1955
       5    H1      19.242929   16.677456   22.384574 H          1 MOL1         0.0733
       6    H2      20.043050   16.923341   23.935723 H          1 MOL1         0.0733
       7    C3      20.183590   18.617532   22.611349 C.2        1 MOL1        -0.1395
       8    H3      20.545451   19.316893   23.363041 H          1 MOL1         0.0816
       9    C4      20.390560   18.827732   21.305328 C.2        1 MOL1        -0.1394
      10    H4      20.009532   18.107705   20.581820 H          1 MOL1         0.0816
      11    C5      21.122777   20.003130   20.680120 C.3        1 MOL1        -0.1826
      12    H5      21.955092   19.622668   20.072661 H          1 MOL1         0.0736
      13    H6      20.449194   20.508001   19.974491 H          1 MOL1         0.0736
      14    C6      21.667398   21.041615   21.685587 C.3        1 MOL1        -0.2882
      15    H7      22.387911   20.582324   22.375018 H          1 MOL1         0.0749
      16    H8      22.179837   21.856371   21.157751 H          1 MOL1         0.0749
      17    H9      20.853459   21.482987   22.275657 H          1 MOL1         0.0749
@<TRIPOS>BOND
    1     1     2    1
    2     1     3    2
    3     1     4    1
    4     4     5    1
    5     4     6    1
    6     4     7    1
    7     7     8    1
    8     7     9    2
    9     9    10    1
   10     9    11    1
   11    11    12    1
   12    11    13    1
   13    11    14    1
   14    14    15    1
   15    14    16    1
   16    14    17    1
@<TRIPOS>SUBSTRUCTURE
       1 MOL1            1 RESIDUE      1      MOL     
@<SCITEGIC>MOL_PROPERTY
VConf Rank
SciTegic.value.IntegerValue
418

@<SCITEGIC>MOL_PROPERTY
Conf_Id
SciTegic.value.IntegerValue
19

@<SCITEGIC>MOL_PROPERTY
Delta U+W
SciTegic.value.DoubleValue
-0.496

@<SCITEGIC>MOL_PROPERTY
U+W
SciTegic.value.DoubleValue
-49.923

@<SCITEGIC>MOL_PROPERTY
Grad RMS
SciTegic.value.DoubleValue
0.000000

@<SCITEGIC>MOL_PROPERTY
U
SciTegic.value.DoubleValue
13.863

@<SCITEGIC>MOL_PROPERTY
W
SciTegic.value.DoubleValue
-63.786

@<SCITEGIC>MOL_PROPERTY
W(PB)
SciTegic.value.DoubleValue
-65.856

@<SCITEGIC>MOL_PROPERTY
W(SA)
SciTegic.value.DoubleValue
2.070

@<SCITEGIC>MOL_PROPERTY
Valence
SciTegic.value.DoubleValue
14.117

@<SCITEGIC>MOL_PROPERTY
Coulomb
SciTegic.value.DoubleValue
-1.228

@<SCITEGIC>MOL_PROPERTY
VdW
SciTegic.value.DoubleValue
0.974

@<SCITEGIC>MOL_PROPERTY
VdW6
SciTegic.value.DoubleValue
-4.885

@<SCITEGIC>MOL_PROPERTY
VdW12
SciTegic.value.DoubleValue
5.859

@<SCITEGIC>MOL_PROPERTY
Bond
SciTegic.value.DoubleValue
0.094

@<SCITEGIC>MOL_PROPERTY
Angle
SciTegic.value.DoubleValue
2.818

@<SCITEGIC>MOL_PROPERTY
Pdih
SciTegic.value.DoubleValue
11.205

@<SCITEGIC>MOL_PROPERTY
Idih
SciTegic.value.DoubleValue
0.000

@<SCITEGIC>MOL_PROPERTY
Tether
SciTegic.value.DoubleValue
0.000

@<TRIPOS>MOLECULE
guest-s20_confgen4.mol2 : confsearch ligand conformer 419
          17          16           1
SMALL
USER_CHARGES
 
@<TRIPOS>ATOM
       1    C1      20.201738   21.967938   21.778661 C.2        1 MOL1         0.6132
       2    O1      20.307238   22.396410   22.910957 O.co2      1 MOL1        -0.6749
       3    O2      20.869351   22.366256   20.844510 O.co2      1 MOL1        -0.6749
       4    C2      19.169863   20.880054   21.511139 C.3        1 MOL1        -0.1955
       5    H1      18.671136   21.117470   20.564360 H          1 MOL1         0.0733
       6    H2      18.406796   20.930044   22.297194 H          1 MOL1         0.0733
       7    C3      19.788745   19.496983   21.441394 C.2        1 MOL1        -0.1395
       8    H3      20.443861   19.323157   20.588269 H          1 MOL1         0.0816
       9    C4      19.579113   18.533819   22.343938 C.2        1 MOL1        -0.1394
      10    H4      18.928011   18.709892   23.199580 H          1 MOL1         0.0816
      11    C5      20.199538   17.156310   22.274093 C.3        1 MOL1        -0.1826
      12    H5      19.426061   16.392595   22.432194 H          1 MOL1         0.0736
      13    H6      20.622271   16.975269   21.276231 H          1 MOL1         0.0736
      14    C6      21.306546   16.993653   23.333842 C.3        1 MOL1        -0.2882
      15    H7      20.903331   17.131289   24.345722 H          1 MOL1         0.0749
      16    H8      21.753592   15.992580   23.278434 H          1 MOL1         0.0749
      17    H9      22.104387   17.732290   23.180402 H          1 MOL1         0.0749
@<TRIPOS>BOND
    1     1     2    1
    2     1     3    2
    3     1     4    1
    4     4     5    1
    5     4     6    1
    6     4     7    1
    7     7     8    1
    8     7     9    2
    9     9    10    1
   10     9    11    1
   11    11    12    1
   12    11    13    1
   13    11    14    1
   14    14    15    1
   15    14    16    1
   16    14    17    1
@<TRIPOS>SUBSTRUCTURE
       1 MOL1            1 RESIDUE      1      MOL     
@<SCITEGIC>MOL_PROPERTY
VConf Rank
SciTegic.value.IntegerValue
419

@<SCITEGIC>MOL_PROPERTY
Conf_Id
SciTegic.value.IntegerValue
7

@<SCITEGIC>MOL_PROPERTY
Delta U+W
SciTegic.value.DoubleValue
-0.041

@<SCITEGIC>MOL_PROPERTY
U+W
SciTegic.value.DoubleValue
-49.468

@<SCITEGIC>MOL_PROPERTY
Grad RMS
SciTegic.value.DoubleValue
0.000000

@<SCITEGIC>MOL_PROPERTY
U
SciTegic.value.DoubleValue
14.121

@<SCITEGIC>MOL_PROPERTY
W
SciTegic.value.DoubleValue
-63.589

@<SCITEGIC>MOL_PROPERTY
W(PB)
SciTegic.value.DoubleValue
-65.660

@<SCITEGIC>MOL_PROPERTY
W(SA)
SciTegic.value.DoubleValue
2.071

@<SCITEGIC>MOL_PROPERTY
Valence
SciTegic.value.DoubleValue
15.230

@<SCITEGIC>MOL_PROPERTY
Coulomb
SciTegic.value.DoubleValue
-1.333

@<SCITEGIC>MOL_PROPERTY
VdW
SciTegic.value.DoubleValue
0.224

@<SCITEGIC>MOL_PROPERTY
VdW6
SciTegic.value.DoubleValue
-4.212

@<SCITEGIC>MOL_PROPERTY
VdW12
SciTegic.value.DoubleValue
4.436

@<SCITEGIC>MOL_PROPERTY
Bond
SciTegic.value.DoubleValue
0.044

@<SCITEGIC>MOL_PROPERTY
Angle
SciTegic.value.DoubleValue
2.230

@<SCITEGIC>MOL_PROPERTY
Pdih
SciTegic.value.DoubleValue
12.956

@<SCITEGIC>MOL_PROPERTY
Idih
SciTegic.value.DoubleValue
0.000

@<SCITEGIC>MOL_PROPERTY
Tether
SciTegic.value.DoubleValue
0.000

@<TRIPOS>MOLECULE
guest-s20_confgen4.mol2 : confsearch ligand conformer 420
          17          16           1
SMALL
USER_CHARGES
 
@<TRIPOS>ATOM
       1    C1      19.886561   17.124105   23.984001 C.2        1 MOL1         0.6132
       2    O1      20.652060   16.331523   23.471344 O.co2      1 MOL1        -0.6749
       3    O2      18.725630   16.868519   24.236978 O.co2      1 MOL1        -0.6749
       4    C2      20.418827   18.504783   24.355484 C.3        1 MOL1        -0.1955
       5    H1      21.476425   18.396703   24.623017 H          1 MOL1         0.0733
       6    H2      19.907860   18.826544   25.270418 H          1 MOL1         0.0733
       7    C3      20.270520   19.576169   23.284498 C.2        1 MOL1        -0.1395
       8    H3      20.656659   20.553806   23.570275 H          1 MOL1         0.0816
       9    C4      19.726637   19.407822   22.073363 C.2        1 MOL1        -0.1394
      10    H4      19.333968   18.440465   21.762293 H          1 MOL1         0.0816
      11    C5      19.601698   20.508719   21.043627 C.3        1 MOL1        -0.1826
      12    H5      18.581092   20.522252   20.637796 H          1 MOL1         0.0736
      13    H6      19.769460   21.490610   21.507200 H          1 MOL1         0.0736
      14    C6      20.608825   20.308689   19.894401 C.3        1 MOL1        -0.2882
      15    H7      20.512789   21.109402   19.149623 H          1 MOL1         0.0749
      16    H8      21.639323   20.317330   20.273338 H          1 MOL1         0.0749
      17    H9      20.439072   19.349630   19.387600 H          1 MOL1         0.0749
@<TRIPOS>BOND
    1     1     2    1
    2     1     3    2
    3     1     4    1
    4     4     5    1
    5     4     6    1
    6     4     7    1
    7     7     8    1
    8     7     9    2
    9     9    10    1
   10     9    11    1
   11    11    12    1
   12    11    13    1
   13    11    14    1
   14    14    15    1
   15    14    16    1
   16    14    17    1
@<TRIPOS>SUBSTRUCTURE
       1 MOL1            1 RESIDUE      1      MOL     
@<SCITEGIC>MOL_PROPERTY
VConf Rank
SciTegic.value.IntegerValue
420

@<SCITEGIC>MOL_PROPERTY
Conf_Id
SciTegic.value.IntegerValue
39

@<SCITEGIC>MOL_PROPERTY
Delta U+W
SciTegic.value.DoubleValue
-0.422

@<SCITEGIC>MOL_PROPERTY
U+W
SciTegic.value.DoubleValue
-49.849

@<SCITEGIC>MOL_PROPERTY
Grad RMS
SciTegic.value.DoubleValue
0.000000

@<SCITEGIC>MOL_PROPERTY
U
SciTegic.value.DoubleValue
14.465

@<SCITEGIC>MOL_PROPERTY
W
SciTegic.value.DoubleValue
-64.314

@<SCITEGIC>MOL_PROPERTY
W(PB)
SciTegic.value.DoubleValue
-66.406

@<SCITEGIC>MOL_PROPERTY
W(SA)
SciTegic.value.DoubleValue
2.093

@<SCITEGIC>MOL_PROPERTY
Valence
SciTegic.value.DoubleValue
14.072

@<SCITEGIC>MOL_PROPERTY
Coulomb
SciTegic.value.DoubleValue
-0.199

@<SCITEGIC>MOL_PROPERTY
VdW
SciTegic.value.DoubleValue
0.592

@<SCITEGIC>MOL_PROPERTY
VdW6
SciTegic.value.DoubleValue
-5.019

@<SCITEGIC>MOL_PROPERTY
VdW12
SciTegic.value.DoubleValue
5.611

@<SCITEGIC>MOL_PROPERTY
Bond
SciTegic.value.DoubleValue
0.085

@<SCITEGIC>MOL_PROPERTY
Angle
SciTegic.value.DoubleValue
2.748

@<SCITEGIC>MOL_PROPERTY
Pdih
SciTegic.value.DoubleValue
11.238

@<SCITEGIC>MOL_PROPERTY
Idih
SciTegic.value.DoubleValue
0.001

@<SCITEGIC>MOL_PROPERTY
Tether
SciTegic.value.DoubleValue
0.000

@<TRIPOS>MOLECULE
guest-s20_confgen4.mol2 : confsearch ligand conformer 421
          17          16           1
SMALL
USER_CHARGES
 
@<TRIPOS>ATOM
       1    C1      20.589884   17.413563   24.620504 C.2        1 MOL1         0.6132
       2    O1      20.936598   17.966025   25.645948 O.co2      1 MOL1        -0.6749
       3    O2      21.038373   16.347754   24.246702 O.co2      1 MOL1        -0.6749
       4    C2      19.531680   18.093057   23.761380 C.3        1 MOL1        -0.1955
       5    H1      18.771399   18.508662   24.432763 H          1 MOL1         0.0733
       6    H2      19.037888   17.325060   23.153934 H          1 MOL1         0.0733
       7    C3      20.109638   19.189427   22.886918 C.2        1 MOL1        -0.1395
       8    H3      20.475976   20.065668   23.420960 H          1 MOL1         0.0816
       9    C4      20.185856   19.125365   21.554134 C.2        1 MOL1        -0.1394
      10    H4      19.822069   18.247607   21.020972 H          1 MOL1         0.0816
      11    C5      20.765940   20.217986   20.684076 C.3        1 MOL1        -0.1826
      12    H5      21.333894   20.934093   21.293862 H          1 MOL1         0.0736
      13    H6      21.474829   19.783258   19.966424 H          1 MOL1         0.0736
      14    C6      19.655746   20.966080   19.920607 C.3        1 MOL1        -0.2882
      15    H7      18.947922   21.431623   20.619074 H          1 MOL1         0.0749
      16    H8      20.082773   21.757162   19.290589 H          1 MOL1         0.0749
      17    H9      19.095251   20.279718   19.272394 H          1 MOL1         0.0749
@<TRIPOS>BOND
    1     1     2    1
    2     1     3    2
    3     1     4    1
    4     4     5    1
    5     4     6    1
    6     4     7    1
    7     7     8    1
    8     7     9    2
    9     9    10    1
   10     9    11    1
   11    11    12    1
   12    11    13    1
   13    11    14    1
   14    14    15    1
   15    14    16    1
   16    14    17    1
@<TRIPOS>SUBSTRUCTURE
       1 MOL1            1 RESIDUE      1      MOL     
@<SCITEGIC>MOL_PROPERTY
VConf Rank
SciTegic.value.IntegerValue
421

@<SCITEGIC>MOL_PROPERTY
Conf_Id
SciTegic.value.IntegerValue
38

@<SCITEGIC>MOL_PROPERTY
Delta U+W
SciTegic.value.DoubleValue
0.000

@<SCITEGIC>MOL_PROPERTY
U+W
SciTegic.value.DoubleValue
-49.427

@<SCITEGIC>MOL_PROPERTY
Grad RMS
SciTegic.value.DoubleValue
0.000000

@<SCITEGIC>MOL_PROPERTY
U
SciTegic.value.DoubleValue
13.666

@<SCITEGIC>MOL_PROPERTY
W
SciTegic.value.DoubleValue
-63.093

@<SCITEGIC>MOL_PROPERTY
W(PB)
SciTegic.value.DoubleValue
-65.225

@<SCITEGIC>MOL_PROPERTY
W(SA)
SciTegic.value.DoubleValue
2.132

@<SCITEGIC>MOL_PROPERTY
Valence
SciTegic.value.DoubleValue
15.226

@<SCITEGIC>MOL_PROPERTY
Coulomb
SciTegic.value.DoubleValue
-1.822

@<SCITEGIC>MOL_PROPERTY
VdW
SciTegic.value.DoubleValue
0.261

@<SCITEGIC>MOL_PROPERTY
VdW6
SciTegic.value.DoubleValue
-4.165

@<SCITEGIC>MOL_PROPERTY
VdW12
SciTegic.value.DoubleValue
4.426

@<SCITEGIC>MOL_PROPERTY
Bond
SciTegic.value.DoubleValue
0.044

@<SCITEGIC>MOL_PROPERTY
Angle
SciTegic.value.DoubleValue
2.229

@<SCITEGIC>MOL_PROPERTY
Pdih
SciTegic.value.DoubleValue
12.953

@<SCITEGIC>MOL_PROPERTY
Idih
SciTegic.value.DoubleValue
0.000

@<SCITEGIC>MOL_PROPERTY
Tether
SciTegic.value.DoubleValue
0.000

@<TRIPOS>MOLECULE
guest-s20_confgen4.mol2 : confsearch ligand conformer 422
          17          16           1
SMALL
USER_CHARGES
 
@<TRIPOS>ATOM
       1    C1      21.316572   16.487019   21.227551 C.2        1 MOL1         0.6132
       2    O1      20.522671   15.909142   20.511591 O.co2      1 MOL1        -0.6749
       3    O2      22.020380   15.923582   22.042507 O.co2      1 MOL1        -0.6749
       4    C2      21.441847   17.999005   21.094107 C.3        1 MOL1        -0.1955
       5    H1      21.099124   18.284595   20.092299 H          1 MOL1         0.0733
       6    H2      22.506395   18.253425   21.153400 H          1 MOL1         0.0733
       7    C3      20.668144   18.742821   22.165959 C.2        1 MOL1        -0.1395
       8    H3      21.055080   18.634256   23.178725 H          1 MOL1         0.0816
       9    C4      19.583241   19.486677   21.929542 C.2        1 MOL1        -0.1394
      10    H4      19.194998   19.592224   20.917027 H          1 MOL1         0.0816
      11    C5      18.810699   20.224451   23.000145 C.3        1 MOL1        -0.1826
      12    H5      17.737181   20.019349   22.890488 H          1 MOL1         0.0736
      13    H6      19.099673   19.866904   23.998080 H          1 MOL1         0.0736
      14    C6      19.055122   21.743518   22.912091 C.3        1 MOL1        -0.2882
      15    H7      18.738814   22.135261   21.936430 H          1 MOL1         0.0749
      16    H8      18.491469   22.273493   23.690876 H          1 MOL1         0.0749
      17    H9      20.120118   21.975383   23.044840 H          1 MOL1         0.0749
@<TRIPOS>BOND
    1     1     2    1
    2     1     3    2
    3     1     4    1
    4     4     5    1
    5     4     6    1
    6     4     7    1
    7     7     8    1
    8     7     9    2
    9     9    10    1
   10     9    11    1
   11    11    12    1
   12    11    13    1
   13    11    14    1
   14    14    15    1
   15    14    16    1
   16    14    17    1
@<TRIPOS>SUBSTRUCTURE
       1 MOL1            1 RESIDUE      1      MOL     
@<SCITEGIC>MOL_PROPERTY
VConf Rank
SciTegic.value.IntegerValue
422

@<SCITEGIC>MOL_PROPERTY
Conf_Id
SciTegic.value.IntegerValue
35

@<SCITEGIC>MOL_PROPERTY
Delta U+W
SciTegic.value.DoubleValue
-0.102

@<SCITEGIC>MOL_PROPERTY
U+W
SciTegic.value.DoubleValue
-49.529

@<SCITEGIC>MOL_PROPERTY
Grad RMS
SciTegic.value.DoubleValue
0.000000

@<SCITEGIC>MOL_PROPERTY
U
SciTegic.value.DoubleValue
13.666

@<SCITEGIC>MOL_PROPERTY
W
SciTegic.value.DoubleValue
-63.195

@<SCITEGIC>MOL_PROPERTY
W(PB)
SciTegic.value.DoubleValue
-65.299

@<SCITEGIC>MOL_PROPERTY
W(SA)
SciTegic.value.DoubleValue
2.103

@<SCITEGIC>MOL_PROPERTY
Valence
SciTegic.value.DoubleValue
15.226

@<SCITEGIC>MOL_PROPERTY
Coulomb
SciTegic.value.DoubleValue
-1.822

@<SCITEGIC>MOL_PROPERTY
VdW
SciTegic.value.DoubleValue
0.261

@<SCITEGIC>MOL_PROPERTY
VdW6
SciTegic.value.DoubleValue
-4.165

@<SCITEGIC>MOL_PROPERTY
VdW12
SciTegic.value.DoubleValue
4.426

@<SCITEGIC>MOL_PROPERTY
Bond
SciTegic.value.DoubleValue
0.044

@<SCITEGIC>MOL_PROPERTY
Angle
SciTegic.value.DoubleValue
2.229

@<SCITEGIC>MOL_PROPERTY
Pdih
SciTegic.value.DoubleValue
12.953

@<SCITEGIC>MOL_PROPERTY
Idih
SciTegic.value.DoubleValue
0.000

@<SCITEGIC>MOL_PROPERTY
Tether
SciTegic.value.DoubleValue
0.000

@<TRIPOS>MOLECULE
guest-s20_confgen4.mol2 : confsearch ligand conformer 423
          17          16           1
SMALL
USER_CHARGES
 
@<TRIPOS>ATOM
       1    C1      23.098879   18.825968   21.603914 C.2        1 MOL1         0.6132
       2    O1      23.412670   17.651892   21.611187 O.co2      1 MOL1        -0.6749
       3    O2      23.448750   19.609730   20.743591 O.co2      1 MOL1        -0.6749
       4    C2      22.227488   19.343297   22.740902 C.3        1 MOL1        -0.1955
       5    H1      22.391655   20.423509   22.834583 H          1 MOL1         0.0733
       6    H2      22.582406   18.883515   23.670496 H          1 MOL1         0.0733
       7    C3      20.757444   19.030983   22.533936 C.2        1 MOL1        -0.1395
       8    H3      20.505408   17.973432   22.590082 H          1 MOL1         0.0816
       9    C4      19.823005   19.959419   22.294058 C.2        1 MOL1        -0.1394
      10    H4      20.113803   21.008064   22.240530 H          1 MOL1         0.0816
      11    C5      18.339100   19.717948   22.074268 C.3        1 MOL1        -0.1826
      12    H5      17.770250   20.291608   22.818465 H          1 MOL1         0.0736
      13    H6      18.051211   20.132929   21.098854 H          1 MOL1         0.0736
      14    C6      17.902674   18.237631   22.139236 C.3        1 MOL1        -0.2882
      15    H7      18.126385   17.803681   23.122620 H          1 MOL1         0.0749
      16    H8      16.821810   18.147281   21.970122 H          1 MOL1         0.0749
      17    H9      18.413926   17.642233   21.371374 H          1 MOL1         0.0749
@<TRIPOS>BOND
    1     1     2    1
    2     1     3    2
    3     1     4    1
    4     4     5    1
    5     4     6    1
    6     4     7    1
    7     7     8    1
    8     7     9    2
    9     9    10    1
   10     9    11    1
   11    11    12    1
   12    11    13    1
   13    11    14    1
   14    14    15    1
   15    14    16    1
   16    14    17    1
@<TRIPOS>SUBSTRUCTURE
       1 MOL1            1 RESIDUE      1      MOL     
@<SCITEGIC>MOL_PROPERTY
VConf Rank
SciTegic.value.IntegerValue
423

@<SCITEGIC>MOL_PROPERTY
Conf_Id
SciTegic.value.IntegerValue
19

@<SCITEGIC>MOL_PROPERTY
Delta U+W
SciTegic.value.DoubleValue
-0.496

@<SCITEGIC>MOL_PROPERTY
U+W
SciTegic.value.DoubleValue
-49.923

@<SCITEGIC>MOL_PROPERTY
Grad RMS
SciTegic.value.DoubleValue
0.000000

@<SCITEGIC>MOL_PROPERTY
U
SciTegic.value.DoubleValue
13.863

@<SCITEGIC>MOL_PROPERTY
W
SciTegic.value.DoubleValue
-63.786

@<SCITEGIC>MOL_PROPERTY
W(PB)
SciTegic.value.DoubleValue
-65.856

@<SCITEGIC>MOL_PROPERTY
W(SA)
SciTegic.value.DoubleValue
2.070

@<SCITEGIC>MOL_PROPERTY
Valence
SciTegic.value.DoubleValue
14.117

@<SCITEGIC>MOL_PROPERTY
Coulomb
SciTegic.value.DoubleValue
-1.228

@<SCITEGIC>MOL_PROPERTY
VdW
SciTegic.value.DoubleValue
0.974

@<SCITEGIC>MOL_PROPERTY
VdW6
SciTegic.value.DoubleValue
-4.885

@<SCITEGIC>MOL_PROPERTY
VdW12
SciTegic.value.DoubleValue
5.859

@<SCITEGIC>MOL_PROPERTY
Bond
SciTegic.value.DoubleValue
0.094

@<SCITEGIC>MOL_PROPERTY
Angle
SciTegic.value.DoubleValue
2.818

@<SCITEGIC>MOL_PROPERTY
Pdih
SciTegic.value.DoubleValue
11.205

@<SCITEGIC>MOL_PROPERTY
Idih
SciTegic.value.DoubleValue
0.000

@<SCITEGIC>MOL_PROPERTY
Tether
SciTegic.value.DoubleValue
0.000

@<TRIPOS>MOLECULE
guest-s20_confgen4.mol2 : confsearch ligand conformer 424
          17          16           1
SMALL
USER_CHARGES
 
@<TRIPOS>ATOM
       1    C1      17.499529   20.228561   22.657341 C.2        1 MOL1         0.6132
       2    O1      16.887463   19.858227   21.674975 O.co2      1 MOL1        -0.6749
       3    O2      17.060370   20.159166   23.788414 O.co2      1 MOL1        -0.6749
       4    C2      18.888476   20.822214   22.461822 C.3        1 MOL1        -0.1955
       5    H1      18.975361   21.694239   23.120236 H          1 MOL1         0.0733
       6    H2      18.962727   21.189566   21.431194 H          1 MOL1         0.0733
       7    C3      19.993083   19.828052   22.765543 C.2        1 MOL1        -0.1395
       8    H3      20.079647   19.534185   23.811184 H          1 MOL1         0.0816
       9    C4      20.818088   19.317723   21.846224 C.2        1 MOL1        -0.1394
      10    H4      20.727743   19.608007   20.799978 H          1 MOL1         0.0816
      11    C5      21.917022   18.324268   22.150738 C.3        1 MOL1        -0.1826
      12    H5      22.853436   18.650488   21.678265 H          1 MOL1         0.0736
      13    H6      22.107548   18.281257   23.231968 H          1 MOL1         0.0736
      14    C6      21.547617   16.917291   21.641871 C.3        1 MOL1        -0.2882
      15    H7      21.389178   16.922820   20.555458 H          1 MOL1         0.0749
      16    H8      22.348201   16.200367   21.865818 H          1 MOL1         0.0749
      17    H9      20.626087   16.559577   22.119893 H          1 MOL1         0.0749
@<TRIPOS>BOND
    1     1     2    1
    2     1     3    2
    3     1     4    1
    4     4     5    1
    5     4     6    1
    6     4     7    1
    7     7     8    1
    8     7     9    2
    9     9    10    1
   10     9    11    1
   11    11    12    1
   12    11    13    1
   13    11    14    1
   14    14    15    1
   15    14    16    1
   16    14    17    1
@<TRIPOS>SUBSTRUCTURE
       1 MOL1            1 RESIDUE      1      MOL     
@<SCITEGIC>MOL_PROPERTY
VConf Rank
SciTegic.value.IntegerValue
424

@<SCITEGIC>MOL_PROPERTY
Conf_Id
SciTegic.value.IntegerValue
7

@<SCITEGIC>MOL_PROPERTY
Delta U+W
SciTegic.value.DoubleValue
-0.041

@<SCITEGIC>MOL_PROPERTY
U+W
SciTegic.value.DoubleValue
-49.468

@<SCITEGIC>MOL_PROPERTY
Grad RMS
SciTegic.value.DoubleValue
0.000000

@<SCITEGIC>MOL_PROPERTY
U
SciTegic.value.DoubleValue
14.121

@<SCITEGIC>MOL_PROPERTY
W
SciTegic.value.DoubleValue
-63.589

@<SCITEGIC>MOL_PROPERTY
W(PB)
SciTegic.value.DoubleValue
-65.660

@<SCITEGIC>MOL_PROPERTY
W(SA)
SciTegic.value.DoubleValue
2.071

@<SCITEGIC>MOL_PROPERTY
Valence
SciTegic.value.DoubleValue
15.230

@<SCITEGIC>MOL_PROPERTY
Coulomb
SciTegic.value.DoubleValue
-1.333

@<SCITEGIC>MOL_PROPERTY
VdW
SciTegic.value.DoubleValue
0.224

@<SCITEGIC>MOL_PROPERTY
VdW6
SciTegic.value.DoubleValue
-4.212

@<SCITEGIC>MOL_PROPERTY
VdW12
SciTegic.value.DoubleValue
4.436

@<SCITEGIC>MOL_PROPERTY
Bond
SciTegic.value.DoubleValue
0.044

@<SCITEGIC>MOL_PROPERTY
Angle
SciTegic.value.DoubleValue
2.230

@<SCITEGIC>MOL_PROPERTY
Pdih
SciTegic.value.DoubleValue
12.956

@<SCITEGIC>MOL_PROPERTY
Idih
SciTegic.value.DoubleValue
0.000

@<SCITEGIC>MOL_PROPERTY
Tether
SciTegic.value.DoubleValue
0.000

@<TRIPOS>MOLECULE
guest-s20_confgen4.mol2 : confsearch ligand conformer 425
          17          16           1
SMALL
USER_CHARGES
 
@<TRIPOS>ATOM
       1    C1      20.600335   21.594172   20.846142 C.2        1 MOL1         0.6132
       2    O1      20.286629   21.245864   19.724865 O.co2      1 MOL1        -0.6749
       3    O2      21.676576   22.088438   21.119070 O.co2      1 MOL1        -0.6749
       4    C2      19.577990   21.427753   21.966272 C.3        1 MOL1        -0.1955
       5    H1      18.579361   21.551188   21.531217 H          1 MOL1         0.0733
       6    H2      19.707339   22.262049   22.665514 H          1 MOL1         0.0733
       7    C3      19.644165   20.110375   22.725884 C.2        1 MOL1        -0.1395
       8    H3      18.906010   20.012432   23.520918 H          1 MOL1         0.0816
       9    C4      20.503759   19.111128   22.494365 C.2        1 MOL1        -0.1394
      10    H4      21.251047   19.183136   21.704993 H          1 MOL1         0.0816
      11    C5      20.528630   17.819581   23.281276 C.3        1 MOL1        -0.1826
      12    H5      21.559114   17.590584   23.584893 H          1 MOL1         0.0736
      13    H6      19.942895   17.920208   24.205366 H          1 MOL1         0.0736
      14    C6      19.967565   16.651879   22.446581 C.3        1 MOL1        -0.2882
      15    H7      19.989298   15.717203   23.021879 H          1 MOL1         0.0749
      16    H8      18.927835   16.847205   22.152634 H          1 MOL1         0.0749
      17    H9      20.558858   16.503877   21.533386 H          1 MOL1         0.0749
@<TRIPOS>BOND
    1     1     2    1
    2     1     3    2
    3     1     4    1
    4     4     5    1
    5     4     6    1
    6     4     7    1
    7     7     8    1
    8     7     9    2
    9     9    10    1
   10     9    11    1
   11    11    12    1
   12    11    13    1
   13    11    14    1
   14    14    15    1
   15    14    16    1
   16    14    17    1
@<TRIPOS>SUBSTRUCTURE
       1 MOL1            1 RESIDUE      1      MOL     
@<SCITEGIC>MOL_PROPERTY
VConf Rank
SciTegic.value.IntegerValue
425

@<SCITEGIC>MOL_PROPERTY
Conf_Id
SciTegic.value.IntegerValue
39

@<SCITEGIC>MOL_PROPERTY
Delta U+W
SciTegic.value.DoubleValue
-0.422

@<SCITEGIC>MOL_PROPERTY
U+W
SciTegic.value.DoubleValue
-49.849

@<SCITEGIC>MOL_PROPERTY
Grad RMS
SciTegic.value.DoubleValue
0.000000

@<SCITEGIC>MOL_PROPERTY
U
SciTegic.value.DoubleValue
14.465

@<SCITEGIC>MOL_PROPERTY
W
SciTegic.value.DoubleValue
-64.314

@<SCITEGIC>MOL_PROPERTY
W(PB)
SciTegic.value.DoubleValue
-66.406

@<SCITEGIC>MOL_PROPERTY
W(SA)
SciTegic.value.DoubleValue
2.093

@<SCITEGIC>MOL_PROPERTY
Valence
SciTegic.value.DoubleValue
14.072

@<SCITEGIC>MOL_PROPERTY
Coulomb
SciTegic.value.DoubleValue
-0.199

@<SCITEGIC>MOL_PROPERTY
VdW
SciTegic.value.DoubleValue
0.592

@<SCITEGIC>MOL_PROPERTY
VdW6
SciTegic.value.DoubleValue
-5.019

@<SCITEGIC>MOL_PROPERTY
VdW12
SciTegic.value.DoubleValue
5.611

@<SCITEGIC>MOL_PROPERTY
Bond
SciTegic.value.DoubleValue
0.085

@<SCITEGIC>MOL_PROPERTY
Angle
SciTegic.value.DoubleValue
2.748

@<SCITEGIC>MOL_PROPERTY
Pdih
SciTegic.value.DoubleValue
11.238

@<SCITEGIC>MOL_PROPERTY
Idih
SciTegic.value.DoubleValue
0.001

@<SCITEGIC>MOL_PROPERTY
Tether
SciTegic.value.DoubleValue
0.000

@<TRIPOS>MOLECULE
guest-s20_confgen4.mol2 : confsearch ligand conformer 426
          17          16           1
SMALL
USER_CHARGES
 
@<TRIPOS>ATOM
       1    C1      20.198067   17.134981   19.774033 C.2        1 MOL1         0.6132
       2    O1      19.137552   16.862016   19.247004 O.co2      1 MOL1        -0.6749
       3    O2      21.056526   16.311524   20.022599 O.co2      1 MOL1        -0.6749
       4    C2      20.465971   18.589660   20.136990 C.3        1 MOL1        -0.1955
       5    H1      20.096922   19.213481   19.314701 H          1 MOL1         0.0733
       6    H2      21.551579   18.736111   20.188441 H          1 MOL1         0.0733
       7    C3      19.800329   18.995764   21.438046 C.2        1 MOL1        -0.1395
       8    H3      18.711581   19.030055   21.412505 H          1 MOL1         0.0816
       9    C4      20.463133   19.295728   22.559180 C.2        1 MOL1        -0.1394
      10    H4      21.551712   19.258348   22.584861 H          1 MOL1         0.0816
      11    C5      19.797557   19.696812   23.856663 C.3        1 MOL1        -0.1826
      12    H5      18.724367   19.463214   23.826411 H          1 MOL1         0.0736
      13    H6      20.223178   19.116474   24.686476 H          1 MOL1         0.0736
      14    C6      19.984429   21.201396   24.133006 C.3        1 MOL1        -0.2882
      15    H7      19.543167   21.803437   23.327751 H          1 MOL1         0.0749
      16    H8      19.499953   21.486306   25.075977 H          1 MOL1         0.0749
      17    H9      21.049690   21.456803   24.206599 H          1 MOL1         0.0749
@<TRIPOS>BOND
    1     1     2    1
    2     1     3    2
    3     1     4    1
    4     4     5    1
    5     4     6    1
    6     4     7    1
    7     7     8    1
    8     7     9    2
    9     9    10    1
   10     9    11    1
   11    11    12    1
   12    11    13    1
   13    11    14    1
   14    14    15    1
   15    14    16    1
   16    14    17    1
@<TRIPOS>SUBSTRUCTURE
       1 MOL1            1 RESIDUE      1      MOL     
@<SCITEGIC>MOL_PROPERTY
VConf Rank
SciTegic.value.IntegerValue
426

@<SCITEGIC>MOL_PROPERTY
Conf_Id
SciTegic.value.IntegerValue
38

@<SCITEGIC>MOL_PROPERTY
Delta U+W
SciTegic.value.DoubleValue
0.000

@<SCITEGIC>MOL_PROPERTY
U+W
SciTegic.value.DoubleValue
-49.427

@<SCITEGIC>MOL_PROPERTY
Grad RMS
SciTegic.value.DoubleValue
0.000000

@<SCITEGIC>MOL_PROPERTY
U
SciTegic.value.DoubleValue
13.666

@<SCITEGIC>MOL_PROPERTY
W
SciTegic.value.DoubleValue
-63.093

@<SCITEGIC>MOL_PROPERTY
W(PB)
SciTegic.value.DoubleValue
-65.225

@<SCITEGIC>MOL_PROPERTY
W(SA)
SciTegic.value.DoubleValue
2.132

@<SCITEGIC>MOL_PROPERTY
Valence
SciTegic.value.DoubleValue
15.226

@<SCITEGIC>MOL_PROPERTY
Coulomb
SciTegic.value.DoubleValue
-1.822

@<SCITEGIC>MOL_PROPERTY
VdW
SciTegic.value.DoubleValue
0.261

@<SCITEGIC>MOL_PROPERTY
VdW6
SciTegic.value.DoubleValue
-4.165

@<SCITEGIC>MOL_PROPERTY
VdW12
SciTegic.value.DoubleValue
4.426

@<SCITEGIC>MOL_PROPERTY
Bond
SciTegic.value.DoubleValue
0.044

@<SCITEGIC>MOL_PROPERTY
Angle
SciTegic.value.DoubleValue
2.229

@<SCITEGIC>MOL_PROPERTY
Pdih
SciTegic.value.DoubleValue
12.953

@<SCITEGIC>MOL_PROPERTY
Idih
SciTegic.value.DoubleValue
0.000

@<SCITEGIC>MOL_PROPERTY
Tether
SciTegic.value.DoubleValue
0.000

@<TRIPOS>MOLECULE
guest-s20_confgen4.mol2 : confsearch ligand conformer 427
          17          16           1
SMALL
USER_CHARGES
 
@<TRIPOS>ATOM
       1    C1      21.148194   20.774255   19.532369 C.2        1 MOL1         0.6132
       2    O1      20.872850   20.119584   18.546260 O.co2      1 MOL1        -0.6749
       3    O2      22.183857   21.397736   19.657402 O.co2      1 MOL1        -0.6749
       4    C2      20.139518   20.821737   20.672511 C.3        1 MOL1        -0.1955
       5    H1      19.147435   20.597477   20.262488 H          1 MOL1         0.0733
       6    H2      20.106193   21.851163   21.047582 H          1 MOL1         0.0733
       7    C3      20.490556   19.868234   21.798721 C.2        1 MOL1        -0.1395
       8    H3      21.387699   20.123765   22.361783 H          1 MOL1         0.0816
       9    C4      19.780082   18.779977   22.110411 C.2        1 MOL1        -0.1394
      10    H4      18.884867   18.523308   21.544927 H          1 MOL1         0.0816
      11    C5      20.133847   17.828165   23.231226 C.3        1 MOL1        -0.1826
      12    H5      20.096795   16.793459   22.864423 H          1 MOL1         0.0736
      13    H6      21.162535   18.004245   23.574761 H          1 MOL1         0.0736
      14    C6      19.165147   17.987067   24.419262 C.3        1 MOL1        -0.2882
      15    H7      18.131691   17.778871   24.112585 H          1 MOL1         0.0749
      16    H8      19.426409   17.293443   25.229024 H          1 MOL1         0.0749
      17    H9      19.203849   19.008621   24.819924 H          1 MOL1         0.0749
@<TRIPOS>BOND
    1     1     2    1
    2     1     3    2
    3     1     4    1
    4     4     5    1
    5     4     6    1
    6     4     7    1
    7     7     8    1
    8     7     9    2
    9     9    10    1
   10     9    11    1
   11    11    12    1
   12    11    13    1
   13    11    14    1
   14    14    15    1
   15    14    16    1
   16    14    17    1
@<TRIPOS>SUBSTRUCTURE
       1 MOL1            1 RESIDUE      1      MOL     
@<SCITEGIC>MOL_PROPERTY
VConf Rank
SciTegic.value.IntegerValue
427

@<SCITEGIC>MOL_PROPERTY
Conf_Id
SciTegic.value.IntegerValue
35

@<SCITEGIC>MOL_PROPERTY
Delta U+W
SciTegic.value.DoubleValue
-0.102

@<SCITEGIC>MOL_PROPERTY
U+W
SciTegic.value.DoubleValue
-49.529

@<SCITEGIC>MOL_PROPERTY
Grad RMS
SciTegic.value.DoubleValue
0.000000

@<SCITEGIC>MOL_PROPERTY
U
SciTegic.value.DoubleValue
13.666

@<SCITEGIC>MOL_PROPERTY
W
SciTegic.value.DoubleValue
-63.195

@<SCITEGIC>MOL_PROPERTY
W(PB)
SciTegic.value.DoubleValue
-65.299

@<SCITEGIC>MOL_PROPERTY
W(SA)
SciTegic.value.DoubleValue
2.103

@<SCITEGIC>MOL_PROPERTY
Valence
SciTegic.value.DoubleValue
15.226

@<SCITEGIC>MOL_PROPERTY
Coulomb
SciTegic.value.DoubleValue
-1.822

@<SCITEGIC>MOL_PROPERTY
VdW
SciTegic.value.DoubleValue
0.261

@<SCITEGIC>MOL_PROPERTY
VdW6
SciTegic.value.DoubleValue
-4.165

@<SCITEGIC>MOL_PROPERTY
VdW12
SciTegic.value.DoubleValue
4.426

@<SCITEGIC>MOL_PROPERTY
Bond
SciTegic.value.DoubleValue
0.044

@<SCITEGIC>MOL_PROPERTY
Angle
SciTegic.value.DoubleValue
2.229

@<SCITEGIC>MOL_PROPERTY
Pdih
SciTegic.value.DoubleValue
12.953

@<SCITEGIC>MOL_PROPERTY
Idih
SciTegic.value.DoubleValue
0.000

@<SCITEGIC>MOL_PROPERTY
Tether
SciTegic.value.DoubleValue
0.000

@<TRIPOS>MOLECULE
guest-s20_confgen4.mol2 : confsearch ligand conformer 428
          17          16           1
SMALL
USER_CHARGES
 
@<TRIPOS>ATOM
       1    C1      20.372969   17.307070   24.542750 C.2        1 MOL1         0.6132
       2    O1      19.428096   17.509812   25.279690 O.co2      1 MOL1        -0.6749
       3    O2      20.752748   16.196708   24.226975 O.co2      1 MOL1        -0.6749
       4    C2      21.126624   18.511342   23.993727 C.3        1 MOL1        -0.1955
       5    H1      22.142943   18.190966   23.734807 H          1 MOL1         0.0733
       6    H2      21.218450   19.245795   24.802218 H          1 MOL1         0.0733
       7    C3      20.430866   19.136353   22.799286 C.2        1 MOL1        -0.1395
       8    H3      19.480464   19.615965   23.026875 H          1 MOL1         0.0816
       9    C4      20.919087   19.111055   21.552807 C.2        1 MOL1        -0.1394
      10    H4      21.871701   18.617681   21.362560 H          1 MOL1         0.0816
      11    C5      20.276023   19.711164   20.313885 C.3        1 MOL1        -0.1826
      12    H5      20.973704   20.429219   19.862063 H          1 MOL1         0.0736
      13    H6      20.140266   18.919980   19.564139 H          1 MOL1         0.0736
      14    C6      18.920713   20.411286   20.556768 C.3        1 MOL1        -0.2882
      15    H7      19.028975   21.245392   21.262423 H          1 MOL1         0.0749
      16    H8      18.522581   20.815666   19.617089 H          1 MOL1         0.0749
      17    H9      18.180654   19.707668   20.960157 H          1 MOL1         0.0749
@<TRIPOS>BOND
    1     1     2    1
    2     1     3    2
    3     1     4    1
    4     4     5    1
    5     4     6    1
    6     4     7    1
    7     7     8    1
    8     7     9    2
    9     9    10    1
   10     9    11    1
   11    11    12    1
   12    11    13    1
   13    11    14    1
   14    14    15    1
   15    14    16    1
   16    14    17    1
@<TRIPOS>SUBSTRUCTURE
       1 MOL1            1 RESIDUE      1      MOL     
@<SCITEGIC>MOL_PROPERTY
VConf Rank
SciTegic.value.IntegerValue
428

@<SCITEGIC>MOL_PROPERTY
Conf_Id
SciTegic.value.IntegerValue
19

@<SCITEGIC>MOL_PROPERTY
Delta U+W
SciTegic.value.DoubleValue
-0.496

@<SCITEGIC>MOL_PROPERTY
U+W
SciTegic.value.DoubleValue
-49.923

@<SCITEGIC>MOL_PROPERTY
Grad RMS
SciTegic.value.DoubleValue
0.000000

@<SCITEGIC>MOL_PROPERTY
U
SciTegic.value.DoubleValue
13.863

@<SCITEGIC>MOL_PROPERTY
W
SciTegic.value.DoubleValue
-63.786

@<SCITEGIC>MOL_PROPERTY
W(PB)
SciTegic.value.DoubleValue
-65.856

@<SCITEGIC>MOL_PROPERTY
W(SA)
SciTegic.value.DoubleValue
2.070

@<SCITEGIC>MOL_PROPERTY
Valence
SciTegic.value.DoubleValue
14.117

@<SCITEGIC>MOL_PROPERTY
Coulomb
SciTegic.value.DoubleValue
-1.228

@<SCITEGIC>MOL_PROPERTY
VdW
SciTegic.value.DoubleValue
0.974

@<SCITEGIC>MOL_PROPERTY
VdW6
SciTegic.value.DoubleValue
-4.885

@<SCITEGIC>MOL_PROPERTY
VdW12
SciTegic.value.DoubleValue
5.859

@<SCITEGIC>MOL_PROPERTY
Bond
SciTegic.value.DoubleValue
0.094

@<SCITEGIC>MOL_PROPERTY
Angle
SciTegic.value.DoubleValue
2.818

@<SCITEGIC>MOL_PROPERTY
Pdih
SciTegic.value.DoubleValue
11.205

@<SCITEGIC>MOL_PROPERTY
Idih
SciTegic.value.DoubleValue
0.000

@<SCITEGIC>MOL_PROPERTY
Tether
SciTegic.value.DoubleValue
0.000

@<TRIPOS>MOLECULE
guest-s20_confgen4.mol2 : confsearch ligand conformer 429
          17          16           1
SMALL
USER_CHARGES
 
@<TRIPOS>ATOM
       1    C1      21.966473   17.016842   23.286705 C.2        1 MOL1         0.6132
       2    O1      22.046776   17.332122   24.457586 O.co2      1 MOL1        -0.6749
       3    O2      21.779766   15.876891   22.909008 O.co2      1 MOL1        -0.6749
       4    C2      22.118483   18.106230   22.233161 C.3        1 MOL1        -0.1955
       5    H1      22.740843   17.705408   21.424771 H          1 MOL1         0.0733
       6    H2      22.671491   18.941138   22.680112 H          1 MOL1         0.0733
       7    C3      20.784140   18.571163   21.681680 C.2        1 MOL1        -0.1395
       8    H3      20.244387   17.834399   21.087490 H          1 MOL1         0.0816
       9    C4      20.266444   19.785285   21.891715 C.2        1 MOL1        -0.1394
      10    H4      20.804238   20.519858   22.490246 H          1 MOL1         0.0816
      11    C5      18.934364   20.245896   21.343319 C.3        1 MOL1        -0.1826
      12    H5      19.047602   21.232362   20.873655 H          1 MOL1         0.0736
      13    H6      18.584266   19.561223   20.558550 H          1 MOL1         0.0736
      14    C6      17.874623   20.326655   22.459302 C.3        1 MOL1        -0.2882
      15    H7      18.181287   21.034976   23.240112 H          1 MOL1         0.0749
      16    H8      16.909974   20.660908   22.055822 H          1 MOL1         0.0749
      17    H9      17.726418   19.344652   22.927688 H          1 MOL1         0.0749
@<TRIPOS>BOND
    1     1     2    1
    2     1     3    2
    3     1     4    1
    4     4     5    1
    5     4     6    1
    6     4     7    1
    7     7     8    1
    8     7     9    2
    9     9    10    1
   10     9    11    1
   11    11    12    1
   12    11    13    1
   13    11    14    1
   14    14    15    1
   15    14    16    1
   16    14    17    1
@<TRIPOS>SUBSTRUCTURE
       1 MOL1            1 RESIDUE      1      MOL     
@<SCITEGIC>MOL_PROPERTY
VConf Rank
SciTegic.value.IntegerValue
429

@<SCITEGIC>MOL_PROPERTY
Conf_Id
SciTegic.value.IntegerValue
7

@<SCITEGIC>MOL_PROPERTY
Delta U+W
SciTegic.value.DoubleValue
-0.041

@<SCITEGIC>MOL_PROPERTY
U+W
SciTegic.value.DoubleValue
-49.468

@<SCITEGIC>MOL_PROPERTY
Grad RMS
SciTegic.value.DoubleValue
0.000000

@<SCITEGIC>MOL_PROPERTY
U
SciTegic.value.DoubleValue
14.121

@<SCITEGIC>MOL_PROPERTY
W
SciTegic.value.DoubleValue
-63.589

@<SCITEGIC>MOL_PROPERTY
W(PB)
SciTegic.value.DoubleValue
-65.660

@<SCITEGIC>MOL_PROPERTY
W(SA)
SciTegic.value.DoubleValue
2.071

@<SCITEGIC>MOL_PROPERTY
Valence
SciTegic.value.DoubleValue
15.230

@<SCITEGIC>MOL_PROPERTY
Coulomb
SciTegic.value.DoubleValue
-1.333

@<SCITEGIC>MOL_PROPERTY
VdW
SciTegic.value.DoubleValue
0.224

@<SCITEGIC>MOL_PROPERTY
VdW6
SciTegic.value.DoubleValue
-4.212

@<SCITEGIC>MOL_PROPERTY
VdW12
SciTegic.value.DoubleValue
4.436

@<SCITEGIC>MOL_PROPERTY
Bond
SciTegic.value.DoubleValue
0.044

@<SCITEGIC>MOL_PROPERTY
Angle
SciTegic.value.DoubleValue
2.230

@<SCITEGIC>MOL_PROPERTY
Pdih
SciTegic.value.DoubleValue
12.956

@<SCITEGIC>MOL_PROPERTY
Idih
SciTegic.value.DoubleValue
0.000

@<SCITEGIC>MOL_PROPERTY
Tether
SciTegic.value.DoubleValue
0.000

@<TRIPOS>MOLECULE
guest-s20_confgen4.mol2 : confsearch ligand conformer 430
          17          16           1
SMALL
USER_CHARGES
 
@<TRIPOS>ATOM
       1    C1      22.562818   18.016662   22.626283 C.2        1 MOL1         0.6132
       2    O1      22.517312   17.171962   21.753699 O.co2      1 MOL1        -0.6749
       3    O2      22.779526   17.763444   23.795043 O.co2      1 MOL1        -0.6749
       4    C2      22.364941   19.476314   22.228993 C.3        1 MOL1        -0.1955
       5    H1      22.760266   19.605339   21.214676 H          1 MOL1         0.0733
       6    H2      22.998494   20.090201   22.879741 H          1 MOL1         0.0733
       7    C3      20.931202   19.984262   22.286089 C.2        1 MOL1        -0.1395
       8    H3      20.812487   21.028253   21.998801 H          1 MOL1         0.0816
       9    C4      19.857559   19.270730   22.645475 C.2        1 MOL1        -0.1394
      10    H4      19.948487   18.224830   22.936266 H          1 MOL1         0.0816
      11    C5      18.450783   19.824992   22.686870 C.3        1 MOL1        -0.1826
      12    H5      17.975062   19.557287   23.640045 H          1 MOL1         0.0736
      13    H6      18.467697   20.922589   22.640515 H          1 MOL1         0.0736
      14    C6      17.605826   19.278333   21.519715 C.3        1 MOL1        -0.2882
      15    H7      16.585864   19.682629   21.555512 H          1 MOL1         0.0749
      16    H8      18.048955   19.556011   20.554248 H          1 MOL1         0.0749
      17    H9      17.540127   18.183233   21.563286 H          1 MOL1         0.0749
@<TRIPOS>BOND
    1     1     2    1
    2     1     3    2
    3     1     4    1
    4     4     5    1
    5     4     6    1
    6     4     7    1
    7     7     8    1
    8     7     9    2
    9     9    10    1
   10     9    11    1
   11    11    12    1
   12    11    13    1
   13    11    14    1
   14    14    15    1
   15    14    16    1
   16    14    17    1
@<TRIPOS>SUBSTRUCTURE
       1 MOL1            1 RESIDUE      1      MOL     
@<SCITEGIC>MOL_PROPERTY
VConf Rank
SciTegic.value.IntegerValue
430

@<SCITEGIC>MOL_PROPERTY
Conf_Id
SciTegic.value.IntegerValue
39

@<SCITEGIC>MOL_PROPERTY
Delta U+W
SciTegic.value.DoubleValue
-0.422

@<SCITEGIC>MOL_PROPERTY
U+W
SciTegic.value.DoubleValue
-49.849

@<SCITEGIC>MOL_PROPERTY
Grad RMS
SciTegic.value.DoubleValue
0.000000

@<SCITEGIC>MOL_PROPERTY
U
SciTegic.value.DoubleValue
14.465

@<SCITEGIC>MOL_PROPERTY
W
SciTegic.value.DoubleValue
-64.314

@<SCITEGIC>MOL_PROPERTY
W(PB)
SciTegic.value.DoubleValue
-66.406

@<SCITEGIC>MOL_PROPERTY
W(SA)
SciTegic.value.DoubleValue
2.093

@<SCITEGIC>MOL_PROPERTY
Valence
SciTegic.value.DoubleValue
14.072

@<SCITEGIC>MOL_PROPERTY
Coulomb
SciTegic.value.DoubleValue
-0.199

@<SCITEGIC>MOL_PROPERTY
VdW
SciTegic.value.DoubleValue
0.592

@<SCITEGIC>MOL_PROPERTY
VdW6
SciTegic.value.DoubleValue
-5.019

@<SCITEGIC>MOL_PROPERTY
VdW12
SciTegic.value.DoubleValue
5.611

@<SCITEGIC>MOL_PROPERTY
Bond
SciTegic.value.DoubleValue
0.085

@<SCITEGIC>MOL_PROPERTY
Angle
SciTegic.value.DoubleValue
2.748

@<SCITEGIC>MOL_PROPERTY
Pdih
SciTegic.value.DoubleValue
11.238

@<SCITEGIC>MOL_PROPERTY
Idih
SciTegic.value.DoubleValue
0.001

@<SCITEGIC>MOL_PROPERTY
Tether
SciTegic.value.DoubleValue
0.000

@<TRIPOS>MOLECULE
guest-s20_confgen4.mol2 : confsearch ligand conformer 431
          17          16           1
SMALL
USER_CHARGES
 
@<TRIPOS>ATOM
       1    C1      17.530714   19.267416   23.940722 C.2        1 MOL1         0.6132
       2    O1      16.481274   19.562505   23.403546 O.co2      1 MOL1        -0.6749
       3    O2      17.838160   19.629565   25.059267 O.co2      1 MOL1        -0.6749
       4    C2      18.510073   18.391530   23.170472 C.3        1 MOL1        -0.1955
       5    H1      17.931950   17.615685   22.655353 H          1 MOL1         0.0733
       6    H2      19.157181   17.881843   23.894426 H          1 MOL1         0.0733
       7    C3      19.331164   19.180679   22.168574 C.2        1 MOL1        -0.1395
       8    H3      18.772495   19.584641   21.324830 H          1 MOL1         0.0816
       9    C4      20.646536   19.391746   22.275692 C.2        1 MOL1        -0.1394
      10    H4      21.204030   18.990037   23.121204 H          1 MOL1         0.0816
      11    C5      21.462966   20.182097   21.277639 C.3        1 MOL1        -0.1826
      12    H5      20.804676   20.758897   20.613427 H          1 MOL1         0.0736
      13    H6      22.092439   20.909977   21.807251 H          1 MOL1         0.0736
      14    C6      22.353913   19.252377   20.430942 C.3        1 MOL1        -0.2882
      15    H7      21.743820   18.531105   19.871339 H          1 MOL1         0.0749
      16    H8      22.944331   19.831564   19.709114 H          1 MOL1         0.0749
      17    H9      23.049992   18.690445   21.067443 H          1 MOL1         0.0749
@<TRIPOS>BOND
    1     1     2    1
    2     1     3    2
    3     1     4    1
    4     4     5    1
    5     4     6    1
    6     4     7    1
    7     7     8    1
    8     7     9    2
    9     9    10    1
   10     9    11    1
   11    11    12    1
   12    11    13    1
   13    11    14    1
   14    14    15    1
   15    14    16    1
   16    14    17    1
@<TRIPOS>SUBSTRUCTURE
       1 MOL1            1 RESIDUE      1      MOL     
@<SCITEGIC>MOL_PROPERTY
VConf Rank
SciTegic.value.IntegerValue
431

@<SCITEGIC>MOL_PROPERTY
Conf_Id
SciTegic.value.IntegerValue
38

@<SCITEGIC>MOL_PROPERTY
Delta U+W
SciTegic.value.DoubleValue
0.000

@<SCITEGIC>MOL_PROPERTY
U+W
SciTegic.value.DoubleValue
-49.427

@<SCITEGIC>MOL_PROPERTY
Grad RMS
SciTegic.value.DoubleValue
0.000000

@<SCITEGIC>MOL_PROPERTY
U
SciTegic.value.DoubleValue
13.666

@<SCITEGIC>MOL_PROPERTY
W
SciTegic.value.DoubleValue
-63.093

@<SCITEGIC>MOL_PROPERTY
W(PB)
SciTegic.value.DoubleValue
-65.225

@<SCITEGIC>MOL_PROPERTY
W(SA)
SciTegic.value.DoubleValue
2.132

@<SCITEGIC>MOL_PROPERTY
Valence
SciTegic.value.DoubleValue
15.226

@<SCITEGIC>MOL_PROPERTY
Coulomb
SciTegic.value.DoubleValue
-1.822

@<SCITEGIC>MOL_PROPERTY
VdW
SciTegic.value.DoubleValue
0.261

@<SCITEGIC>MOL_PROPERTY
VdW6
SciTegic.value.DoubleValue
-4.165

@<SCITEGIC>MOL_PROPERTY
VdW12
SciTegic.value.DoubleValue
4.426

@<SCITEGIC>MOL_PROPERTY
Bond
SciTegic.value.DoubleValue
0.044

@<SCITEGIC>MOL_PROPERTY
Angle
SciTegic.value.DoubleValue
2.229

@<SCITEGIC>MOL_PROPERTY
Pdih
SciTegic.value.DoubleValue
12.953

@<SCITEGIC>MOL_PROPERTY
Idih
SciTegic.value.DoubleValue
0.000

@<SCITEGIC>MOL_PROPERTY
Tether
SciTegic.value.DoubleValue
0.000

@<TRIPOS>MOLECULE
guest-s20_confgen4.mol2 : confsearch ligand conformer 432
          17          16           1
SMALL
USER_CHARGES
 
@<TRIPOS>ATOM
       1    C1      19.039226   16.351345   21.460256 C.2        1 MOL1         0.6132
       2    O1      18.423580   15.928910   22.419081 O.co2      1 MOL1        -0.6749
       3    O2      19.755218   15.659422   20.763436 O.co2      1 MOL1        -0.6749
       4    C2      18.903271   17.826737   21.107638 C.3        1 MOL1        -0.1955
       5    H1      17.954514   18.191809   21.519004 H          1 MOL1         0.0733
       6    H2      18.830988   17.905102   20.016702 H          1 MOL1         0.0733
       7    C3      20.069396   18.654625   21.613108 C.2        1 MOL1        -0.1395
       8    H3      21.024912   18.456799   21.128284 H          1 MOL1         0.0816
       9    C4      19.976490   19.569440   22.583011 C.2        1 MOL1        -0.1394
      10    H4      19.021362   19.764493   23.069574 H          1 MOL1         0.0816
      11    C5      21.141182   20.391216   23.088479 C.3        1 MOL1        -0.1826
      12    H5      21.165015   20.364371   24.186316 H          1 MOL1         0.0736
      13    H6      22.092243   19.963892   22.741930 H          1 MOL1         0.0736
      14    C6      21.035414   21.853177   22.612513 C.3        1 MOL1        -0.2882
      15    H7      20.110143   22.318002   22.977535 H          1 MOL1         0.0749
      16    H8      21.882799   22.444618   22.982947 H          1 MOL1         0.0749
      17    H9      21.035771   21.907145   21.515842 H          1 MOL1         0.0749
@<TRIPOS>BOND
    1     1     2    1
    2     1     3    2
    3     1     4    1
    4     4     5    1
    5     4     6    1
    6     4     7    1
    7     7     8    1
    8     7     9    2
    9     9    10    1
   10     9    11    1
   11    11    12    1
   12    11    13    1
   13    11    14    1
   14    14    15    1
   15    14    16    1
   16    14    17    1
@<TRIPOS>SUBSTRUCTURE
       1 MOL1            1 RESIDUE      1      MOL     
@<SCITEGIC>MOL_PROPERTY
VConf Rank
SciTegic.value.IntegerValue
432

@<SCITEGIC>MOL_PROPERTY
Conf_Id
SciTegic.value.IntegerValue
35

@<SCITEGIC>MOL_PROPERTY
Delta U+W
SciTegic.value.DoubleValue
-0.102

@<SCITEGIC>MOL_PROPERTY
U+W
SciTegic.value.DoubleValue
-49.529

@<SCITEGIC>MOL_PROPERTY
Grad RMS
SciTegic.value.DoubleValue
0.000000

@<SCITEGIC>MOL_PROPERTY
U
SciTegic.value.DoubleValue
13.666

@<SCITEGIC>MOL_PROPERTY
W
SciTegic.value.DoubleValue
-63.195

@<SCITEGIC>MOL_PROPERTY
W(PB)
SciTegic.value.DoubleValue
-65.299

@<SCITEGIC>MOL_PROPERTY
W(SA)
SciTegic.value.DoubleValue
2.103

@<SCITEGIC>MOL_PROPERTY
Valence
SciTegic.value.DoubleValue
15.226

@<SCITEGIC>MOL_PROPERTY
Coulomb
SciTegic.value.DoubleValue
-1.822

@<SCITEGIC>MOL_PROPERTY
VdW
SciTegic.value.DoubleValue
0.261

@<SCITEGIC>MOL_PROPERTY
VdW6
SciTegic.value.DoubleValue
-4.165

@<SCITEGIC>MOL_PROPERTY
VdW12
SciTegic.value.DoubleValue
4.426

@<SCITEGIC>MOL_PROPERTY
Bond
SciTegic.value.DoubleValue
0.044

@<SCITEGIC>MOL_PROPERTY
Angle
SciTegic.value.DoubleValue
2.229

@<SCITEGIC>MOL_PROPERTY
Pdih
SciTegic.value.DoubleValue
12.953

@<SCITEGIC>MOL_PROPERTY
Idih
SciTegic.value.DoubleValue
0.000

@<SCITEGIC>MOL_PROPERTY
Tether
SciTegic.value.DoubleValue
0.000

@<TRIPOS>MOLECULE
guest-s20_confgen4.mol2 : confsearch ligand conformer 433
          17          16           1
SMALL
USER_CHARGES
 
@<TRIPOS>ATOM
       1    C1      22.909703   17.885956   22.325373 C.2        1 MOL1         0.6132
       2    O1      23.276169   17.580652   21.207579 O.co2      1 MOL1        -0.6749
       3    O2      23.617315   18.456141   23.132233 O.co2      1 MOL1        -0.6749
       4    C2      21.488973   17.524970   22.738785 C.3        1 MOL1        -0.1955
       5    H1      21.455836   17.461782   23.833086 H          1 MOL1         0.0733
       6    H2      21.272832   16.521884   22.353283 H          1 MOL1         0.0733
       7    C3      20.463779   18.514677   22.218343 C.2        1 MOL1        -0.1395
       8    H3      20.335934   18.510097   21.137267 H          1 MOL1         0.0816
       9    C4      19.761539   19.343810   23.000717 C.2        1 MOL1        -0.1394
      10    H4      19.919828   19.322876   24.078488 H          1 MOL1         0.0816
      11    C5      18.725593   20.359001   22.548173 C.3        1 MOL1        -0.1826
      12    H5      17.773033   20.145313   23.051634 H          1 MOL1         0.0736
      13    H6      19.027008   21.355711   22.897799 H          1 MOL1         0.0736
      14    C6      18.487599   20.412164   21.022866 C.3        1 MOL1        -0.2882
      15    H7      18.131954   19.444389   20.645599 H          1 MOL1         0.0749
      16    H8      17.729657   21.167448   20.777712 H          1 MOL1         0.0749
      17    H9      19.410115   20.676249   20.489281 H          1 MOL1         0.0749
@<TRIPOS>BOND
    1     1     2    1
    2     1     3    2
    3     1     4    1
    4     4     5    1
    5     4     6    1
    6     4     7    1
    7     7     8    1
    8     7     9    2
    9     9    10    1
   10     9    11    1
   11    11    12    1
   12    11    13    1
   13    11    14    1
   14    14    15    1
   15    14    16    1
   16    14    17    1
@<TRIPOS>SUBSTRUCTURE
       1 MOL1            1 RESIDUE      1      MOL     
@<SCITEGIC>MOL_PROPERTY
VConf Rank
SciTegic.value.IntegerValue
433

@<SCITEGIC>MOL_PROPERTY
Conf_Id
SciTegic.value.IntegerValue
19

@<SCITEGIC>MOL_PROPERTY
Delta U+W
SciTegic.value.DoubleValue
-0.496

@<SCITEGIC>MOL_PROPERTY
U+W
SciTegic.value.DoubleValue
-49.923

@<SCITEGIC>MOL_PROPERTY
Grad RMS
SciTegic.value.DoubleValue
0.000000

@<SCITEGIC>MOL_PROPERTY
U
SciTegic.value.DoubleValue
13.863

@<SCITEGIC>MOL_PROPERTY
W
SciTegic.value.DoubleValue
-63.786

@<SCITEGIC>MOL_PROPERTY
W(PB)
SciTegic.value.DoubleValue
-65.856

@<SCITEGIC>MOL_PROPERTY
W(SA)
SciTegic.value.DoubleValue
2.070

@<SCITEGIC>MOL_PROPERTY
Valence
SciTegic.value.DoubleValue
14.117

@<SCITEGIC>MOL_PROPERTY
Coulomb
SciTegic.value.DoubleValue
-1.228

@<SCITEGIC>MOL_PROPERTY
VdW
SciTegic.value.DoubleValue
0.974

@<SCITEGIC>MOL_PROPERTY
VdW6
SciTegic.value.DoubleValue
-4.885

@<SCITEGIC>MOL_PROPERTY
VdW12
SciTegic.value.DoubleValue
5.859

@<SCITEGIC>MOL_PROPERTY
Bond
SciTegic.value.DoubleValue
0.094

@<SCITEGIC>MOL_PROPERTY
Angle
SciTegic.value.DoubleValue
2.818

@<SCITEGIC>MOL_PROPERTY
Pdih
SciTegic.value.DoubleValue
11.205

@<SCITEGIC>MOL_PROPERTY
Idih
SciTegic.value.DoubleValue
0.000

@<SCITEGIC>MOL_PROPERTY
Tether
SciTegic.value.DoubleValue
0.000

@<TRIPOS>MOLECULE
guest-s20_confgen4.mol2 : confsearch ligand conformer 434
          17          16           1
SMALL
USER_CHARGES
 
@<TRIPOS>ATOM
       1    C1      19.678529   18.800063   19.327356 C.2        1 MOL1         0.6132
       2    O1      20.800536   18.891882   18.869666 O.co2      1 MOL1        -0.6749
       3    O2      18.881328   17.948440   18.986458 O.co2      1 MOL1        -0.6749
       4    C2      19.241669   19.812847   20.377714 C.3        1 MOL1        -0.1955
       5    H1      18.211943   20.110123   20.147987 H          1 MOL1         0.0733
       6    H2      19.865587   20.708426   20.271325 H          1 MOL1         0.0733
       7    C3      19.321717   19.258821   21.787469 C.2        1 MOL1        -0.1395
       8    H3      18.613965   18.462228   22.014938 H          1 MOL1         0.0816
       9    C4      20.187890   19.682354   22.712986 C.2        1 MOL1        -0.1394
      10    H4      20.898833   20.475383   22.483368 H          1 MOL1         0.0816
      11    C5      20.268016   19.126531   24.117256 C.3        1 MOL1        -0.1826
      12    H5      20.291331   19.951554   24.842043 H          1 MOL1         0.0736
      13    H6      19.373850   18.530561   24.346377 H          1 MOL1         0.0736
      14    C6      21.523596   18.250777   24.294922 C.3        1 MOL1        -0.2882
      15    H7      22.436194   18.832353   24.109557 H          1 MOL1         0.0749
      16    H8      21.576528   17.849717   25.315420 H          1 MOL1         0.0749
      17    H9      21.510065   17.403949   23.596079 H          1 MOL1         0.0749
@<TRIPOS>BOND
    1     1     2    1
    2     1     3    2
    3     1     4    1
    4     4     5    1
    5     4     6    1
    6     4     7    1
    7     7     8    1
    8     7     9    2
    9     9    10    1
   10     9    11    1
   11    11    12    1
   12    11    13    1
   13    11    14    1
   14    14    15    1
   15    14    16    1
   16    14    17    1
@<TRIPOS>SUBSTRUCTURE
       1 MOL1            1 RESIDUE      1      MOL     
@<SCITEGIC>MOL_PROPERTY
VConf Rank
SciTegic.value.IntegerValue
434

@<SCITEGIC>MOL_PROPERTY
Conf_Id
SciTegic.value.IntegerValue
7

@<SCITEGIC>MOL_PROPERTY
Delta U+W
SciTegic.value.DoubleValue
-0.041

@<SCITEGIC>MOL_PROPERTY
U+W
SciTegic.value.DoubleValue
-49.468

@<SCITEGIC>MOL_PROPERTY
Grad RMS
SciTegic.value.DoubleValue
0.000000

@<SCITEGIC>MOL_PROPERTY
U
SciTegic.value.DoubleValue
14.121

@<SCITEGIC>MOL_PROPERTY
W
SciTegic.value.DoubleValue
-63.589

@<SCITEGIC>MOL_PROPERTY
W(PB)
SciTegic.value.DoubleValue
-65.660

@<SCITEGIC>MOL_PROPERTY
W(SA)
SciTegic.value.DoubleValue
2.071

@<SCITEGIC>MOL_PROPERTY
Valence
SciTegic.value.DoubleValue
15.230

@<SCITEGIC>MOL_PROPERTY
Coulomb
SciTegic.value.DoubleValue
-1.333

@<SCITEGIC>MOL_PROPERTY
VdW
SciTegic.value.DoubleValue
0.224

@<SCITEGIC>MOL_PROPERTY
VdW6
SciTegic.value.DoubleValue
-4.212

@<SCITEGIC>MOL_PROPERTY
VdW12
SciTegic.value.DoubleValue
4.436

@<SCITEGIC>MOL_PROPERTY
Bond
SciTegic.value.DoubleValue
0.044

@<SCITEGIC>MOL_PROPERTY
Angle
SciTegic.value.DoubleValue
2.230

@<SCITEGIC>MOL_PROPERTY
Pdih
SciTegic.value.DoubleValue
12.956

@<SCITEGIC>MOL_PROPERTY
Idih
SciTegic.value.DoubleValue
0.000

@<SCITEGIC>MOL_PROPERTY
Tether
SciTegic.value.DoubleValue
0.000

@<TRIPOS>MOLECULE
guest-s20_confgen4.mol2 : confsearch ligand conformer 435
          17          16           1
SMALL
USER_CHARGES
 
@<TRIPOS>ATOM
       1    C1      21.437598   21.656014   22.752757 C.2        1 MOL1         0.6132
       2    O1      21.430206   22.153366   21.643893 O.co2      1 MOL1        -0.6749
       3    O2      22.446916   21.499003   23.411322 O.co2      1 MOL1        -0.6749
       4    C2      20.105055   21.231406   23.362359 C.3        1 MOL1        -0.1955
       5    H1      19.332181   21.913852   22.989931 H          1 MOL1         0.0733
       6    H2      20.161358   21.401246   24.443888 H          1 MOL1         0.0733
       7    C3      19.687944   19.792572   23.092820 C.2        1 MOL1        -0.1395
       8    H3      18.734178   19.510410   23.536960 H          1 MOL1         0.0816
       9    C4      20.377677   18.893887   22.380338 C.2        1 MOL1        -0.1394
      10    H4      21.333425   19.150443   21.924863 H          1 MOL1         0.0816
      11    C5      19.918308   17.472427   22.142907 C.3        1 MOL1        -0.1826
      12    H5      20.742393   16.776986   22.352109 H          1 MOL1         0.0736
      13    H6      19.102981   17.211017   22.831427 H          1 MOL1         0.0736
      14    C6      19.440366   17.280415   20.690412 C.3        1 MOL1        -0.2882
      15    H7      19.109596   16.247085   20.523437 H          1 MOL1         0.0749
      16    H8      18.598457   17.948434   20.465617 H          1 MOL1         0.0749
      17    H9      20.248770   17.498509   19.980218 H          1 MOL1         0.0749
@<TRIPOS>BOND
    1     1     2    1
    2     1     3    2
    3     1     4    1
    4     4     5    1
    5     4     6    1
    6     4     7    1
    7     7     8    1
    8     7     9    2
    9     9    10    1
   10     9    11    1
   11    11    12    1
   12    11    13    1
   13    11    14    1
   14    14    15    1
   15    14    16    1
   16    14    17    1
@<TRIPOS>SUBSTRUCTURE
       1 MOL1            1 RESIDUE      1      MOL     
@<SCITEGIC>MOL_PROPERTY
VConf Rank
SciTegic.value.IntegerValue
435

@<SCITEGIC>MOL_PROPERTY
Conf_Id
SciTegic.value.IntegerValue
39

@<SCITEGIC>MOL_PROPERTY
Delta U+W
SciTegic.value.DoubleValue
-0.422

@<SCITEGIC>MOL_PROPERTY
U+W
SciTegic.value.DoubleValue
-49.849

@<SCITEGIC>MOL_PROPERTY
Grad RMS
SciTegic.value.DoubleValue
0.000000

@<SCITEGIC>MOL_PROPERTY
U
SciTegic.value.DoubleValue
14.465

@<SCITEGIC>MOL_PROPERTY
W
SciTegic.value.DoubleValue
-64.314

@<SCITEGIC>MOL_PROPERTY
W(PB)
SciTegic.value.DoubleValue
-66.406

@<SCITEGIC>MOL_PROPERTY
W(SA)
SciTegic.value.DoubleValue
2.093

@<SCITEGIC>MOL_PROPERTY
Valence
SciTegic.value.DoubleValue
14.072

@<SCITEGIC>MOL_PROPERTY
Coulomb
SciTegic.value.DoubleValue
-0.199

@<SCITEGIC>MOL_PROPERTY
VdW
SciTegic.value.DoubleValue
0.592

@<SCITEGIC>MOL_PROPERTY
VdW6
SciTegic.value.DoubleValue
-5.019

@<SCITEGIC>MOL_PROPERTY
VdW12
SciTegic.value.DoubleValue
5.611

@<SCITEGIC>MOL_PROPERTY
Bond
SciTegic.value.DoubleValue
0.085

@<SCITEGIC>MOL_PROPERTY
Angle
SciTegic.value.DoubleValue
2.748

@<SCITEGIC>MOL_PROPERTY
Pdih
SciTegic.value.DoubleValue
11.238

@<SCITEGIC>MOL_PROPERTY
Idih
SciTegic.value.DoubleValue
0.001

@<SCITEGIC>MOL_PROPERTY
Tether
SciTegic.value.DoubleValue
0.000

@<TRIPOS>MOLECULE
guest-s20_confgen4.mol2 : confsearch ligand conformer 436
          17          16           1
SMALL
USER_CHARGES
 
@<TRIPOS>ATOM
       1    C1      18.640210   21.987346   22.808936 C.2        1 MOL1         0.6132
       2    O1      19.319618   22.855752   23.320049 O.co2      1 MOL1        -0.6749
       3    O2      17.496742   21.745602   23.141890 O.co2      1 MOL1        -0.6749
       4    C2      19.255453   21.161896   21.686567 C.3        1 MOL1        -0.1955
       5    H1      19.830682   21.841685   21.047420 H          1 MOL1         0.0733
       6    H2      18.441822   20.756450   21.073169 H          1 MOL1         0.0733
       7    C3      20.150340   20.052307   22.204963 C.2        1 MOL1        -0.1395
       8    H3      21.068834   20.383330   22.688692 H          1 MOL1         0.0816
       9    C4      19.869667   18.749881   22.099438 C.2        1 MOL1        -0.1394
      10    H4      18.949619   18.419662   21.618264 H          1 MOL1         0.0816
      11    C5      20.761397   17.644968   22.620309 C.3        1 MOL1        -0.1826
      12    H5      21.518519   18.052366   23.304425 H          1 MOL1         0.0736
      13    H6      20.164027   16.929378   23.201356 H          1 MOL1         0.0736
      14    C6      21.463420   16.907938   21.463152 C.3        1 MOL1        -0.2882
      15    H7      22.087989   17.599467   20.882374 H          1 MOL1         0.0749
      16    H8      22.108489   16.107026   21.847223 H          1 MOL1         0.0749
      17    H9      20.728886   16.457054   20.783011 H          1 MOL1         0.0749
@<TRIPOS>BOND
    1     1     2    1
    2     1     3    2
    3     1     4    1
    4     4     5    1
    5     4     6    1
    6     4     7    1
    7     7     8    1
    8     7     9    2
    9     9    10    1
   10     9    11    1
   11    11    12    1
   12    11    13    1
   13    11    14    1
   14    14    15    1
   15    14    16    1
   16    14    17    1
@<TRIPOS>SUBSTRUCTURE
       1 MOL1            1 RESIDUE      1      MOL     
@<SCITEGIC>MOL_PROPERTY
VConf Rank
SciTegic.value.IntegerValue
436

@<SCITEGIC>MOL_PROPERTY
Conf_Id
SciTegic.value.IntegerValue
38

@<SCITEGIC>MOL_PROPERTY
Delta U+W
SciTegic.value.DoubleValue
0.000

@<SCITEGIC>MOL_PROPERTY
U+W
SciTegic.value.DoubleValue
-49.427

@<SCITEGIC>MOL_PROPERTY
Grad RMS
SciTegic.value.DoubleValue
0.000000

@<SCITEGIC>MOL_PROPERTY
U
SciTegic.value.DoubleValue
13.666

@<SCITEGIC>MOL_PROPERTY
W
SciTegic.value.DoubleValue
-63.093

@<SCITEGIC>MOL_PROPERTY
W(PB)
SciTegic.value.DoubleValue
-65.225

@<SCITEGIC>MOL_PROPERTY
W(SA)
SciTegic.value.DoubleValue
2.132

@<SCITEGIC>MOL_PROPERTY
Valence
SciTegic.value.DoubleValue
15.226

@<SCITEGIC>MOL_PROPERTY
Coulomb
SciTegic.value.DoubleValue
-1.822

@<SCITEGIC>MOL_PROPERTY
VdW
SciTegic.value.DoubleValue
0.261

@<SCITEGIC>MOL_PROPERTY
VdW6
SciTegic.value.DoubleValue
-4.165

@<SCITEGIC>MOL_PROPERTY
VdW12
SciTegic.value.DoubleValue
4.426

@<SCITEGIC>MOL_PROPERTY
Bond
SciTegic.value.DoubleValue
0.044

@<SCITEGIC>MOL_PROPERTY
Angle
SciTegic.value.DoubleValue
2.229

@<SCITEGIC>MOL_PROPERTY
Pdih
SciTegic.value.DoubleValue
12.953

@<SCITEGIC>MOL_PROPERTY
Idih
SciTegic.value.DoubleValue
0.000

@<SCITEGIC>MOL_PROPERTY
Tether
SciTegic.value.DoubleValue
0.000

@<TRIPOS>MOLECULE
guest-s20_confgen4.mol2 : confsearch ligand conformer 437
          17          16           1
SMALL
USER_CHARGES
 
@<TRIPOS>ATOM
       1    C1      16.974006   18.744440   22.346847 C.2        1 MOL1         0.6132
       2    O1      16.523664   19.431934   23.242036 O.co2      1 MOL1        -0.6749
       3    O2      16.593701   17.614517   22.111046 O.co2      1 MOL1        -0.6749
       4    C2      18.070987   19.330799   21.467973 C.3        1 MOL1        -0.1955
       5    H1      17.998859   20.424155   21.512824 H          1 MOL1         0.0733
       6    H2      17.862845   19.037984   20.432385 H          1 MOL1         0.0733
       7    C3      19.454521   18.860114   21.874217 C.2        1 MOL1        -0.1395
       8    H3      19.654646   17.802689   21.703913 H          1 MOL1         0.0816
       9    C4      20.390098   19.650905   22.408607 C.2        1 MOL1        -0.1394
      10    H4      20.188212   20.707497   22.581571 H          1 MOL1         0.0816
      11    C5      21.767781   19.178958   22.816745 C.3        1 MOL1        -0.1826
      12    H5      21.996817   19.535909   23.829988 H          1 MOL1         0.0736
      13    H6      21.802835   18.081403   22.853685 H          1 MOL1         0.0736
      14    C6      22.841442   19.690837   21.836800 C.3        1 MOL1        -0.2882
      15    H7      22.854725   20.788314   21.808589 H          1 MOL1         0.0749
      16    H8      23.838948   19.345803   22.138495 H          1 MOL1         0.0749
      17    H9      22.647440   19.324849   20.819934 H          1 MOL1         0.0749
@<TRIPOS>BOND
    1     1     2    1
    2     1     3    2
    3     1     4    1
    4     4     5    1
    5     4     6    1
    6     4     7    1
    7     7     8    1
    8     7     9    2
    9     9    10    1
   10     9    11    1
   11    11    12    1
   12    11    13    1
   13    11    14    1
   14    14    15    1
   15    14    16    1
   16    14    17    1
@<TRIPOS>SUBSTRUCTURE
       1 MOL1            1 RESIDUE      1      MOL     
@<SCITEGIC>MOL_PROPERTY
VConf Rank
SciTegic.value.IntegerValue
437

@<SCITEGIC>MOL_PROPERTY
Conf_Id
SciTegic.value.IntegerValue
35

@<SCITEGIC>MOL_PROPERTY
Delta U+W
SciTegic.value.DoubleValue
-0.102

@<SCITEGIC>MOL_PROPERTY
U+W
SciTegic.value.DoubleValue
-49.529

@<SCITEGIC>MOL_PROPERTY
Grad RMS
SciTegic.value.DoubleValue
0.000000

@<SCITEGIC>MOL_PROPERTY
U
SciTegic.value.DoubleValue
13.666

@<SCITEGIC>MOL_PROPERTY
W
SciTegic.value.DoubleValue
-63.195

@<SCITEGIC>MOL_PROPERTY
W(PB)
SciTegic.value.DoubleValue
-65.299

@<SCITEGIC>MOL_PROPERTY
W(SA)
SciTegic.value.DoubleValue
2.103

@<SCITEGIC>MOL_PROPERTY
Valence
SciTegic.value.DoubleValue
15.226

@<SCITEGIC>MOL_PROPERTY
Coulomb
SciTegic.value.DoubleValue
-1.822

@<SCITEGIC>MOL_PROPERTY
VdW
SciTegic.value.DoubleValue
0.261

@<SCITEGIC>MOL_PROPERTY
VdW6
SciTegic.value.DoubleValue
-4.165

@<SCITEGIC>MOL_PROPERTY
VdW12
SciTegic.value.DoubleValue
4.426

@<SCITEGIC>MOL_PROPERTY
Bond
SciTegic.value.DoubleValue
0.044

@<SCITEGIC>MOL_PROPERTY
Angle
SciTegic.value.DoubleValue
2.229

@<SCITEGIC>MOL_PROPERTY
Pdih
SciTegic.value.DoubleValue
12.953

@<SCITEGIC>MOL_PROPERTY
Idih
SciTegic.value.DoubleValue
0.000

@<SCITEGIC>MOL_PROPERTY
Tether
SciTegic.value.DoubleValue
0.000

@<TRIPOS>MOLECULE
guest-s20_confgen4.mol2 : confsearch ligand conformer 438
          17          16           1
SMALL
USER_CHARGES
 
@<TRIPOS>ATOM
       1    C1      18.392151   18.539376   24.448807 C.2        1 MOL1         0.6132
       2    O1      17.285379   18.974011   24.197572 O.co2      1 MOL1        -0.6749
       3    O2      18.590231   17.435910   24.917822 O.co2      1 MOL1        -0.6749
       4    C2      19.594426   19.431427   24.168674 C.3        1 MOL1        -0.1955
       5    H1      20.419460   19.107793   24.814558 H          1 MOL1         0.0733
       6    H2      19.331935   20.451735   24.471296 H          1 MOL1         0.0733
       7    C3      20.004717   19.410935   22.708316 C.2        1 MOL1        -0.1395
       8    H3      19.287800   19.868158   22.028561 H          1 MOL1         0.0816
       9    C4      21.147504   18.875683   22.260818 C.2        1 MOL1        -0.1394
      10    H4      21.838803   18.422786   22.970800 H          1 MOL1         0.0816
      11    C5      21.618245   18.817302   20.817355 C.3        1 MOL1        -0.1826
      12    H5      22.595353   19.313137   20.740448 H          1 MOL1         0.0736
      13    H6      21.797030   17.768831   20.543009 H          1 MOL1         0.0736
      14    C6      20.651940   19.447776   19.790328 C.3        1 MOL1        -0.2882
      15    H7      20.491979   20.513105   20.002195 H          1 MOL1         0.0749
      16    H8      21.061519   19.364874   18.775241 H          1 MOL1         0.0749
      17    H9      19.678393   18.940282   19.802417 H          1 MOL1         0.0749
@<TRIPOS>BOND
    1     1     2    1
    2     1     3    2
    3     1     4    1
    4     4     5    1
    5     4     6    1
    6     4     7    1
    7     7     8    1
    8     7     9    2
    9     9    10    1
   10     9    11    1
   11    11    12    1
   12    11    13    1
   13    11    14    1
   14    14    15    1
   15    14    16    1
   16    14    17    1
@<TRIPOS>SUBSTRUCTURE
       1 MOL1            1 RESIDUE      1      MOL     
@<SCITEGIC>MOL_PROPERTY
VConf Rank
SciTegic.value.IntegerValue
438

@<SCITEGIC>MOL_PROPERTY
Conf_Id
SciTegic.value.IntegerValue
19

@<SCITEGIC>MOL_PROPERTY
Delta U+W
SciTegic.value.DoubleValue
-0.496

@<SCITEGIC>MOL_PROPERTY
U+W
SciTegic.value.DoubleValue
-49.923

@<SCITEGIC>MOL_PROPERTY
Grad RMS
SciTegic.value.DoubleValue
0.000000

@<SCITEGIC>MOL_PROPERTY
U
SciTegic.value.DoubleValue
13.863

@<SCITEGIC>MOL_PROPERTY
W
SciTegic.value.DoubleValue
-63.786

@<SCITEGIC>MOL_PROPERTY
W(PB)
SciTegic.value.DoubleValue
-65.856

@<SCITEGIC>MOL_PROPERTY
W(SA)
SciTegic.value.DoubleValue
2.070

@<SCITEGIC>MOL_PROPERTY
Valence
SciTegic.value.DoubleValue
14.117

@<SCITEGIC>MOL_PROPERTY
Coulomb
SciTegic.value.DoubleValue
-1.228

@<SCITEGIC>MOL_PROPERTY
VdW
SciTegic.value.DoubleValue
0.974

@<SCITEGIC>MOL_PROPERTY
VdW6
SciTegic.value.DoubleValue
-4.885

@<SCITEGIC>MOL_PROPERTY
VdW12
SciTegic.value.DoubleValue
5.859

@<SCITEGIC>MOL_PROPERTY
Bond
SciTegic.value.DoubleValue
0.094

@<SCITEGIC>MOL_PROPERTY
Angle
SciTegic.value.DoubleValue
2.818

@<SCITEGIC>MOL_PROPERTY
Pdih
SciTegic.value.DoubleValue
11.205

@<SCITEGIC>MOL_PROPERTY
Idih
SciTegic.value.DoubleValue
0.000

@<SCITEGIC>MOL_PROPERTY
Tether
SciTegic.value.DoubleValue
0.000

@<TRIPOS>MOLECULE
guest-s20_confgen4.mol2 : confsearch ligand conformer 439
          17          16           1
SMALL
USER_CHARGES
 
@<TRIPOS>ATOM
       1    C1      22.767523   19.998654   23.179296 C.2        1 MOL1         0.6132
       2    O1      23.267091   18.975305   23.603560 O.co2      1 MOL1        -0.6749
       3    O2      23.356705   20.790104   22.469737 O.co2      1 MOL1        -0.6749
       4    C2      21.328275   20.313951   23.565274 C.3        1 MOL1        -0.1955
       5    H1      21.271379   21.383113   23.800096 H          1 MOL1         0.0733
       6    H2      21.093312   19.769767   24.487938 H          1 MOL1         0.0733
       7    C3      20.342946   19.969164   22.464813 C.2        1 MOL1        -0.1395
       8    H3      20.415953   20.581610   21.566595 H          1 MOL1         0.0816
       9    C4      19.439200   18.987909   22.546027 C.2        1 MOL1        -0.1394
      10    H4      19.370091   18.372469   23.442419 H          1 MOL1         0.0816
      11    C5      18.459540   18.643849   21.446379 C.3        1 MOL1        -0.1826
      12    H5      17.448918   18.549086   21.866125 H          1 MOL1         0.0736
      13    H6      18.417657   19.451273   20.702390 H          1 MOL1         0.0736
      14    C6      18.851532   17.327127   20.748112 C.3        1 MOL1        -0.2882
      15    H7      18.863509   16.493466   21.462459 H          1 MOL1         0.0749
      16    H8      18.137663   17.082477   19.950864 H          1 MOL1         0.0749
      17    H9      19.850282   17.406684   20.298836 H          1 MOL1         0.0749
@<TRIPOS>BOND
    1     1     2    1
    2     1     3    2
    3     1     4    1
    4     4     5    1
    5     4     6    1
    6     4     7    1
    7     7     8    1
    8     7     9    2
    9     9    10    1
   10     9    11    1
   11    11    12    1
   12    11    13    1
   13    11    14    1
   14    14    15    1
   15    14    16    1
   16    14    17    1
@<TRIPOS>SUBSTRUCTURE
       1 MOL1            1 RESIDUE      1      MOL     
@<SCITEGIC>MOL_PROPERTY
VConf Rank
SciTegic.value.IntegerValue
439

@<SCITEGIC>MOL_PROPERTY
Conf_Id
SciTegic.value.IntegerValue
7

@<SCITEGIC>MOL_PROPERTY
Delta U+W
SciTegic.value.DoubleValue
-0.041

@<SCITEGIC>MOL_PROPERTY
U+W
SciTegic.value.DoubleValue
-49.468

@<SCITEGIC>MOL_PROPERTY
Grad RMS
SciTegic.value.DoubleValue
0.000000

@<SCITEGIC>MOL_PROPERTY
U
SciTegic.value.DoubleValue
14.121

@<SCITEGIC>MOL_PROPERTY
W
SciTegic.value.DoubleValue
-63.589

@<SCITEGIC>MOL_PROPERTY
W(PB)
SciTegic.value.DoubleValue
-65.660

@<SCITEGIC>MOL_PROPERTY
W(SA)
SciTegic.value.DoubleValue
2.071

@<SCITEGIC>MOL_PROPERTY
Valence
SciTegic.value.DoubleValue
15.230

@<SCITEGIC>MOL_PROPERTY
Coulomb
SciTegic.value.DoubleValue
-1.333

@<SCITEGIC>MOL_PROPERTY
VdW
SciTegic.value.DoubleValue
0.224

@<SCITEGIC>MOL_PROPERTY
VdW6
SciTegic.value.DoubleValue
-4.212

@<SCITEGIC>MOL_PROPERTY
VdW12
SciTegic.value.DoubleValue
4.436

@<SCITEGIC>MOL_PROPERTY
Bond
SciTegic.value.DoubleValue
0.044

@<SCITEGIC>MOL_PROPERTY
Angle
SciTegic.value.DoubleValue
2.230

@<SCITEGIC>MOL_PROPERTY
Pdih
SciTegic.value.DoubleValue
12.956

@<SCITEGIC>MOL_PROPERTY
Idih
SciTegic.value.DoubleValue
0.000

@<SCITEGIC>MOL_PROPERTY
Tether
SciTegic.value.DoubleValue
0.000

@<TRIPOS>MOLECULE
guest-s20_confgen4.mol2 : confsearch ligand conformer 440
          17          16           1
SMALL
USER_CHARGES
 
@<TRIPOS>ATOM
       1    C1      22.118130   19.608413   20.379159 C.2        1 MOL1         0.6132
       2    O1      22.853616   18.680155   20.651906 O.co2      1 MOL1        -0.6749
       3    O2      22.492138   20.762566   20.307536 O.co2      1 MOL1        -0.6749
       4    C2      20.652432   19.305312   20.083463 C.3        1 MOL1        -0.1955
       5    H1      20.600810   18.312179   19.622170 H          1 MOL1         0.0733
       6    H2      20.311498   20.011513   19.317458 H          1 MOL1         0.0733
       7    C3      19.715348   19.360507   21.281671 C.2        1 MOL1        -0.1395
       8    H3      18.674177   19.141165   21.048439 H          1 MOL1         0.0816
       9    C4      20.065529   19.644120   22.541803 C.2        1 MOL1        -0.1394
      10    H4      21.099784   19.866132   22.802112 H          1 MOL1         0.0816
      11    C5      19.092430   19.687444   23.699017 C.3        1 MOL1        -0.1826
      12    H5      19.245976   20.608257   24.277849 H          1 MOL1         0.0736
      13    H6      18.057503   19.715414   23.331190 H          1 MOL1         0.0736
      14    C6      19.273226   18.465393   24.620397 C.3        1 MOL1        -0.2882
      15    H7      18.565714   18.502736   25.458903 H          1 MOL1         0.0749
      16    H8      19.099111   17.532174   24.068690 H          1 MOL1         0.0749
      17    H9      20.289985   18.433591   25.033493 H          1 MOL1         0.0749
@<TRIPOS>BOND
    1     1     2    1
    2     1     3    2
    3     1     4    1
    4     4     5    1
    5     4     6    1
    6     4     7    1
    7     7     8    1
    8     7     9    2
    9     9    10    1
   10     9    11    1
   11    11    12    1
   12    11    13    1
   13    11    14    1
   14    14    15    1
   15    14    16    1
   16    14    17    1
@<TRIPOS>SUBSTRUCTURE
       1 MOL1            1 RESIDUE      1      MOL     
@<SCITEGIC>MOL_PROPERTY
VConf Rank
SciTegic.value.IntegerValue
440

@<SCITEGIC>MOL_PROPERTY
Conf_Id
SciTegic.value.IntegerValue
39

@<SCITEGIC>MOL_PROPERTY
Delta U+W
SciTegic.value.DoubleValue
-0.422

@<SCITEGIC>MOL_PROPERTY
U+W
SciTegic.value.DoubleValue
-49.849

@<SCITEGIC>MOL_PROPERTY
Grad RMS
SciTegic.value.DoubleValue
0.000000

@<SCITEGIC>MOL_PROPERTY
U
SciTegic.value.DoubleValue
14.465

@<SCITEGIC>MOL_PROPERTY
W
SciTegic.value.DoubleValue
-64.314

@<SCITEGIC>MOL_PROPERTY
W(PB)
SciTegic.value.DoubleValue
-66.406

@<SCITEGIC>MOL_PROPERTY
W(SA)
SciTegic.value.DoubleValue
2.093

@<SCITEGIC>MOL_PROPERTY
Valence
SciTegic.value.DoubleValue
14.072

@<SCITEGIC>MOL_PROPERTY
Coulomb
SciTegic.value.DoubleValue
-0.199

@<SCITEGIC>MOL_PROPERTY
VdW
SciTegic.value.DoubleValue
0.592

@<SCITEGIC>MOL_PROPERTY
VdW6
SciTegic.value.DoubleValue
-5.019

@<SCITEGIC>MOL_PROPERTY
VdW12
SciTegic.value.DoubleValue
5.611

@<SCITEGIC>MOL_PROPERTY
Bond
SciTegic.value.DoubleValue
0.085

@<SCITEGIC>MOL_PROPERTY
Angle
SciTegic.value.DoubleValue
2.748

@<SCITEGIC>MOL_PROPERTY
Pdih
SciTegic.value.DoubleValue
11.238

@<SCITEGIC>MOL_PROPERTY
Idih
SciTegic.value.DoubleValue
0.001

@<SCITEGIC>MOL_PROPERTY
Tether
SciTegic.value.DoubleValue
0.000

@<TRIPOS>MOLECULE
guest-s20_confgen4.mol2 : confsearch ligand conformer 441
          17          16           1
SMALL
USER_CHARGES
 
@<TRIPOS>ATOM
       1    C1      23.154723   19.157028   21.252205 C.2        1 MOL1         0.6132
       2    O1      23.398731   19.368081   20.080506 O.co2      1 MOL1        -0.6749
       3    O2      23.720841   18.309831   21.914464 O.co2      1 MOL1        -0.6749
       4    C2      22.084644   20.005252   21.926777 C.3        1 MOL1        -0.1955
       5    H1      22.207592   21.037721   21.579789 H          1 MOL1         0.0733
       6    H2      22.276556   20.004734   23.006504 H          1 MOL1         0.0733
       7    C3      20.680587   19.517764   21.623914 C.2        1 MOL1        -0.1395
       8    H3      20.359230   19.638734   20.589846 H          1 MOL1         0.0816
       9    C4      19.863779   18.970748   22.529356 C.2        1 MOL1        -0.1394
      10    H4      20.186850   18.847358   23.562536 H          1 MOL1         0.0816
      11    C5      18.465423   18.481766   22.224696 C.3        1 MOL1        -0.1826
      12    H5      18.314185   18.401585   21.139376 H          1 MOL1         0.0736
      13    H6      18.327202   17.473309   22.637545 H          1 MOL1         0.0736
      14    C6      17.405483   19.429800   22.818681 C.3        1 MOL1        -0.2882
      15    H7      17.507806   20.439918   22.400601 H          1 MOL1         0.0749
      16    H8      16.392962   19.069484   22.594938 H          1 MOL1         0.0749
      17    H9      17.509118   19.498994   23.909507 H          1 MOL1         0.0749
@<TRIPOS>BOND
    1     1     2    1
    2     1     3    2
    3     1     4    1
    4     4     5    1
    5     4     6    1
    6     4     7    1
    7     7     8    1
    8     7     9    2
    9     9    10    1
   10     9    11    1
   11    11    12    1
   12    11    13    1
   13    11    14    1
   14    14    15    1
   15    14    16    1
   16    14    17    1
@<TRIPOS>SUBSTRUCTURE
       1 MOL1            1 RESIDUE      1      MOL     
@<SCITEGIC>MOL_PROPERTY
VConf Rank
SciTegic.value.IntegerValue
441

@<SCITEGIC>MOL_PROPERTY
Conf_Id
SciTegic.value.IntegerValue
38

@<SCITEGIC>MOL_PROPERTY
Delta U+W
SciTegic.value.DoubleValue
0.000

@<SCITEGIC>MOL_PROPERTY
U+W
SciTegic.value.DoubleValue
-49.427

@<SCITEGIC>MOL_PROPERTY
Grad RMS
SciTegic.value.DoubleValue
0.000000

@<SCITEGIC>MOL_PROPERTY
U
SciTegic.value.DoubleValue
13.666

@<SCITEGIC>MOL_PROPERTY
W
SciTegic.value.DoubleValue
-63.093

@<SCITEGIC>MOL_PROPERTY
W(PB)
SciTegic.value.DoubleValue
-65.225

@<SCITEGIC>MOL_PROPERTY
W(SA)
SciTegic.value.DoubleValue
2.132

@<SCITEGIC>MOL_PROPERTY
Valence
SciTegic.value.DoubleValue
15.226

@<SCITEGIC>MOL_PROPERTY
Coulomb
SciTegic.value.DoubleValue
-1.822

@<SCITEGIC>MOL_PROPERTY
VdW
SciTegic.value.DoubleValue
0.261

@<SCITEGIC>MOL_PROPERTY
VdW6
SciTegic.value.DoubleValue
-4.165

@<SCITEGIC>MOL_PROPERTY
VdW12
SciTegic.value.DoubleValue
4.426

@<SCITEGIC>MOL_PROPERTY
Bond
SciTegic.value.DoubleValue
0.044

@<SCITEGIC>MOL_PROPERTY
Angle
SciTegic.value.DoubleValue
2.229

@<SCITEGIC>MOL_PROPERTY
Pdih
SciTegic.value.DoubleValue
12.953

@<SCITEGIC>MOL_PROPERTY
Idih
SciTegic.value.DoubleValue
0.000

@<SCITEGIC>MOL_PROPERTY
Tether
SciTegic.value.DoubleValue
0.000

@<TRIPOS>MOLECULE
guest-s20_confgen4.mol2 : confsearch ligand conformer 442
          17          16           1
SMALL
USER_CHARGES
 
@<TRIPOS>ATOM
       1    C1      19.984449   18.889484   25.245620 C.2        1 MOL1         0.6132
       2    O1      20.288001   19.936759   25.782175 O.co2      1 MOL1        -0.6749
       3    O2      20.307144   17.797965   25.671546 O.co2      1 MOL1        -0.6749
       4    C2      19.149608   18.945421   23.973018 C.3        1 MOL1        -0.1955
       5    H1      18.603235   19.896214   23.962616 H          1 MOL1         0.0733
       6    H2      18.401376   18.146269   24.027886 H          1 MOL1         0.0733
       7    C3      19.989518   18.787312   22.719903 C.2        1 MOL1        -0.1395
       8    H3      20.436353   17.803371   22.580620 H          1 MOL1         0.0816
       9    C4      20.195170   19.759307   21.825945 C.2        1 MOL1        -0.1394
      10    H4      19.750660   20.743909   21.967472 H          1 MOL1         0.0816
      11    C5      21.036233   19.601010   20.578998 C.3        1 MOL1        -0.1826
      12    H5      21.736264   20.443255   20.494652 H          1 MOL1         0.0736
      13    H6      21.646054   18.689071   20.639864 H          1 MOL1         0.0736
      14    C6      20.151756   19.539909   19.318431 C.3        1 MOL1        -0.2882
      15    H7      19.558190   20.457341   19.211541 H          1 MOL1         0.0749
      16    H8      20.767607   19.425736   18.416889 H          1 MOL1         0.0749
      17    H9      19.459906   18.688770   19.368482 H          1 MOL1         0.0749
@<TRIPOS>BOND
    1     1     2    1
    2     1     3    2
    3     1     4    1
    4     4     5    1
    5     4     6    1
    6     4     7    1
    7     7     8    1
    8     7     9    2
    9     9    10    1
   10     9    11    1
   11    11    12    1
   12    11    13    1
   13    11    14    1
   14    14    15    1
   15    14    16    1
   16    14    17    1
@<TRIPOS>SUBSTRUCTURE
       1 MOL1            1 RESIDUE      1      MOL     
@<SCITEGIC>MOL_PROPERTY
VConf Rank
SciTegic.value.IntegerValue
442

@<SCITEGIC>MOL_PROPERTY
Conf_Id
SciTegic.value.IntegerValue
35

@<SCITEGIC>MOL_PROPERTY
Delta U+W
SciTegic.value.DoubleValue
-0.102

@<SCITEGIC>MOL_PROPERTY
U+W
SciTegic.value.DoubleValue
-49.529

@<SCITEGIC>MOL_PROPERTY
Grad RMS
SciTegic.value.DoubleValue
0.000000

@<SCITEGIC>MOL_PROPERTY
U
SciTegic.value.DoubleValue
13.666

@<SCITEGIC>MOL_PROPERTY
W
SciTegic.value.DoubleValue
-63.195

@<SCITEGIC>MOL_PROPERTY
W(PB)
SciTegic.value.DoubleValue
-65.299

@<SCITEGIC>MOL_PROPERTY
W(SA)
SciTegic.value.DoubleValue
2.103

@<SCITEGIC>MOL_PROPERTY
Valence
SciTegic.value.DoubleValue
15.226

@<SCITEGIC>MOL_PROPERTY
Coulomb
SciTegic.value.DoubleValue
-1.822

@<SCITEGIC>MOL_PROPERTY
VdW
SciTegic.value.DoubleValue
0.261

@<SCITEGIC>MOL_PROPERTY
VdW6
SciTegic.value.DoubleValue
-4.165

@<SCITEGIC>MOL_PROPERTY
VdW12
SciTegic.value.DoubleValue
4.426

@<SCITEGIC>MOL_PROPERTY
Bond
SciTegic.value.DoubleValue
0.044

@<SCITEGIC>MOL_PROPERTY
Angle
SciTegic.value.DoubleValue
2.229

@<SCITEGIC>MOL_PROPERTY
Pdih
SciTegic.value.DoubleValue
12.953

@<SCITEGIC>MOL_PROPERTY
Idih
SciTegic.value.DoubleValue
0.000

@<SCITEGIC>MOL_PROPERTY
Tether
SciTegic.value.DoubleValue
0.000

@<TRIPOS>MOLECULE
guest-s20_confgen4.mol2 : confsearch ligand conformer 443
          17          16           1
SMALL
USER_CHARGES
 
@<TRIPOS>ATOM
       1    C1      21.183403   21.008497   24.237400 C.2        1 MOL1         0.6132
       2    O1      22.372643   20.845774   24.427661 O.co2      1 MOL1        -0.6749
       3    O2      20.668282   22.100405   24.098709 O.co2      1 MOL1        -0.6749
       4    C2      20.290353   19.776104   24.179400 C.3        1 MOL1        -0.1955
       5    H1      19.268505   20.080729   24.435556 H          1 MOL1         0.0733
       6    H2      20.623819   19.083990   24.961250 H          1 MOL1         0.0733
       7    C3      20.332433   19.091920   22.826061 C.2        1 MOL1        -0.1395
       8    H3      21.285749   18.626528   22.581746 H          1 MOL1         0.0816
       9    C4      19.298277   19.052154   21.976561 C.2        1 MOL1        -0.1394
      10    H4      18.360857   19.533203   22.253905 H          1 MOL1         0.0816
      11    C5      19.272023   18.390447   20.609065 C.3        1 MOL1        -0.1826
      12    H5      18.462154   17.648735   20.587148 H          1 MOL1         0.0736
      13    H6      19.004004   19.142323   19.854499 H          1 MOL1         0.0736
      14    C6      20.592129   17.706429   20.190178 C.3        1 MOL1        -0.2882
      15    H7      20.863817   16.909477   20.894774 H          1 MOL1         0.0749
      16    H8      20.492639   17.255085   19.194478 H          1 MOL1         0.0749
      17    H9      21.415777   18.431319   20.149828 H          1 MOL1         0.0749
@<TRIPOS>BOND
    1     1     2    1
    2     1     3    2
    3     1     4    1
    4     4     5    1
    5     4     6    1
    6     4     7    1
    7     7     8    1
    8     7     9    2
    9     9    10    1
   10     9    11    1
   11    11    12    1
   12    11    13    1
   13    11    14    1
   14    14    15    1
   15    14    16    1
   16    14    17    1
@<TRIPOS>SUBSTRUCTURE
       1 MOL1            1 RESIDUE      1      MOL     
@<SCITEGIC>MOL_PROPERTY
VConf Rank
SciTegic.value.IntegerValue
443

@<SCITEGIC>MOL_PROPERTY
Conf_Id
SciTegic.value.IntegerValue
19

@<SCITEGIC>MOL_PROPERTY
Delta U+W
SciTegic.value.DoubleValue
-0.496

@<SCITEGIC>MOL_PROPERTY
U+W
SciTegic.value.DoubleValue
-49.923

@<SCITEGIC>MOL_PROPERTY
Grad RMS
SciTegic.value.DoubleValue
0.000000

@<SCITEGIC>MOL_PROPERTY
U
SciTegic.value.DoubleValue
13.863

@<SCITEGIC>MOL_PROPERTY
W
SciTegic.value.DoubleValue
-63.786

@<SCITEGIC>MOL_PROPERTY
W(PB)
SciTegic.value.DoubleValue
-65.856

@<SCITEGIC>MOL_PROPERTY
W(SA)
SciTegic.value.DoubleValue
2.070

@<SCITEGIC>MOL_PROPERTY
Valence
SciTegic.value.DoubleValue
14.117

@<SCITEGIC>MOL_PROPERTY
Coulomb
SciTegic.value.DoubleValue
-1.228

@<SCITEGIC>MOL_PROPERTY
VdW
SciTegic.value.DoubleValue
0.974

@<SCITEGIC>MOL_PROPERTY
VdW6
SciTegic.value.DoubleValue
-4.885

@<SCITEGIC>MOL_PROPERTY
VdW12
SciTegic.value.DoubleValue
5.859

@<SCITEGIC>MOL_PROPERTY
Bond
SciTegic.value.DoubleValue
0.094

@<SCITEGIC>MOL_PROPERTY
Angle
SciTegic.value.DoubleValue
2.818

@<SCITEGIC>MOL_PROPERTY
Pdih
SciTegic.value.DoubleValue
11.205

@<SCITEGIC>MOL_PROPERTY
Idih
SciTegic.value.DoubleValue
0.000

@<SCITEGIC>MOL_PROPERTY
Tether
SciTegic.value.DoubleValue
0.000

@<TRIPOS>MOLECULE
guest-s20_confgen4.mol2 : confsearch ligand conformer 444
          17          16           1
SMALL
USER_CHARGES
 
@<TRIPOS>ATOM
       1    C1      20.431761   16.515074   20.781725 C.2        1 MOL1         0.6132
       2    O1      19.483775   15.880661   21.200836 O.co2      1 MOL1        -0.6749
       3    O2      20.727361   16.583131   19.604868 O.co2      1 MOL1        -0.6749
       4    C2      21.304691   17.257365   21.785132 C.3        1 MOL1        -0.1955
       5    H1      22.350467   17.112417   21.490467 H          1 MOL1         0.0733
       6    H2      21.178998   16.783394   22.766053 H          1 MOL1         0.0733
       7    C3      20.982649   18.738122   21.851544 C.2        1 MOL1        -0.1395
       8    H3      21.230025   19.308404   20.956670 H          1 MOL1         0.0816
       9    C4      20.427989   19.339593   22.908332 C.2        1 MOL1        -0.1394
      10    H4      20.176097   18.767890   23.800949 H          1 MOL1         0.0816
      11    C5      20.104984   20.815745   22.971398 C.3        1 MOL1        -0.1826
      12    H5      20.481186   21.237940   23.913070 H          1 MOL1         0.0736
      13    H6      20.611603   21.355131   22.159236 H          1 MOL1         0.0736
      14    C6      18.585744   21.054484   22.871865 C.3        1 MOL1        -0.2882
      15    H7      18.056416   20.557682   23.695531 H          1 MOL1         0.0749
      16    H8      18.357034   22.127171   22.917690 H          1 MOL1         0.0749
      17    H9      18.190795   20.661806   21.925556 H          1 MOL1         0.0749
@<TRIPOS>BOND
    1     1     2    1
    2     1     3    2
    3     1     4    1
    4     4     5    1
    5     4     6    1
    6     4     7    1
    7     7     8    1
    8     7     9    2
    9     9    10    1
   10     9    11    1
   11    11    12    1
   12    11    13    1
   13    11    14    1
   14    14    15    1
   15    14    16    1
   16    14    17    1
@<TRIPOS>SUBSTRUCTURE
       1 MOL1            1 RESIDUE      1      MOL     
@<SCITEGIC>MOL_PROPERTY
VConf Rank
SciTegic.value.IntegerValue
444

@<SCITEGIC>MOL_PROPERTY
Conf_Id
SciTegic.value.IntegerValue
7

@<SCITEGIC>MOL_PROPERTY
Delta U+W
SciTegic.value.DoubleValue
-0.041

@<SCITEGIC>MOL_PROPERTY
U+W
SciTegic.value.DoubleValue
-49.468

@<SCITEGIC>MOL_PROPERTY
Grad RMS
SciTegic.value.DoubleValue
0.000000

@<SCITEGIC>MOL_PROPERTY
U
SciTegic.value.DoubleValue
14.121

@<SCITEGIC>MOL_PROPERTY
W
SciTegic.value.DoubleValue
-63.589

@<SCITEGIC>MOL_PROPERTY
W(PB)
SciTegic.value.DoubleValue
-65.660

@<SCITEGIC>MOL_PROPERTY
W(SA)
SciTegic.value.DoubleValue
2.071

@<SCITEGIC>MOL_PROPERTY
Valence
SciTegic.value.DoubleValue
15.230

@<SCITEGIC>MOL_PROPERTY
Coulomb
SciTegic.value.DoubleValue
-1.333

@<SCITEGIC>MOL_PROPERTY
VdW
SciTegic.value.DoubleValue
0.224

@<SCITEGIC>MOL_PROPERTY
VdW6
SciTegic.value.DoubleValue
-4.212

@<SCITEGIC>MOL_PROPERTY
VdW12
SciTegic.value.DoubleValue
4.436

@<SCITEGIC>MOL_PROPERTY
Bond
SciTegic.value.DoubleValue
0.044

@<SCITEGIC>MOL_PROPERTY
Angle
SciTegic.value.DoubleValue
2.230

@<SCITEGIC>MOL_PROPERTY
Pdih
SciTegic.value.DoubleValue
12.956

@<SCITEGIC>MOL_PROPERTY
Idih
SciTegic.value.DoubleValue
0.000

@<SCITEGIC>MOL_PROPERTY
Tether
SciTegic.value.DoubleValue
0.000

@<TRIPOS>MOLECULE
guest-s20_confgen4.mol2 : confsearch ligand conformer 445
          17          16           1
SMALL
USER_CHARGES
 
@<TRIPOS>ATOM
       1    C1      20.217285   20.375584   19.735783 C.2        1 MOL1         0.6132
       2    O1      20.939707   19.583050   19.163954 O.co2      1 MOL1        -0.6749
       3    O2      20.424111   21.572868   19.764353 O.co2      1 MOL1        -0.6749
       4    C2      18.968666   19.842326   20.431602 C.3        1 MOL1        -0.1955
       5    H1      18.615791   18.970849   19.867886 H          1 MOL1         0.0733
       6    H2      18.182440   20.600466   20.337825 H          1 MOL1         0.0733
       7    C3      19.142672   19.466120   21.896207 C.2        1 MOL1        -0.1395
       8    H3      18.239456   19.088029   22.373484 H          1 MOL1         0.0816
       9    C4      20.274694   19.561089   22.603670 C.2        1 MOL1        -0.1394
      10    H4      21.191981   19.934972   22.150317 H          1 MOL1         0.0816
      11    C5      20.394367   19.174199   24.061043 C.3        1 MOL1        -0.1826
      12    H5      20.902913   19.974085   24.616096 H          1 MOL1         0.0736
      13    H6      19.399119   19.061027   24.512515 H          1 MOL1         0.0736
      14    C6      21.179789   17.858017   24.221706 C.3        1 MOL1        -0.2882
      15    H7      21.264738   17.582889   25.281021 H          1 MOL1         0.0749
      16    H8      20.675749   17.036657   23.695487 H          1 MOL1         0.0749
      17    H9      22.193927   17.954845   23.812306 H          1 MOL1         0.0749
@<TRIPOS>BOND
    1     1     2    1
    2     1     3    2
    3     1     4    1
    4     4     5    1
    5     4     6    1
    6     4     7    1
    7     7     8    1
    8     7     9    2
    9     9    10    1
   10     9    11    1
   11    11    12    1
   12    11    13    1
   13    11    14    1
   14    14    15    1
   15    14    16    1
   16    14    17    1
@<TRIPOS>SUBSTRUCTURE
       1 MOL1            1 RESIDUE      1      MOL     
@<SCITEGIC>MOL_PROPERTY
VConf Rank
SciTegic.value.IntegerValue
445

@<SCITEGIC>MOL_PROPERTY
Conf_Id
SciTegic.value.IntegerValue
39

@<SCITEGIC>MOL_PROPERTY
Delta U+W
SciTegic.value.DoubleValue
-0.422

@<SCITEGIC>MOL_PROPERTY
U+W
SciTegic.value.DoubleValue
-49.849

@<SCITEGIC>MOL_PROPERTY
Grad RMS
SciTegic.value.DoubleValue
0.000000

@<SCITEGIC>MOL_PROPERTY
U
SciTegic.value.DoubleValue
14.465

@<SCITEGIC>MOL_PROPERTY
W
SciTegic.value.DoubleValue
-64.314

@<SCITEGIC>MOL_PROPERTY
W(PB)
SciTegic.value.DoubleValue
-66.406

@<SCITEGIC>MOL_PROPERTY
W(SA)
SciTegic.value.DoubleValue
2.093

@<SCITEGIC>MOL_PROPERTY
Valence
SciTegic.value.DoubleValue
14.072

@<SCITEGIC>MOL_PROPERTY
Coulomb
SciTegic.value.DoubleValue
-0.199

@<SCITEGIC>MOL_PROPERTY
VdW
SciTegic.value.DoubleValue
0.592

@<SCITEGIC>MOL_PROPERTY
VdW6
SciTegic.value.DoubleValue
-5.019

@<SCITEGIC>MOL_PROPERTY
VdW12
SciTegic.value.DoubleValue
5.611

@<SCITEGIC>MOL_PROPERTY
Bond
SciTegic.value.DoubleValue
0.085

@<SCITEGIC>MOL_PROPERTY
Angle
SciTegic.value.DoubleValue
2.748

@<SCITEGIC>MOL_PROPERTY
Pdih
SciTegic.value.DoubleValue
11.238

@<SCITEGIC>MOL_PROPERTY
Idih
SciTegic.value.DoubleValue
0.001

@<SCITEGIC>MOL_PROPERTY
Tether
SciTegic.value.DoubleValue
0.000

@<TRIPOS>MOLECULE
guest-s20_confgen4.mol2 : confsearch ligand conformer 446
          17          16           1
SMALL
USER_CHARGES
 
@<TRIPOS>ATOM
       1    C1      22.842867   19.907535   20.641816 C.2        1 MOL1         0.6132
       2    O1      23.827136   20.004053   21.348116 O.co2      1 MOL1        -0.6749
       3    O2      22.625565   20.630651   19.689607 O.co2      1 MOL1        -0.6749
       4    C2      21.830597   18.816818   20.966235 C.3        1 MOL1        -0.1955
       5    H1      22.387782   17.913384   21.239842 H          1 MOL1         0.0733
       6    H2      21.271755   18.584371   20.051738 H          1 MOL1         0.0733
       7    C3      20.892599   19.210894   22.091228 C.2        1 MOL1        -0.1395
       8    H3      21.356436   19.302584   23.072885 H          1 MOL1         0.0816
       9    C4      19.585555   19.441083   21.933508 C.2        1 MOL1        -0.1394
      10    H4      19.122966   19.352122   20.951084 H          1 MOL1         0.0816
      11    C5      18.652503   19.837626   23.055778 C.3        1 MOL1        -0.1826
      12    H5      19.225426   20.153660   23.938446 H          1 MOL1         0.0736
      13    H6      18.047329   20.700801   22.747186 H          1 MOL1         0.0736
      14    C6      17.723239   18.670420   23.441990 C.3        1 MOL1        -0.2882
      15    H7      18.306141   17.803082   23.778961 H          1 MOL1         0.0749
      16    H8      17.048192   18.964330   24.256247 H          1 MOL1         0.0749
      17    H9      17.109625   18.358694   22.586575 H          1 MOL1         0.0749
@<TRIPOS>BOND
    1     1     2    1
    2     1     3    2
    3     1     4    1
    4     4     5    1
    5     4     6    1
    6     4     7    1
    7     7     8    1
    8     7     9    2
    9     9    10    1
   10     9    11    1
   11    11    12    1
   12    11    13    1
   13    11    14    1
   14    14    15    1
   15    14    16    1
   16    14    17    1
@<TRIPOS>SUBSTRUCTURE
       1 MOL1            1 RESIDUE      1      MOL     
@<SCITEGIC>MOL_PROPERTY
VConf Rank
SciTegic.value.IntegerValue
446

@<SCITEGIC>MOL_PROPERTY
Conf_Id
SciTegic.value.IntegerValue
38

@<SCITEGIC>MOL_PROPERTY
Delta U+W
SciTegic.value.DoubleValue
0.000

@<SCITEGIC>MOL_PROPERTY
U+W
SciTegic.value.DoubleValue
-49.427

@<SCITEGIC>MOL_PROPERTY
Grad RMS
SciTegic.value.DoubleValue
0.000000

@<SCITEGIC>MOL_PROPERTY
U
SciTegic.value.DoubleValue
13.666

@<SCITEGIC>MOL_PROPERTY
W
SciTegic.value.DoubleValue
-63.093

@<SCITEGIC>MOL_PROPERTY
W(PB)
SciTegic.value.DoubleValue
-65.225

@<SCITEGIC>MOL_PROPERTY
W(SA)
SciTegic.value.DoubleValue
2.132

@<SCITEGIC>MOL_PROPERTY
Valence
SciTegic.value.DoubleValue
15.226

@<SCITEGIC>MOL_PROPERTY
Coulomb
SciTegic.value.DoubleValue
-1.822

@<SCITEGIC>MOL_PROPERTY
VdW
SciTegic.value.DoubleValue
0.261

@<SCITEGIC>MOL_PROPERTY
VdW6
SciTegic.value.DoubleValue
-4.165

@<SCITEGIC>MOL_PROPERTY
VdW12
SciTegic.value.DoubleValue
4.426

@<SCITEGIC>MOL_PROPERTY
Bond
SciTegic.value.DoubleValue
0.044

@<SCITEGIC>MOL_PROPERTY
Angle
SciTegic.value.DoubleValue
2.229

@<SCITEGIC>MOL_PROPERTY
Pdih
SciTegic.value.DoubleValue
12.953

@<SCITEGIC>MOL_PROPERTY
Idih
SciTegic.value.DoubleValue
0.000

@<SCITEGIC>MOL_PROPERTY
Tether
SciTegic.value.DoubleValue
0.000

@<TRIPOS>MOLECULE
guest-s20_confgen4.mol2 : confsearch ligand conformer 447
          17          16           1
SMALL
USER_CHARGES
 
@<TRIPOS>ATOM
       1    C1      21.420054   18.578335   19.319074 C.2        1 MOL1         0.6132
       2    O1      20.859291   17.613667   18.837642 O.co2      1 MOL1        -0.6749
       3    O2      22.615472   18.776474   19.225913 O.co2      1 MOL1        -0.6749
       4    C2      20.580090   19.598577   20.076154 C.3        1 MOL1        -0.1955
       5    H1      19.545525   19.523053   19.720330 H          1 MOL1         0.0733
       6    H2      20.940608   20.597321   19.804044 H          1 MOL1         0.0733
       7    C3      20.653074   19.410246   21.579467 C.2        1 MOL1        -0.1395
       8    H3      21.621418   19.628072   22.028980 H          1 MOL1         0.0816
       9    C4      19.628657   19.005308   22.336318 C.2        1 MOL1        -0.1394
      10    H4      18.661530   18.784608   21.885744 H          1 MOL1         0.0816
      11    C5      19.704385   18.814263   23.834680 C.3        1 MOL1        -0.1826
      12    H5      19.276980   17.839500   24.106151 H          1 MOL1         0.0736
      13    H6      20.751158   18.803507   24.168400 H          1 MOL1         0.0736
      14    C6      18.944619   19.932396   24.574676 C.3        1 MOL1        -0.2882
      15    H7      17.884752   19.941669   24.288274 H          1 MOL1         0.0749
      16    H8      19.002513   19.788019   25.661363 H          1 MOL1         0.0749
      17    H9      19.371400   20.916090   24.338447 H          1 MOL1         0.0749
@<TRIPOS>BOND
    1     1     2    1
    2     1     3    2
    3     1     4    1
    4     4     5    1
    5     4     6    1
    6     4     7    1
    7     7     8    1
    8     7     9    2
    9     9    10    1
   10     9    11    1
   11    11    12    1
   12    11    13    1
   13    11    14    1
   14    14    15    1
   15    14    16    1
   16    14    17    1
@<TRIPOS>SUBSTRUCTURE
       1 MOL1            1 RESIDUE      1      MOL     
@<SCITEGIC>MOL_PROPERTY
VConf Rank
SciTegic.value.IntegerValue
447

@<SCITEGIC>MOL_PROPERTY
Conf_Id
SciTegic.value.IntegerValue
35

@<SCITEGIC>MOL_PROPERTY
Delta U+W
SciTegic.value.DoubleValue
-0.102

@<SCITEGIC>MOL_PROPERTY
U+W
SciTegic.value.DoubleValue
-49.529

@<SCITEGIC>MOL_PROPERTY
Grad RMS
SciTegic.value.DoubleValue
0.000000

@<SCITEGIC>MOL_PROPERTY
U
SciTegic.value.DoubleValue
13.666

@<SCITEGIC>MOL_PROPERTY
W
SciTegic.value.DoubleValue
-63.195

@<SCITEGIC>MOL_PROPERTY
W(PB)
SciTegic.value.DoubleValue
-65.299

@<SCITEGIC>MOL_PROPERTY
W(SA)
SciTegic.value.DoubleValue
2.103

@<SCITEGIC>MOL_PROPERTY
Valence
SciTegic.value.DoubleValue
15.226

@<SCITEGIC>MOL_PROPERTY
Coulomb
SciTegic.value.DoubleValue
-1.822

@<SCITEGIC>MOL_PROPERTY
VdW
SciTegic.value.DoubleValue
0.261

@<SCITEGIC>MOL_PROPERTY
VdW6
SciTegic.value.DoubleValue
-4.165

@<SCITEGIC>MOL_PROPERTY
VdW12
SciTegic.value.DoubleValue
4.426

@<SCITEGIC>MOL_PROPERTY
Bond
SciTegic.value.DoubleValue
0.044

@<SCITEGIC>MOL_PROPERTY
Angle
SciTegic.value.DoubleValue
2.229

@<SCITEGIC>MOL_PROPERTY
Pdih
SciTegic.value.DoubleValue
12.953

@<SCITEGIC>MOL_PROPERTY
Idih
SciTegic.value.DoubleValue
0.000

@<SCITEGIC>MOL_PROPERTY
Tether
SciTegic.value.DoubleValue
0.000

@<TRIPOS>MOLECULE
guest-s20_confgen4.mol2 : confsearch ligand conformer 448
          17          16           1
SMALL
USER_CHARGES
 
@<TRIPOS>ATOM
       1    C1      20.001711   17.373310   19.820327 C.2        1 MOL1         0.6132
       2    O1      19.551075   16.289545   20.135527 O.co2      1 MOL1        -0.6749
       3    O2      19.624237   18.001960   18.851224 O.co2      1 MOL1        -0.6749
       4    C2      21.106183   17.970001   20.682763 C.3        1 MOL1        -0.1955
       5    H1      21.677924   18.675543   20.068020 H          1 MOL1         0.0733
       6    H2      21.789852   17.159088   20.959397 H          1 MOL1         0.0733
       7    C3      20.567903   18.645259   21.930035 C.2        1 MOL1        -0.1395
       8    H3      20.126198   17.967775   22.658734 H          1 MOL1         0.0816
       9    C4      20.613081   19.966369   22.142964 C.2        1 MOL1        -0.1394
      10    H4      21.059092   20.613696   21.388559 H          1 MOL1         0.0816
      11    C5      20.091719   20.707413   23.362646 C.3        1 MOL1        -0.1826
      12    H5      20.915769   21.276988   23.813237 H          1 MOL1         0.0736
      13    H6      19.358031   21.457317   23.037275 H          1 MOL1         0.0736
      14    C6      19.448797   19.811617   24.444417 C.3        1 MOL1        -0.2882
      15    H7      20.171842   19.082503   24.833006 H          1 MOL1         0.0749
      16    H8      19.097728   20.419297   25.288517 H          1 MOL1         0.0749
      17    H9      18.585723   19.265440   24.041572 H          1 MOL1         0.0749
@<TRIPOS>BOND
    1     1     2    1
    2     1     3    2
    3     1     4    1
    4     4     5    1
    5     4     6    1
    6     4     7    1
    7     7     8    1
    8     7     9    2
    9     9    10    1
   10     9    11    1
   11    11    12    1
   12    11    13    1
   13    11    14    1
   14    14    15    1
   15    14    16    1
   16    14    17    1
@<TRIPOS>SUBSTRUCTURE
       1 MOL1            1 RESIDUE      1      MOL     
@<SCITEGIC>MOL_PROPERTY
VConf Rank
SciTegic.value.IntegerValue
448

@<SCITEGIC>MOL_PROPERTY
Conf_Id
SciTegic.value.IntegerValue
19

@<SCITEGIC>MOL_PROPERTY
Delta U+W
SciTegic.value.DoubleValue
-0.496

@<SCITEGIC>MOL_PROPERTY
U+W
SciTegic.value.DoubleValue
-49.923

@<SCITEGIC>MOL_PROPERTY
Grad RMS
SciTegic.value.DoubleValue
0.000000

@<SCITEGIC>MOL_PROPERTY
U
SciTegic.value.DoubleValue
13.863

@<SCITEGIC>MOL_PROPERTY
W
SciTegic.value.DoubleValue
-63.786

@<SCITEGIC>MOL_PROPERTY
W(PB)
SciTegic.value.DoubleValue
-65.856

@<SCITEGIC>MOL_PROPERTY
W(SA)
SciTegic.value.DoubleValue
2.070

@<SCITEGIC>MOL_PROPERTY
Valence
SciTegic.value.DoubleValue
14.117

@<SCITEGIC>MOL_PROPERTY
Coulomb
SciTegic.value.DoubleValue
-1.228

@<SCITEGIC>MOL_PROPERTY
VdW
SciTegic.value.DoubleValue
0.974

@<SCITEGIC>MOL_PROPERTY
VdW6
SciTegic.value.DoubleValue
-4.885

@<SCITEGIC>MOL_PROPERTY
VdW12
SciTegic.value.DoubleValue
5.859

@<SCITEGIC>MOL_PROPERTY
Bond
SciTegic.value.DoubleValue
0.094

@<SCITEGIC>MOL_PROPERTY
Angle
SciTegic.value.DoubleValue
2.818

@<SCITEGIC>MOL_PROPERTY
Pdih
SciTegic.value.DoubleValue
11.205

@<SCITEGIC>MOL_PROPERTY
Idih
SciTegic.value.DoubleValue
0.000

@<SCITEGIC>MOL_PROPERTY
Tether
SciTegic.value.DoubleValue
0.000

@<TRIPOS>MOLECULE
guest-s20_confgen4.mol2 : confsearch ligand conformer 449
          17          16           1
SMALL
USER_CHARGES
 
@<TRIPOS>ATOM
       1    C1      17.291079   19.400225   22.749601 C.2        1 MOL1         0.6132
       2    O1      16.787686   18.626364   21.959318 O.co2      1 MOL1        -0.6749
       3    O2      16.964173   19.475241   23.917722 O.co2      1 MOL1        -0.6749
       4    C2      18.383895   20.335421   22.248611 C.3        1 MOL1        -0.1955
       5    H1      18.206284   21.323565   22.688511 H          1 MOL1         0.0733
       6    H2      18.272642   20.442746   21.162905 H          1 MOL1         0.0733
       7    C3      19.774843   19.848029   22.607047 C.2        1 MOL1        -0.1395
       8    H3      20.013082   19.862572   23.670177 H          1 MOL1         0.0816
       9    C4      20.672152   19.415648   21.715924 C.2        1 MOL1        -0.1394
      10    H4      20.431541   19.396478   20.653475 H          1 MOL1         0.0816
      11    C5      22.057574   18.927305   22.075732 C.3        1 MOL1        -0.1826
      12    H5      22.800710   19.406411   21.424020 H          1 MOL1         0.0736
      13    H6      22.310450   19.213341   23.105997 H          1 MOL1         0.0736
      14    C6      22.159219   17.396270   21.932235 C.3        1 MOL1        -0.2882
      15    H7      21.948893   17.084755   20.900660 H          1 MOL1         0.0749
      16    H8      23.166319   17.047271   22.194945 H          1 MOL1         0.0749
      17    H9      21.441036   16.894367   22.594042 H          1 MOL1         0.0749
@<TRIPOS>BOND
    1     1     2    1
    2     1     3    2
    3     1     4    1
    4     4     5    1
    5     4     6    1
    6     4     7    1
    7     7     8    1
    8     7     9    2
    9     9    10    1
   10     9    11    1
   11    11    12    1
   12    11    13    1
   13    11    14    1
   14    14    15    1
   15    14    16    1
   16    14    17    1
@<TRIPOS>SUBSTRUCTURE
       1 MOL1            1 RESIDUE      1      MOL     
@<SCITEGIC>MOL_PROPERTY
VConf Rank
SciTegic.value.IntegerValue
449

@<SCITEGIC>MOL_PROPERTY
Conf_Id
SciTegic.value.IntegerValue
7

@<SCITEGIC>MOL_PROPERTY
Delta U+W
SciTegic.value.DoubleValue
-0.041

@<SCITEGIC>MOL_PROPERTY
U+W
SciTegic.value.DoubleValue
-49.468

@<SCITEGIC>MOL_PROPERTY
Grad RMS
SciTegic.value.DoubleValue
0.000000

@<SCITEGIC>MOL_PROPERTY
U
SciTegic.value.DoubleValue
14.121

@<SCITEGIC>MOL_PROPERTY
W
SciTegic.value.DoubleValue
-63.589

@<SCITEGIC>MOL_PROPERTY
W(PB)
SciTegic.value.DoubleValue
-65.660

@<SCITEGIC>MOL_PROPERTY
W(SA)
SciTegic.value.DoubleValue
2.071

@<SCITEGIC>MOL_PROPERTY
Valence
SciTegic.value.DoubleValue
15.230

@<SCITEGIC>MOL_PROPERTY
Coulomb
SciTegic.value.DoubleValue
-1.333

@<SCITEGIC>MOL_PROPERTY
VdW
SciTegic.value.DoubleValue
0.224

@<SCITEGIC>MOL_PROPERTY
VdW6
SciTegic.value.DoubleValue
-4.212

@<SCITEGIC>MOL_PROPERTY
VdW12
SciTegic.value.DoubleValue
4.436

@<SCITEGIC>MOL_PROPERTY
Bond
SciTegic.value.DoubleValue
0.044

@<SCITEGIC>MOL_PROPERTY
Angle
SciTegic.value.DoubleValue
2.230

@<SCITEGIC>MOL_PROPERTY
Pdih
SciTegic.value.DoubleValue
12.956

@<SCITEGIC>MOL_PROPERTY
Idih
SciTegic.value.DoubleValue
0.000

@<SCITEGIC>MOL_PROPERTY
Tether
SciTegic.value.DoubleValue
0.000

@<TRIPOS>MOLECULE
guest-s20_confgen4.mol2 : confsearch ligand conformer 450
          17          16           1
SMALL
USER_CHARGES
 
@<TRIPOS>ATOM
       1    C1      17.452607   19.070538   22.912952 C.2        1 MOL1         0.6132
       2    O1      17.364736   17.884223   23.161805 O.co2      1 MOL1        -0.6749
       3    O2      16.742352   19.642263   22.109366 O.co2      1 MOL1        -0.6749
       4    C2      18.491588   19.891936   23.670184 C.3        1 MOL1        -0.1955
       5    H1      18.603645   19.454107   24.668942 H          1 MOL1         0.0733
       6    H2      18.078093   20.895227   23.825583 H          1 MOL1         0.0733
       7    C3      19.856194   19.999907   23.004549 C.2        1 MOL1        -0.1395
       8    H3      20.582497   20.590452   23.561583 H          1 MOL1         0.0816
       9    C4      20.209228   19.444423   21.839303 C.2        1 MOL1        -0.1394
      10    H4      19.502541   18.848517   21.262915 H          1 MOL1         0.0816
      11    C5      21.581788   19.583808   21.219147 C.3        1 MOL1        -0.1826
      12    H5      21.483688   19.861324   20.160903 H          1 MOL1         0.0736
      13    H6      22.144175   20.392375   21.706070 H          1 MOL1         0.0736
      14    C6      22.377161   18.268781   21.333705 C.3        1 MOL1        -0.2882
      15    H7      23.371522   18.375237   20.880966 H          1 MOL1         0.0749
      16    H8      22.510258   17.984192   22.385792 H          1 MOL1         0.0749
      17    H9      21.855334   17.449763   20.821490 H          1 MOL1         0.0749
@<TRIPOS>BOND
    1     1     2    1
    2     1     3    2
    3     1     4    1
    4     4     5    1
    5     4     6    1
    6     4     7    1
    7     7     8    1
    8     7     9    2
    9     9    10    1
   10     9    11    1
   11    11    12    1
   12    11    13    1
   13    11    14    1
   14    14    15    1
   15    14    16    1
   16    14    17    1
@<TRIPOS>SUBSTRUCTURE
       1 MOL1            1 RESIDUE      1      MOL     
@<SCITEGIC>MOL_PROPERTY
VConf Rank
SciTegic.value.IntegerValue
450

@<SCITEGIC>MOL_PROPERTY
Conf_Id
SciTegic.value.IntegerValue
39

@<SCITEGIC>MOL_PROPERTY
Delta U+W
SciTegic.value.DoubleValue
-0.422

@<SCITEGIC>MOL_PROPERTY
U+W
SciTegic.value.DoubleValue
-49.849

@<SCITEGIC>MOL_PROPERTY
Grad RMS
SciTegic.value.DoubleValue
0.000000

@<SCITEGIC>MOL_PROPERTY
U
SciTegic.value.DoubleValue
14.465

@<SCITEGIC>MOL_PROPERTY
W
SciTegic.value.DoubleValue
-64.314

@<SCITEGIC>MOL_PROPERTY
W(PB)
SciTegic.value.DoubleValue
-66.406

@<SCITEGIC>MOL_PROPERTY
W(SA)
SciTegic.value.DoubleValue
2.093

@<SCITEGIC>MOL_PROPERTY
Valence
SciTegic.value.DoubleValue
14.072

@<SCITEGIC>MOL_PROPERTY
Coulomb
SciTegic.value.DoubleValue
-0.199

@<SCITEGIC>MOL_PROPERTY
VdW
SciTegic.value.DoubleValue
0.592

@<SCITEGIC>MOL_PROPERTY
VdW6
SciTegic.value.DoubleValue
-5.019

@<SCITEGIC>MOL_PROPERTY
VdW12
SciTegic.value.DoubleValue
5.611

@<SCITEGIC>MOL_PROPERTY
Bond
SciTegic.value.DoubleValue
0.085

@<SCITEGIC>MOL_PROPERTY
Angle
SciTegic.value.DoubleValue
2.748

@<SCITEGIC>MOL_PROPERTY
Pdih
SciTegic.value.DoubleValue
11.238

@<SCITEGIC>MOL_PROPERTY
Idih
SciTegic.value.DoubleValue
0.001

@<SCITEGIC>MOL_PROPERTY
Tether
SciTegic.value.DoubleValue
0.000

@<TRIPOS>MOLECULE
guest-s20_confgen4.mol2 : confsearch ligand conformer 451
          17          16           1
SMALL
USER_CHARGES
 
@<TRIPOS>ATOM
       1    C1      20.902948   21.749527   20.300680 C.2        1 MOL1         0.6132
       2    O1      20.587410   21.690283   19.128551 O.co2      1 MOL1        -0.6749
       3    O2      21.961902   22.201492   20.689476 O.co2      1 MOL1        -0.6749
       4    C2      19.913670   21.233683   21.337424 C.3        1 MOL1        -0.1955
       5    H1      18.911031   21.555212   21.032722 H          1 MOL1         0.0733
       6    H2      20.131290   21.724827   22.293488 H          1 MOL1         0.0733
       7    C3      19.955691   19.724136   21.479724 C.2        1 MOL1        -0.1395
       8    H3      19.595905   19.165423   20.616247 H          1 MOL1         0.0816
       9    C4      20.396865   19.084188   22.566949 C.2        1 MOL1        -0.1394
      10    H4      20.759275   19.643464   23.428883 H          1 MOL1         0.0816
      11    C5      20.441555   17.578831   22.705605 C.3        1 MOL1        -0.1826
      12    H5      20.310716   17.098542   21.726103 H          1 MOL1         0.0736
      13    H6      21.427385   17.270062   23.078880 H          1 MOL1         0.0736
      14    C6      19.347659   17.078662   23.669080 C.3        1 MOL1        -0.2882
      15    H7      18.349851   17.353844   23.302672 H          1 MOL1         0.0749
      16    H8      19.385485   15.985851   23.766131 H          1 MOL1         0.0749
      17    H9      19.477075   17.514082   24.668625 H          1 MOL1         0.0749
@<TRIPOS>BOND
    1     1     2    1
    2     1     3    2
    3     1     4    1
    4     4     5    1
    5     4     6    1
    6     4     7    1
    7     7     8    1
    8     7     9    2
    9     9    10    1
   10     9    11    1
   11    11    12    1
   12    11    13    1
   13    11    14    1
   14    14    15    1
   15    14    16    1
   16    14    17    1
@<TRIPOS>SUBSTRUCTURE
       1 MOL1            1 RESIDUE      1      MOL     
@<SCITEGIC>MOL_PROPERTY
VConf Rank
SciTegic.value.IntegerValue
451

@<SCITEGIC>MOL_PROPERTY
Conf_Id
SciTegic.value.IntegerValue
38

@<SCITEGIC>MOL_PROPERTY
Delta U+W
SciTegic.value.DoubleValue
0.000

@<SCITEGIC>MOL_PROPERTY
U+W
SciTegic.value.DoubleValue
-49.427

@<SCITEGIC>MOL_PROPERTY
Grad RMS
SciTegic.value.DoubleValue
0.000000

@<SCITEGIC>MOL_PROPERTY
U
SciTegic.value.DoubleValue
13.666

@<SCITEGIC>MOL_PROPERTY
W
SciTegic.value.DoubleValue
-63.093

@<SCITEGIC>MOL_PROPERTY
W(PB)
SciTegic.value.DoubleValue
-65.225

@<SCITEGIC>MOL_PROPERTY
W(SA)
SciTegic.value.DoubleValue
2.132

@<SCITEGIC>MOL_PROPERTY
Valence
SciTegic.value.DoubleValue
15.226

@<SCITEGIC>MOL_PROPERTY
Coulomb
SciTegic.value.DoubleValue
-1.822

@<SCITEGIC>MOL_PROPERTY
VdW
SciTegic.value.DoubleValue
0.261

@<SCITEGIC>MOL_PROPERTY
VdW6
SciTegic.value.DoubleValue
-4.165

@<SCITEGIC>MOL_PROPERTY
VdW12
SciTegic.value.DoubleValue
4.426

@<SCITEGIC>MOL_PROPERTY
Bond
SciTegic.value.DoubleValue
0.044

@<SCITEGIC>MOL_PROPERTY
Angle
SciTegic.value.DoubleValue
2.229

@<SCITEGIC>MOL_PROPERTY
Pdih
SciTegic.value.DoubleValue
12.953

@<SCITEGIC>MOL_PROPERTY
Idih
SciTegic.value.DoubleValue
0.000

@<SCITEGIC>MOL_PROPERTY
Tether
SciTegic.value.DoubleValue
0.000

@<TRIPOS>MOLECULE
guest-s20_confgen4.mol2 : confsearch ligand conformer 452
          17          16           1
SMALL
USER_CHARGES
 
@<TRIPOS>ATOM
       1    C1      17.006443   18.839835   22.696681 C.2        1 MOL1         0.6132
       2    O1      16.882311   18.257923   23.756297 O.co2      1 MOL1        -0.6749
       3    O2      16.291063   18.643090   21.734141 O.co2      1 MOL1        -0.6749
       4    C2      18.114781   19.876419   22.567506 C.3        1 MOL1        -0.1955
       5    H1      18.367278   20.235781   23.572367 H          1 MOL1         0.0733
       6    H2      17.710735   20.731502   22.013351 H          1 MOL1         0.0733
       7    C3      19.341157   19.330598   21.861232 C.2        1 MOL1        -0.1395
       8    H3      19.205908   19.101568   20.804608 H          1 MOL1         0.0816
       9    C4      20.521281   19.127056   22.454617 C.2        1 MOL1        -0.1394
      10    H4      20.654929   19.353299   23.511978 H          1 MOL1         0.0816
      11    C5      21.741957   18.578989   21.749710 C.3        1 MOL1        -0.1826
      12    H5      22.181751   17.768306   22.346291 H          1 MOL1         0.0736
      13    H6      21.462635   18.141876   20.781138 H          1 MOL1         0.0736
      14    C6      22.794748   19.682167   21.526800 C.3        1 MOL1        -0.2882
      15    H7      23.121001   20.111301   22.483268 H          1 MOL1         0.0749
      16    H8      23.678341   19.278370   21.015628 H          1 MOL1         0.0749
      17    H9      22.385206   20.493025   20.910046 H          1 MOL1         0.0749
@<TRIPOS>BOND
    1     1     2    1
    2     1     3    2
    3     1     4    1
    4     4     5    1
    5     4     6    1
    6     4     7    1
    7     7     8    1
    8     7     9    2
    9     9    10    1
   10     9    11    1
   11    11    12    1
   12    11    13    1
   13    11    14    1
   14    14    15    1
   15    14    16    1
   16    14    17    1
@<TRIPOS>SUBSTRUCTURE
       1 MOL1            1 RESIDUE      1      MOL     
@<SCITEGIC>MOL_PROPERTY
VConf Rank
SciTegic.value.IntegerValue
452

@<SCITEGIC>MOL_PROPERTY
Conf_Id
SciTegic.value.IntegerValue
35

@<SCITEGIC>MOL_PROPERTY
Delta U+W
SciTegic.value.DoubleValue
-0.102

@<SCITEGIC>MOL_PROPERTY
U+W
SciTegic.value.DoubleValue
-49.529

@<SCITEGIC>MOL_PROPERTY
Grad RMS
SciTegic.value.DoubleValue
0.000000

@<SCITEGIC>MOL_PROPERTY
U
SciTegic.value.DoubleValue
13.666

@<SCITEGIC>MOL_PROPERTY
W
SciTegic.value.DoubleValue
-63.195

@<SCITEGIC>MOL_PROPERTY
W(PB)
SciTegic.value.DoubleValue
-65.299

@<SCITEGIC>MOL_PROPERTY
W(SA)
SciTegic.value.DoubleValue
2.103

@<SCITEGIC>MOL_PROPERTY
Valence
SciTegic.value.DoubleValue
15.226

@<SCITEGIC>MOL_PROPERTY
Coulomb
SciTegic.value.DoubleValue
-1.822

@<SCITEGIC>MOL_PROPERTY
VdW
SciTegic.value.DoubleValue
0.261

@<SCITEGIC>MOL_PROPERTY
VdW6
SciTegic.value.DoubleValue
-4.165

@<SCITEGIC>MOL_PROPERTY
VdW12
SciTegic.value.DoubleValue
4.426

@<SCITEGIC>MOL_PROPERTY
Bond
SciTegic.value.DoubleValue
0.044

@<SCITEGIC>MOL_PROPERTY
Angle
SciTegic.value.DoubleValue
2.229

@<SCITEGIC>MOL_PROPERTY
Pdih
SciTegic.value.DoubleValue
12.953

@<SCITEGIC>MOL_PROPERTY
Idih
SciTegic.value.DoubleValue
0.000

@<SCITEGIC>MOL_PROPERTY
Tether
SciTegic.value.DoubleValue
0.000

@<TRIPOS>MOLECULE
guest-s20_confgen4.mol2 : confsearch ligand conformer 453
          17          16           1
SMALL
USER_CHARGES
 
@<TRIPOS>ATOM
       1    C1      20.347857   16.405771   23.402121 C.2        1 MOL1         0.6132
       2    O1      20.175611   16.479695   24.602886 O.co2      1 MOL1        -0.6749
       3    O2      19.804726   15.580105   22.694919 O.co2      1 MOL1        -0.6749
       4    C2      21.304135   17.396771   22.751625 C.3        1 MOL1        -0.1955
       5    H1      21.674864   16.954097   21.819324 H          1 MOL1         0.0733
       6    H2      22.167872   17.513997   23.416251 H          1 MOL1         0.0733
       7    C3      20.657443   18.745013   22.495814 C.2        1 MOL1        -0.1395
       8    H3      20.409640   19.307763   23.394143 H          1 MOL1         0.0816
       9    C4      20.394932   19.228073   21.274973 C.2        1 MOL1        -0.1394
      10    H4      20.653313   18.634025   20.398942 H          1 MOL1         0.0816
      11    C5      19.748318   20.563332   20.947004 C.3        1 MOL1        -0.1826
      12    H5      20.426839   21.139861   20.303786 H          1 MOL1         0.0736
      13    H6      18.849034   20.384717   20.342102 H          1 MOL1         0.0736
      14    C6      19.366871   21.421811   22.173193 C.3        1 MOL1        -0.2882
      15    H7      20.252716   21.666338   22.773933 H          1 MOL1         0.0749
      16    H8      18.906408   22.365764   21.853887 H          1 MOL1         0.0749
      17    H9      18.646286   20.895988   22.813315 H          1 MOL1         0.0749
@<TRIPOS>BOND
    1     1     2    1
    2     1     3    2
    3     1     4    1
    4     4     5    1
    5     4     6    1
    6     4     7    1
    7     7     8    1
    8     7     9    2
    9     9    10    1
   10     9    11    1
   11    11    12    1
   12    11    13    1
   13    11    14    1
   14    14    15    1
   15    14    16    1
   16    14    17    1
@<TRIPOS>SUBSTRUCTURE
       1 MOL1            1 RESIDUE      1      MOL     
@<SCITEGIC>MOL_PROPERTY
VConf Rank
SciTegic.value.IntegerValue
453

@<SCITEGIC>MOL_PROPERTY
Conf_Id
SciTegic.value.IntegerValue
19

@<SCITEGIC>MOL_PROPERTY
Delta U+W
SciTegic.value.DoubleValue
-0.496

@<SCITEGIC>MOL_PROPERTY
U+W
SciTegic.value.DoubleValue
-49.923

@<SCITEGIC>MOL_PROPERTY
Grad RMS
SciTegic.value.DoubleValue
0.000000

@<SCITEGIC>MOL_PROPERTY
U
SciTegic.value.DoubleValue
13.863

@<SCITEGIC>MOL_PROPERTY
W
SciTegic.value.DoubleValue
-63.786

@<SCITEGIC>MOL_PROPERTY
W(PB)
SciTegic.value.DoubleValue
-65.856

@<SCITEGIC>MOL_PROPERTY
W(SA)
SciTegic.value.DoubleValue
2.070

@<SCITEGIC>MOL_PROPERTY
Valence
SciTegic.value.DoubleValue
14.117

@<SCITEGIC>MOL_PROPERTY
Coulomb
SciTegic.value.DoubleValue
-1.228

@<SCITEGIC>MOL_PROPERTY
VdW
SciTegic.value.DoubleValue
0.974

@<SCITEGIC>MOL_PROPERTY
VdW6
SciTegic.value.DoubleValue
-4.885

@<SCITEGIC>MOL_PROPERTY
VdW12
SciTegic.value.DoubleValue
5.859

@<SCITEGIC>MOL_PROPERTY
Bond
SciTegic.value.DoubleValue
0.094

@<SCITEGIC>MOL_PROPERTY
Angle
SciTegic.value.DoubleValue
2.818

@<SCITEGIC>MOL_PROPERTY
Pdih
SciTegic.value.DoubleValue
11.205

@<SCITEGIC>MOL_PROPERTY
Idih
SciTegic.value.DoubleValue
0.000

@<SCITEGIC>MOL_PROPERTY
Tether
SciTegic.value.DoubleValue
0.000

@<TRIPOS>MOLECULE
guest-s20_confgen4.mol2 : confsearch ligand conformer 454
          17          16           1
SMALL
USER_CHARGES
 
@<TRIPOS>ATOM
       1    C1      21.641370   20.131935   24.509436 C.2        1 MOL1         0.6132
       2    O1      22.520527   19.305777   24.655579 O.co2      1 MOL1        -0.6749
       3    O2      21.838117   21.331197   24.517464 O.co2      1 MOL1        -0.6749
       4    C2      20.212831   19.640216   24.316261 C.3        1 MOL1        -0.1955
       5    H1      19.554306   20.282967   24.911829 H          1 MOL1         0.0733
       6    H2      20.138390   18.629155   24.734433 H          1 MOL1         0.0733
       7    C3      19.783490   19.659872   22.861598 C.2        1 MOL1        -0.1395
       8    H3      19.683240   20.650769   22.419684 H          1 MOL1         0.0816
       9    C4      19.542937   18.564576   22.134496 C.2        1 MOL1        -0.1394
      10    H4      19.648337   17.573861   22.575442 H          1 MOL1         0.0816
      11    C5      19.117747   18.586311   20.683263 C.3        1 MOL1        -0.1826
      12    H5      18.255403   17.921356   20.539323 H          1 MOL1         0.0736
      13    H6      18.790528   19.594405   20.393638 H          1 MOL1         0.0736
      14    C6      20.270059   18.140184   19.762317 C.3        1 MOL1        -0.2882
      15    H7      20.591940   17.118815   20.004438 H          1 MOL1         0.0749
      16    H8      19.956259   18.158238   18.710523 H          1 MOL1         0.0749
      17    H9      21.136094   18.806373   19.871199 H          1 MOL1         0.0749
@<TRIPOS>BOND
    1     1     2    1
    2     1     3    2
    3     1     4    1
    4     4     5    1
    5     4     6    1
    6     4     7    1
    7     7     8    1
    8     7     9    2
    9     9    10    1
   10     9    11    1
   11    11    12    1
   12    11    13    1
   13    11    14    1
   14    14    15    1
   15    14    16    1
   16    14    17    1
@<TRIPOS>SUBSTRUCTURE
       1 MOL1            1 RESIDUE      1      MOL     
@<SCITEGIC>MOL_PROPERTY
VConf Rank
SciTegic.value.IntegerValue
454

@<SCITEGIC>MOL_PROPERTY
Conf_Id
SciTegic.value.IntegerValue
7

@<SCITEGIC>MOL_PROPERTY
Delta U+W
SciTegic.value.DoubleValue
-0.041

@<SCITEGIC>MOL_PROPERTY
U+W
SciTegic.value.DoubleValue
-49.468

@<SCITEGIC>MOL_PROPERTY
Grad RMS
SciTegic.value.DoubleValue
0.000000

@<SCITEGIC>MOL_PROPERTY
U
SciTegic.value.DoubleValue
14.121

@<SCITEGIC>MOL_PROPERTY
W
SciTegic.value.DoubleValue
-63.589

@<SCITEGIC>MOL_PROPERTY
W(PB)
SciTegic.value.DoubleValue
-65.660

@<SCITEGIC>MOL_PROPERTY
W(SA)
SciTegic.value.DoubleValue
2.071

@<SCITEGIC>MOL_PROPERTY
Valence
SciTegic.value.DoubleValue
15.230

@<SCITEGIC>MOL_PROPERTY
Coulomb
SciTegic.value.DoubleValue
-1.333

@<SCITEGIC>MOL_PROPERTY
VdW
SciTegic.value.DoubleValue
0.224

@<SCITEGIC>MOL_PROPERTY
VdW6
SciTegic.value.DoubleValue
-4.212

@<SCITEGIC>MOL_PROPERTY
VdW12
SciTegic.value.DoubleValue
4.436

@<SCITEGIC>MOL_PROPERTY
Bond
SciTegic.value.DoubleValue
0.044

@<SCITEGIC>MOL_PROPERTY
Angle
SciTegic.value.DoubleValue
2.230

@<SCITEGIC>MOL_PROPERTY
Pdih
SciTegic.value.DoubleValue
12.956

@<SCITEGIC>MOL_PROPERTY
Idih
SciTegic.value.DoubleValue
0.000

@<SCITEGIC>MOL_PROPERTY
Tether
SciTegic.value.DoubleValue
0.000

@<TRIPOS>MOLECULE
guest-s20_confgen4.mol2 : confsearch ligand conformer 455
          17          16           1
SMALL
USER_CHARGES
 
@<TRIPOS>ATOM
       1    C1      17.492845   19.337542   23.084015 C.2        1 MOL1         0.6132
       2    O1      17.464797   20.391842   23.687883 O.co2      1 MOL1        -0.6749
       3    O2      17.135435   18.279552   23.563597 O.co2      1 MOL1        -0.6749
       4    C2      17.976441   19.347053   21.637080 C.3        1 MOL1        -0.1955
       5    H1      17.698546   20.311386   21.195940 H          1 MOL1         0.0733
       6    H2      17.406436   18.588822   21.087625 H          1 MOL1         0.0733
       7    C3      19.466614   19.106815   21.440741 C.2        1 MOL1        -0.1395
       8    H3      19.790393   19.117561   20.400742 H          1 MOL1         0.0816
       9    C4      20.363920   18.895584   22.410906 C.2        1 MOL1        -0.1394
      10    H4      20.066760   18.880818   23.458861 H          1 MOL1         0.0816
      11    C5      21.837100   18.659971   22.161572 C.3        1 MOL1        -0.1826
      12    H5      22.174851   17.786397   22.735430 H          1 MOL1         0.0736
      13    H6      22.016498   18.429672   21.102359 H          1 MOL1         0.0736
      14    C6      22.670647   19.892257   22.563703 C.3        1 MOL1        -0.2882
      15    H7      23.738683   19.715224   22.381994 H          1 MOL1         0.0749
      16    H8      22.367665   20.773907   21.983626 H          1 MOL1         0.0749
      17    H9      22.539775   20.122669   23.629180 H          1 MOL1         0.0749
@<TRIPOS>BOND
    1     1     2    1
    2     1     3    2
    3     1     4    1
    4     4     5    1
    5     4     6    1
    6     4     7    1
    7     7     8    1
    8     7     9    2
    9     9    10    1
   10     9    11    1
   11    11    12    1
   12    11    13    1
   13    11    14    1
   14    14    15    1
   15    14    16    1
   16    14    17    1
@<TRIPOS>SUBSTRUCTURE
       1 MOL1            1 RESIDUE      1      MOL     
@<SCITEGIC>MOL_PROPERTY
VConf Rank
SciTegic.value.IntegerValue
455

@<SCITEGIC>MOL_PROPERTY
Conf_Id
SciTegic.value.IntegerValue
39

@<SCITEGIC>MOL_PROPERTY
Delta U+W
SciTegic.value.DoubleValue
-0.422

@<SCITEGIC>MOL_PROPERTY
U+W
SciTegic.value.DoubleValue
-49.849

@<SCITEGIC>MOL_PROPERTY
Grad RMS
SciTegic.value.DoubleValue
0.000000

@<SCITEGIC>MOL_PROPERTY
U
SciTegic.value.DoubleValue
14.465

@<SCITEGIC>MOL_PROPERTY
W
SciTegic.value.DoubleValue
-64.314

@<SCITEGIC>MOL_PROPERTY
W(PB)
SciTegic.value.DoubleValue
-66.406

@<SCITEGIC>MOL_PROPERTY
W(SA)
SciTegic.value.DoubleValue
2.093

@<SCITEGIC>MOL_PROPERTY
Valence
SciTegic.value.DoubleValue
14.072

@<SCITEGIC>MOL_PROPERTY
Coulomb
SciTegic.value.DoubleValue
-0.199

@<SCITEGIC>MOL_PROPERTY
VdW
SciTegic.value.DoubleValue
0.592

@<SCITEGIC>MOL_PROPERTY
VdW6
SciTegic.value.DoubleValue
-5.019

@<SCITEGIC>MOL_PROPERTY
VdW12
SciTegic.value.DoubleValue
5.611

@<SCITEGIC>MOL_PROPERTY
Bond
SciTegic.value.DoubleValue
0.085

@<SCITEGIC>MOL_PROPERTY
Angle
SciTegic.value.DoubleValue
2.748

@<SCITEGIC>MOL_PROPERTY
Pdih
SciTegic.value.DoubleValue
11.238

@<SCITEGIC>MOL_PROPERTY
Idih
SciTegic.value.DoubleValue
0.001

@<SCITEGIC>MOL_PROPERTY
Tether
SciTegic.value.DoubleValue
0.000

@<TRIPOS>MOLECULE
guest-s20_confgen4.mol2 : confsearch ligand conformer 456
          17          16           1
SMALL
USER_CHARGES
 
@<TRIPOS>ATOM
       1    C1      23.267121   19.421140   22.255281 C.2        1 MOL1         0.6132
       2    O1      23.866587   18.372662   22.120023 O.co2      1 MOL1        -0.6749
       3    O2      23.587474   20.280294   23.052806 O.co2      1 MOL1        -0.6749
       4    C2      22.051738   19.672276   21.372457 C.3        1 MOL1        -0.1955
       5    H1      22.290491   19.314642   20.364189 H          1 MOL1         0.0733
       6    H2      21.897956   20.755700   21.300458 H          1 MOL1         0.0733
       7    C3      20.805307   18.979396   21.889246 C.2        1 MOL1        -0.1395
       8    H3      20.823497   17.891119   21.839013 H          1 MOL1         0.0816
       9    C4      19.739924   19.618817   22.381514 C.2        1 MOL1        -0.1394
      10    H4      19.723606   20.706943   22.434208 H          1 MOL1         0.0816
      11    C5      18.499449   18.926105   22.899870 C.3        1 MOL1        -0.1826
      12    H5      18.692535   17.855285   23.052457 H          1 MOL1         0.0736
      13    H6      18.226003   19.339862   23.879956 H          1 MOL1         0.0736
      14    C6      17.320132   19.097526   21.922687 C.3        1 MOL1        -0.2882
      15    H7      17.561118   18.667519   20.941554 H          1 MOL1         0.0749
      16    H8      16.422825   18.593373   22.304465 H          1 MOL1         0.0749
      17    H9      17.079952   20.159450   21.781055 H          1 MOL1         0.0749
@<TRIPOS>BOND
    1     1     2    1
    2     1     3    2
    3     1     4    1
    4     4     5    1
    5     4     6    1
    6     4     7    1
    7     7     8    1
    8     7     9    2
    9     9    10    1
   10     9    11    1
   11    11    12    1
   12    11    13    1
   13    11    14    1
   14    14    15    1
   15    14    16    1
   16    14    17    1
@<TRIPOS>SUBSTRUCTURE
       1 MOL1            1 RESIDUE      1      MOL     
@<SCITEGIC>MOL_PROPERTY
VConf Rank
SciTegic.value.IntegerValue
456

@<SCITEGIC>MOL_PROPERTY
Conf_Id
SciTegic.value.IntegerValue
38

@<SCITEGIC>MOL_PROPERTY
Delta U+W
SciTegic.value.DoubleValue
0.000

@<SCITEGIC>MOL_PROPERTY
U+W
SciTegic.value.DoubleValue
-49.427

@<SCITEGIC>MOL_PROPERTY
Grad RMS
SciTegic.value.DoubleValue
0.000000

@<SCITEGIC>MOL_PROPERTY
U
SciTegic.value.DoubleValue
13.666

@<SCITEGIC>MOL_PROPERTY
W
SciTegic.value.DoubleValue
-63.093

@<SCITEGIC>MOL_PROPERTY
W(PB)
SciTegic.value.DoubleValue
-65.225

@<SCITEGIC>MOL_PROPERTY
W(SA)
SciTegic.value.DoubleValue
2.132

@<SCITEGIC>MOL_PROPERTY
Valence
SciTegic.value.DoubleValue
15.226

@<SCITEGIC>MOL_PROPERTY
Coulomb
SciTegic.value.DoubleValue
-1.822

@<SCITEGIC>MOL_PROPERTY
VdW
SciTegic.value.DoubleValue
0.261

@<SCITEGIC>MOL_PROPERTY
VdW6
SciTegic.value.DoubleValue
-4.165

@<SCITEGIC>MOL_PROPERTY
VdW12
SciTegic.value.DoubleValue
4.426

@<SCITEGIC>MOL_PROPERTY
Bond
SciTegic.value.DoubleValue
0.044

@<SCITEGIC>MOL_PROPERTY
Angle
SciTegic.value.DoubleValue
2.229

@<SCITEGIC>MOL_PROPERTY
Pdih
SciTegic.value.DoubleValue
12.953

@<SCITEGIC>MOL_PROPERTY
Idih
SciTegic.value.DoubleValue
0.000

@<SCITEGIC>MOL_PROPERTY
Tether
SciTegic.value.DoubleValue
0.000

@<TRIPOS>MOLECULE
guest-s20_confgen4.mol2 : confsearch ligand conformer 457
          17          16           1
SMALL
USER_CHARGES
 
@<TRIPOS>ATOM
       1    C1      21.255211   21.510635   20.202727 C.2        1 MOL1         0.6132
       2    O1      21.085309   22.597730   20.718650 O.co2      1 MOL1        -0.6749
       3    O2      21.160888   21.311930   19.007495 O.co2      1 MOL1        -0.6749
       4    C2      21.611134   20.332890   21.100412 C.3        1 MOL1        -0.1955
       5    H1      22.063409   20.725944   22.018886 H          1 MOL1         0.0733
       6    H2      22.381921   19.743780   20.590173 H          1 MOL1         0.0733
       7    C3      20.411711   19.459535   21.415659 C.2        1 MOL1        -0.1395
       8    H3      20.004989   18.905276   20.570333 H          1 MOL1         0.0816
       9    C4      19.859896   19.350501   22.628029 C.2        1 MOL1        -0.1394
      10    H4      20.265143   19.907472   23.472197 H          1 MOL1         0.0816
      11    C5      18.661464   18.482194   22.939679 C.3        1 MOL1        -0.1826
      12    H5      17.923513   19.060478   23.511997 H          1 MOL1         0.0736
      13    H6      18.164033   18.166363   22.012299 H          1 MOL1         0.0736
      14    C6      19.075237   17.235985   23.746410 C.3        1 MOL1        -0.2882
      15    H7      19.541649   17.522528   24.698135 H          1 MOL1         0.0749
      16    H8      18.201454   16.610252   23.970124 H          1 MOL1         0.0749
      17    H9      19.794566   16.627611   23.182453 H          1 MOL1         0.0749
@<TRIPOS>BOND
    1     1     2    1
    2     1     3    2
    3     1     4    1
    4     4     5    1
    5     4     6    1
    6     4     7    1
    7     7     8    1
    8     7     9    2
    9     9    10    1
   10     9    11    1
   11    11    12    1
   12    11    13    1
   13    11    14    1
   14    14    15    1
   15    14    16    1
   16    14    17    1
@<TRIPOS>SUBSTRUCTURE
       1 MOL1            1 RESIDUE      1      MOL     
@<SCITEGIC>MOL_PROPERTY
VConf Rank
SciTegic.value.IntegerValue
457

@<SCITEGIC>MOL_PROPERTY
Conf_Id
SciTegic.value.IntegerValue
35

@<SCITEGIC>MOL_PROPERTY
Delta U+W
SciTegic.value.DoubleValue
-0.102

@<SCITEGIC>MOL_PROPERTY
U+W
SciTegic.value.DoubleValue
-49.529

@<SCITEGIC>MOL_PROPERTY
Grad RMS
SciTegic.value.DoubleValue
0.000000

@<SCITEGIC>MOL_PROPERTY
U
SciTegic.value.DoubleValue
13.666

@<SCITEGIC>MOL_PROPERTY
W
SciTegic.value.DoubleValue
-63.195

@<SCITEGIC>MOL_PROPERTY
W(PB)
SciTegic.value.DoubleValue
-65.299

@<SCITEGIC>MOL_PROPERTY
W(SA)
SciTegic.value.DoubleValue
2.103

@<SCITEGIC>MOL_PROPERTY
Valence
SciTegic.value.DoubleValue
15.226

@<SCITEGIC>MOL_PROPERTY
Coulomb
SciTegic.value.DoubleValue
-1.822

@<SCITEGIC>MOL_PROPERTY
VdW
SciTegic.value.DoubleValue
0.261

@<SCITEGIC>MOL_PROPERTY
VdW6
SciTegic.value.DoubleValue
-4.165

@<SCITEGIC>MOL_PROPERTY
VdW12
SciTegic.value.DoubleValue
4.426

@<SCITEGIC>MOL_PROPERTY
Bond
SciTegic.value.DoubleValue
0.044

@<SCITEGIC>MOL_PROPERTY
Angle
SciTegic.value.DoubleValue
2.229

@<SCITEGIC>MOL_PROPERTY
Pdih
SciTegic.value.DoubleValue
12.953

@<SCITEGIC>MOL_PROPERTY
Idih
SciTegic.value.DoubleValue
0.000

@<SCITEGIC>MOL_PROPERTY
Tether
SciTegic.value.DoubleValue
0.000

@<TRIPOS>MOLECULE
guest-s20_confgen4.mol2 : confsearch ligand conformer 458
          17          16           1
SMALL
USER_CHARGES
 
@<TRIPOS>ATOM
       1    C1      18.395968   17.071329   23.324767 C.2        1 MOL1         0.6132
       2    O1      18.989542   16.022590   23.482204 O.co2      1 MOL1        -0.6749
       3    O2      17.653876   17.554932   24.156800 O.co2      1 MOL1        -0.6749
       4    C2      18.586529   17.813592   22.008551 C.3        1 MOL1        -0.1955
       5    H1      17.710564   18.452858   21.845425 H          1 MOL1         0.0733
       6    H2      18.594976   17.070096   21.203161 H          1 MOL1         0.0733
       7    C3      19.867405   18.625978   21.980435 C.2        1 MOL1        -0.1395
       8    H3      20.780938   18.033910   21.979111 H          1 MOL1         0.0816
       9    C4      19.903032   19.964325   21.963996 C.2        1 MOL1        -0.1394
      10    H4      18.967849   20.523321   21.970436 H          1 MOL1         0.0816
      11    C5      21.145246   20.838905   21.939413 C.3        1 MOL1        -0.1826
      12    H5      21.105095   21.490873   21.056333 H          1 MOL1         0.0736
      13    H6      21.123014   21.513851   22.805713 H          1 MOL1         0.0736
      14    C6      22.484579   20.069357   21.936120 C.3        1 MOL1        -0.2882
      15    H7      22.565380   19.422861   21.052425 H          1 MOL1         0.0749
      16    H8      23.330355   20.768931   21.919106 H          1 MOL1         0.0749
      17    H9      22.582516   19.445412   22.834224 H          1 MOL1         0.0749
@<TRIPOS>BOND
    1     1     2    1
    2     1     3    2
    3     1     4    1
    4     4     5    1
    5     4     6    1
    6     4     7    1
    7     7     8    1
    8     7     9    2
    9     9    10    1
   10     9    11    1
   11    11    12    1
   12    11    13    1
   13    11    14    1
   14    14    15    1
   15    14    16    1
   16    14    17    1
@<TRIPOS>SUBSTRUCTURE
       1 MOL1            1 RESIDUE      1      MOL     
@<SCITEGIC>MOL_PROPERTY
VConf Rank
SciTegic.value.IntegerValue
458

@<SCITEGIC>MOL_PROPERTY
Conf_Id
SciTegic.value.IntegerValue
19

@<SCITEGIC>MOL_PROPERTY
Delta U+W
SciTegic.value.DoubleValue
-0.496

@<SCITEGIC>MOL_PROPERTY
U+W
SciTegic.value.DoubleValue
-49.923

@<SCITEGIC>MOL_PROPERTY
Grad RMS
SciTegic.value.DoubleValue
0.000000

@<SCITEGIC>MOL_PROPERTY
U
SciTegic.value.DoubleValue
13.863

@<SCITEGIC>MOL_PROPERTY
W
SciTegic.value.DoubleValue
-63.786

@<SCITEGIC>MOL_PROPERTY
W(PB)
SciTegic.value.DoubleValue
-65.856

@<SCITEGIC>MOL_PROPERTY
W(SA)
SciTegic.value.DoubleValue
2.070

@<SCITEGIC>MOL_PROPERTY
Valence
SciTegic.value.DoubleValue
14.117

@<SCITEGIC>MOL_PROPERTY
Coulomb
SciTegic.value.DoubleValue
-1.228

@<SCITEGIC>MOL_PROPERTY
VdW
SciTegic.value.DoubleValue
0.974

@<SCITEGIC>MOL_PROPERTY
VdW6
SciTegic.value.DoubleValue
-4.885

@<SCITEGIC>MOL_PROPERTY
VdW12
SciTegic.value.DoubleValue
5.859

@<SCITEGIC>MOL_PROPERTY
Bond
SciTegic.value.DoubleValue
0.094

@<SCITEGIC>MOL_PROPERTY
Angle
SciTegic.value.DoubleValue
2.818

@<SCITEGIC>MOL_PROPERTY
Pdih
SciTegic.value.DoubleValue
11.205

@<SCITEGIC>MOL_PROPERTY
Idih
SciTegic.value.DoubleValue
0.000

@<SCITEGIC>MOL_PROPERTY
Tether
SciTegic.value.DoubleValue
0.000

@<TRIPOS>MOLECULE
guest-s20_confgen4.mol2 : confsearch ligand conformer 459
          17          16           1
SMALL
USER_CHARGES
 
@<TRIPOS>ATOM
       1    C1      17.925146   18.276443   20.475668 C.2        1 MOL1         0.6132
       2    O1      17.739644   17.120653   20.802088 O.co2      1 MOL1        -0.6749
       3    O2      17.031000   19.088428   20.340822 O.co2      1 MOL1        -0.6749
       4    C2      19.354165   18.731669   20.210144 C.3        1 MOL1        -0.1955
       5    H1      19.342606   19.366152   19.316398 H          1 MOL1         0.0733
       6    H2      19.956623   17.847763   19.968467 H          1 MOL1         0.0733
       7    C3      19.948717   19.491386   21.380657 C.2        1 MOL1        -0.1395
       8    H3      19.496274   20.461664   21.583318 H          1 MOL1         0.0816
       9    C4      20.950195   19.037169   22.140225 C.2        1 MOL1        -0.1394
      10    H4      21.398792   18.064619   21.940310 H          1 MOL1         0.0816
      11    C5      21.539639   19.795048   23.308776 C.3        1 MOL1        -0.1826
      12    H5      22.635562   19.797099   23.234802 H          1 MOL1         0.0736
      13    H6      21.219981   20.846001   23.285911 H          1 MOL1         0.0736
      14    C6      21.116205   19.162497   24.648767 C.3        1 MOL1        -0.2882
      15    H7      21.457292   18.121031   24.715361 H          1 MOL1         0.0749
      16    H8      21.546278   19.716557   25.493232 H          1 MOL1         0.0749
      17    H9      20.023457   19.171829   24.755976 H          1 MOL1         0.0749
@<TRIPOS>BOND
    1     1     2    1
    2     1     3    2
    3     1     4    1
    4     4     5    1
    5     4     6    1
    6     4     7    1
    7     7     8    1
    8     7     9    2
    9     9    10    1
   10     9    11    1
   11    11    12    1
   12    11    13    1
   13    11    14    1
   14    14    15    1
   15    14    16    1
   16    14    17    1
@<TRIPOS>SUBSTRUCTURE
       1 MOL1            1 RESIDUE      1      MOL     
@<SCITEGIC>MOL_PROPERTY
VConf Rank
SciTegic.value.IntegerValue
459

@<SCITEGIC>MOL_PROPERTY
Conf_Id
SciTegic.value.IntegerValue
7

@<SCITEGIC>MOL_PROPERTY
Delta U+W
SciTegic.value.DoubleValue
-0.041

@<SCITEGIC>MOL_PROPERTY
U+W
SciTegic.value.DoubleValue
-49.468

@<SCITEGIC>MOL_PROPERTY
Grad RMS
SciTegic.value.DoubleValue
0.000000

@<SCITEGIC>MOL_PROPERTY
U
SciTegic.value.DoubleValue
14.121

@<SCITEGIC>MOL_PROPERTY
W
SciTegic.value.DoubleValue
-63.589

@<SCITEGIC>MOL_PROPERTY
W(PB)
SciTegic.value.DoubleValue
-65.660

@<SCITEGIC>MOL_PROPERTY
W(SA)
SciTegic.value.DoubleValue
2.071

@<SCITEGIC>MOL_PROPERTY
Valence
SciTegic.value.DoubleValue
15.230

@<SCITEGIC>MOL_PROPERTY
Coulomb
SciTegic.value.DoubleValue
-1.333

@<SCITEGIC>MOL_PROPERTY
VdW
SciTegic.value.DoubleValue
0.224

@<SCITEGIC>MOL_PROPERTY
VdW6
SciTegic.value.DoubleValue
-4.212

@<SCITEGIC>MOL_PROPERTY
VdW12
SciTegic.value.DoubleValue
4.436

@<SCITEGIC>MOL_PROPERTY
Bond
SciTegic.value.DoubleValue
0.044

@<SCITEGIC>MOL_PROPERTY
Angle
SciTegic.value.DoubleValue
2.230

@<SCITEGIC>MOL_PROPERTY
Pdih
SciTegic.value.DoubleValue
12.956

@<SCITEGIC>MOL_PROPERTY
Idih
SciTegic.value.DoubleValue
0.000

@<SCITEGIC>MOL_PROPERTY
Tether
SciTegic.value.DoubleValue
0.000

@<TRIPOS>MOLECULE
guest-s20_confgen4.mol2 : confsearch ligand conformer 460
          17          16           1
SMALL
USER_CHARGES
 
@<TRIPOS>ATOM
       1    C1      20.325140   18.902727   19.536403 C.2        1 MOL1         0.6132
       2    O1      21.323952   18.213728   19.468233 O.co2      1 MOL1        -0.6749
       3    O2      20.182899   19.941407   18.921591 O.co2      1 MOL1        -0.6749
       4    C2      19.176888   18.424064   20.419566 C.3        1 MOL1        -0.1955
       5    H1      19.178999   17.327863   20.409146 H          1 MOL1         0.0733
       6    H2      18.237620   18.728188   19.943117 H          1 MOL1         0.0733
       7    C3      19.203420   18.920536   21.858207 C.2        1 MOL1        -0.1395
       8    H3      18.374996   18.567220   22.470930 H          1 MOL1         0.0816
       9    C4      20.130708   19.720913   22.397215 C.2        1 MOL1        -0.1394
      10    H4      20.969649   20.087523   21.806869 H          1 MOL1         0.0816
      11    C5      20.110007   20.187591   23.835869 C.3        1 MOL1        -0.1826
      12    H5      20.276533   21.272577   23.875779 H          1 MOL1         0.0736
      13    H6      19.125070   20.003229   24.286493 H          1 MOL1         0.0736
      14    C6      21.192720   19.470875   24.665982 C.3        1 MOL1        -0.2882
      15    H7      21.174051   19.814297   25.708466 H          1 MOL1         0.0749
      16    H8      21.031652   18.384765   24.661872 H          1 MOL1         0.0749
      17    H9      22.193102   19.669570   24.259517 H          1 MOL1         0.0749
@<TRIPOS>BOND
    1     1     2    1
    2     1     3    2
    3     1     4    1
    4     4     5    1
    5     4     6    1
    6     4     7    1
    7     7     8    1
    8     7     9    2
    9     9    10    1
   10     9    11    1
   11    11    12    1
   12    11    13    1
   13    11    14    1
   14    14    15    1
   15    14    16    1
   16    14    17    1
@<TRIPOS>SUBSTRUCTURE
       1 MOL1            1 RESIDUE      1      MOL     
@<SCITEGIC>MOL_PROPERTY
VConf Rank
SciTegic.value.IntegerValue
460

@<SCITEGIC>MOL_PROPERTY
Conf_Id
SciTegic.value.IntegerValue
39

@<SCITEGIC>MOL_PROPERTY
Delta U+W
SciTegic.value.DoubleValue
-0.422

@<SCITEGIC>MOL_PROPERTY
U+W
SciTegic.value.DoubleValue
-49.849

@<SCITEGIC>MOL_PROPERTY
Grad RMS
SciTegic.value.DoubleValue
0.000000

@<SCITEGIC>MOL_PROPERTY
U
SciTegic.value.DoubleValue
14.465

@<SCITEGIC>MOL_PROPERTY
W
SciTegic.value.DoubleValue
-64.314

@<SCITEGIC>MOL_PROPERTY
W(PB)
SciTegic.value.DoubleValue
-66.406

@<SCITEGIC>MOL_PROPERTY
W(SA)
SciTegic.value.DoubleValue
2.093

@<SCITEGIC>MOL_PROPERTY
Valence
SciTegic.value.DoubleValue
14.072

@<SCITEGIC>MOL_PROPERTY
Coulomb
SciTegic.value.DoubleValue
-0.199

@<SCITEGIC>MOL_PROPERTY
VdW
SciTegic.value.DoubleValue
0.592

@<SCITEGIC>MOL_PROPERTY
VdW6
SciTegic.value.DoubleValue
-5.019

@<SCITEGIC>MOL_PROPERTY
VdW12
SciTegic.value.DoubleValue
5.611

@<SCITEGIC>MOL_PROPERTY
Bond
SciTegic.value.DoubleValue
0.085

@<SCITEGIC>MOL_PROPERTY
Angle
SciTegic.value.DoubleValue
2.748

@<SCITEGIC>MOL_PROPERTY
Pdih
SciTegic.value.DoubleValue
11.238

@<SCITEGIC>MOL_PROPERTY
Idih
SciTegic.value.DoubleValue
0.001

@<SCITEGIC>MOL_PROPERTY
Tether
SciTegic.value.DoubleValue
0.000

@<TRIPOS>MOLECULE
guest-s20_confgen4.mol2 : confsearch ligand conformer 461
          17          16           1
SMALL
USER_CHARGES
 
@<TRIPOS>ATOM
       1    C1      21.655359   20.429464   19.597317 C.2        1 MOL1         0.6132
       2    O1      22.044714   19.619618   18.779079 O.co2      1 MOL1        -0.6749
       3    O2      22.299926   21.400758   19.940741 O.co2      1 MOL1        -0.6749
       4    C2      20.282322   20.216504   20.221033 C.3        1 MOL1        -0.1955
       5    H1      19.602695   19.882196   19.428661 H          1 MOL1         0.0733
       6    H2      19.911465   21.186448   20.573614 H          1 MOL1         0.0733
       7    C3      20.307403   19.201706   21.348109 C.2        1 MOL1        -0.1395
       8    H3      20.511875   18.175231   21.045219 H          1 MOL1         0.0816
       9    C4      20.101450   19.502127   22.634017 C.2        1 MOL1        -0.1394
      10    H4      19.899989   20.529232   22.936557 H          1 MOL1         0.0816
      11    C5      20.130576   18.489497   23.756983 C.3        1 MOL1        -0.1826
      12    H5      20.586071   17.549761   23.415454 H          1 MOL1         0.0736
      13    H6      20.757676   18.863786   24.577464 H          1 MOL1         0.0736
      14    C6      18.710407   18.205909   24.284009 C.3        1 MOL1        -0.2882
      15    H7      18.071080   17.805849   23.486003 H          1 MOL1         0.0749
      16    H8      18.738023   17.470998   25.099011 H          1 MOL1         0.0749
      17    H9      18.244680   19.123024   24.667972 H          1 MOL1         0.0749
@<TRIPOS>BOND
    1     1     2    1
    2     1     3    2
    3     1     4    1
    4     4     5    1
    5     4     6    1
    6     4     7    1
    7     7     8    1
    8     7     9    2
    9     9    10    1
   10     9    11    1
   11    11    12    1
   12    11    13    1
   13    11    14    1
   14    14    15    1
   15    14    16    1
   16    14    17    1
@<TRIPOS>SUBSTRUCTURE
       1 MOL1            1 RESIDUE      1      MOL     
@<SCITEGIC>MOL_PROPERTY
VConf Rank
SciTegic.value.IntegerValue
461

@<SCITEGIC>MOL_PROPERTY
Conf_Id
SciTegic.value.IntegerValue
38

@<SCITEGIC>MOL_PROPERTY
Delta U+W
SciTegic.value.DoubleValue
0.000

@<SCITEGIC>MOL_PROPERTY
U+W
SciTegic.value.DoubleValue
-49.427

@<SCITEGIC>MOL_PROPERTY
Grad RMS
SciTegic.value.DoubleValue
0.000000

@<SCITEGIC>MOL_PROPERTY
U
SciTegic.value.DoubleValue
13.666

@<SCITEGIC>MOL_PROPERTY
W
SciTegic.value.DoubleValue
-63.093

@<SCITEGIC>MOL_PROPERTY
W(PB)
SciTegic.value.DoubleValue
-65.225

@<SCITEGIC>MOL_PROPERTY
W(SA)
SciTegic.value.DoubleValue
2.132

@<SCITEGIC>MOL_PROPERTY
Valence
SciTegic.value.DoubleValue
15.226

@<SCITEGIC>MOL_PROPERTY
Coulomb
SciTegic.value.DoubleValue
-1.822

@<SCITEGIC>MOL_PROPERTY
VdW
SciTegic.value.DoubleValue
0.261

@<SCITEGIC>MOL_PROPERTY
VdW6
SciTegic.value.DoubleValue
-4.165

@<SCITEGIC>MOL_PROPERTY
VdW12
SciTegic.value.DoubleValue
4.426

@<SCITEGIC>MOL_PROPERTY
Bond
SciTegic.value.DoubleValue
0.044

@<SCITEGIC>MOL_PROPERTY
Angle
SciTegic.value.DoubleValue
2.229

@<SCITEGIC>MOL_PROPERTY
Pdih
SciTegic.value.DoubleValue
12.953

@<SCITEGIC>MOL_PROPERTY
Idih
SciTegic.value.DoubleValue
0.000

@<SCITEGIC>MOL_PROPERTY
Tether
SciTegic.value.DoubleValue
0.000

@<TRIPOS>MOLECULE
guest-s20_confgen4.mol2 : confsearch ligand conformer 462
          17          16           1
SMALL
USER_CHARGES
 
@<TRIPOS>ATOM
       1    C1      19.727595   21.563584   19.956282 C.2        1 MOL1         0.6132
       2    O1      19.759926   21.075483   18.843838 O.co2      1 MOL1        -0.6749
       3    O2      20.211965   22.643951   20.230423 O.co2      1 MOL1        -0.6749
       4    C2      19.038277   20.783033   21.067671 C.3        1 MOL1        -0.1955
       5    H1      18.319463   20.094011   20.608110 H          1 MOL1         0.0733
       6    H2      18.460755   21.495035   21.668528 H          1 MOL1         0.0733
       7    C3      20.021280   20.035437   21.948323 C.2        1 MOL1        -0.1395
       8    H3      20.665536   20.663235   22.563143 H          1 MOL1         0.0816
       9    C4      20.125170   18.703821   21.995613 C.2        1 MOL1        -0.1394
      10    H4      19.482809   18.076744   21.378193 H          1 MOL1         0.0816
      11    C5      21.108678   17.960192   22.871426 C.3        1 MOL1        -0.1826
      12    H5      21.633862   17.200526   22.276764 H          1 MOL1         0.0736
      13    H6      21.876301   18.646061   23.255557 H          1 MOL1         0.0736
      14    C6      20.392776   17.281319   24.055350 C.3        1 MOL1        -0.2882
      15    H7      19.644806   16.560576   23.699683 H          1 MOL1         0.0749
      16    H8      21.111363   16.742798   24.686788 H          1 MOL1         0.0749
      17    H9      19.880964   18.025297   24.679966 H          1 MOL1         0.0749
@<TRIPOS>BOND
    1     1     2    1
    2     1     3    2
    3     1     4    1
    4     4     5    1
    5     4     6    1
    6     4     7    1
    7     7     8    1
    8     7     9    2
    9     9    10    1
   10     9    11    1
   11    11    12    1
   12    11    13    1
   13    11    14    1
   14    14    15    1
   15    14    16    1
   16    14    17    1
@<TRIPOS>SUBSTRUCTURE
       1 MOL1            1 RESIDUE      1      MOL     
@<SCITEGIC>MOL_PROPERTY
VConf Rank
SciTegic.value.IntegerValue
462

@<SCITEGIC>MOL_PROPERTY
Conf_Id
SciTegic.value.IntegerValue
35

@<SCITEGIC>MOL_PROPERTY
Delta U+W
SciTegic.value.DoubleValue
-0.102

@<SCITEGIC>MOL_PROPERTY
U+W
SciTegic.value.DoubleValue
-49.529

@<SCITEGIC>MOL_PROPERTY
Grad RMS
SciTegic.value.DoubleValue
0.000000

@<SCITEGIC>MOL_PROPERTY
U
SciTegic.value.DoubleValue
13.666

@<SCITEGIC>MOL_PROPERTY
W
SciTegic.value.DoubleValue
-63.195

@<SCITEGIC>MOL_PROPERTY
W(PB)
SciTegic.value.DoubleValue
-65.299

@<SCITEGIC>MOL_PROPERTY
W(SA)
SciTegic.value.DoubleValue
2.103

@<SCITEGIC>MOL_PROPERTY
Valence
SciTegic.value.DoubleValue
15.226

@<SCITEGIC>MOL_PROPERTY
Coulomb
SciTegic.value.DoubleValue
-1.822

@<SCITEGIC>MOL_PROPERTY
VdW
SciTegic.value.DoubleValue
0.261

@<SCITEGIC>MOL_PROPERTY
VdW6
SciTegic.value.DoubleValue
-4.165

@<SCITEGIC>MOL_PROPERTY
VdW12
SciTegic.value.DoubleValue
4.426

@<SCITEGIC>MOL_PROPERTY
Bond
SciTegic.value.DoubleValue
0.044

@<SCITEGIC>MOL_PROPERTY
Angle
SciTegic.value.DoubleValue
2.229

@<SCITEGIC>MOL_PROPERTY
Pdih
SciTegic.value.DoubleValue
12.953

@<SCITEGIC>MOL_PROPERTY
Idih
SciTegic.value.DoubleValue
0.000

@<SCITEGIC>MOL_PROPERTY
Tether
SciTegic.value.DoubleValue
0.000

@<TRIPOS>MOLECULE
guest-s20_confgen4.mol2 : confsearch ligand conformer 463
          17          16           1
SMALL
USER_CHARGES
 
@<TRIPOS>ATOM
       1    C1      21.682843   21.642471   21.879408 C.2        1 MOL1         0.6132
       2    O1      22.125050   22.004411   22.951986 O.co2      1 MOL1        -0.6749
       3    O2      22.325793   21.656300   20.848257 O.co2      1 MOL1        -0.6749
       4    C2      20.241188   21.154241   21.825027 C.3        1 MOL1        -0.1955
       5    H1      19.874415   21.281735   20.799450 H          1 MOL1         0.0733
       6    H2      19.640722   21.811934   22.464080 H          1 MOL1         0.0733
       7    C3      20.098465   19.714158   22.280215 C.2        1 MOL1        -0.1395
       8    H3      20.296945   19.550262   23.337965 H          1 MOL1         0.0816
       9    C4      19.762450   18.703846   21.468380 C.2        1 MOL1        -0.1394
      10    H4      19.575534   18.905724   20.414154 H          1 MOL1         0.0816
      11    C5      19.605750   17.242761   21.854729 C.3        1 MOL1        -0.1826
      12    H5      18.590915   16.912052   21.595408 H          1 MOL1         0.0736
      13    H6      20.280858   16.636211   21.235983 H          1 MOL1         0.0736
      14    C6      19.871714   16.929874   23.343821 C.3        1 MOL1        -0.2882
      15    H7      19.176572   17.479279   23.992152 H          1 MOL1         0.0749
      16    H8      19.739683   15.858172   23.541437 H          1 MOL1         0.0749
      17    H9      20.897967   17.199691   23.625766 H          1 MOL1         0.0749
@<TRIPOS>BOND
    1     1     2    1
    2     1     3    2
    3     1     4    1
    4     4     5    1
    5     4     6    1
    6     4     7    1
    7     7     8    1
    8     7     9    2
    9     9    10    1
   10     9    11    1
   11    11    12    1
   12    11    13    1
   13    11    14    1
   14    14    15    1
   15    14    16    1
   16    14    17    1
@<TRIPOS>SUBSTRUCTURE
       1 MOL1            1 RESIDUE      1      MOL     
@<SCITEGIC>MOL_PROPERTY
VConf Rank
SciTegic.value.IntegerValue
463

@<SCITEGIC>MOL_PROPERTY
Conf_Id
SciTegic.value.IntegerValue
19

@<SCITEGIC>MOL_PROPERTY
Delta U+W
SciTegic.value.DoubleValue
-0.496

@<SCITEGIC>MOL_PROPERTY
U+W
SciTegic.value.DoubleValue
-49.923

@<SCITEGIC>MOL_PROPERTY
Grad RMS
SciTegic.value.DoubleValue
0.000000

@<SCITEGIC>MOL_PROPERTY
U
SciTegic.value.DoubleValue
13.863

@<SCITEGIC>MOL_PROPERTY
W
SciTegic.value.DoubleValue
-63.786

@<SCITEGIC>MOL_PROPERTY
W(PB)
SciTegic.value.DoubleValue
-65.856

@<SCITEGIC>MOL_PROPERTY
W(SA)
SciTegic.value.DoubleValue
2.070

@<SCITEGIC>MOL_PROPERTY
Valence
SciTegic.value.DoubleValue
14.117

@<SCITEGIC>MOL_PROPERTY
Coulomb
SciTegic.value.DoubleValue
-1.228

@<SCITEGIC>MOL_PROPERTY
VdW
SciTegic.value.DoubleValue
0.974

@<SCITEGIC>MOL_PROPERTY
VdW6
SciTegic.value.DoubleValue
-4.885

@<SCITEGIC>MOL_PROPERTY
VdW12
SciTegic.value.DoubleValue
5.859

@<SCITEGIC>MOL_PROPERTY
Bond
SciTegic.value.DoubleValue
0.094

@<SCITEGIC>MOL_PROPERTY
Angle
SciTegic.value.DoubleValue
2.818

@<SCITEGIC>MOL_PROPERTY
Pdih
SciTegic.value.DoubleValue
11.205

@<SCITEGIC>MOL_PROPERTY
Idih
SciTegic.value.DoubleValue
0.000

@<SCITEGIC>MOL_PROPERTY
Tether
SciTegic.value.DoubleValue
0.000

@<TRIPOS>MOLECULE
guest-s20_confgen4.mol2 : confsearch ligand conformer 464
          17          16           1
SMALL
USER_CHARGES
 
@<TRIPOS>ATOM
       1    C1      18.224198   19.418299   20.031016 C.2        1 MOL1         0.6132
       2    O1      17.263048   19.883707   20.611016 O.co2      1 MOL1        -0.6749
       3    O2      18.659944   19.863811   18.987634 O.co2      1 MOL1        -0.6749
       4    C2      18.915403   18.203979   20.637225 C.3        1 MOL1        -0.1955
       5    H1      19.151886   17.511495   19.821120 H          1 MOL1         0.0733
       6    H2      18.200074   17.694059   21.293684 H          1 MOL1         0.0733
       7    C3      20.179156   18.571288   21.391399 C.2        1 MOL1        -0.1395
       8    H3      20.997386   18.942276   20.774891 H          1 MOL1         0.0816
       9    C4      20.319193   18.470434   22.716704 C.2        1 MOL1        -0.1394
      10    H4      19.498909   18.104270   23.333241 H          1 MOL1         0.0816
      11    C5      21.579223   18.840003   23.467090 C.3        1 MOL1        -0.1826
      12    H5      21.847142   18.032990   24.162410 H          1 MOL1         0.0736
      13    H6      22.422587   18.950000   22.771499 H          1 MOL1         0.0736
      14    C6      21.391018   20.152999   24.251699 C.3        1 MOL1        -0.2882
      15    H7      20.577807   20.058942   24.983319 H          1 MOL1         0.0749
      16    H8      22.308372   20.416685   24.793917 H          1 MOL1         0.0749
      17    H9      21.146231   20.980771   23.573058 H          1 MOL1         0.0749
@<TRIPOS>BOND
    1     1     2    1
    2     1     3    2
    3     1     4    1
    4     4     5    1
    5     4     6    1
    6     4     7    1
    7     7     8    1
    8     7     9    2
    9     9    10    1
   10     9    11    1
   11    11    12    1
   12    11    13    1
   13    11    14    1
   14    14    15    1
   15    14    16    1
   16    14    17    1
@<TRIPOS>SUBSTRUCTURE
       1 MOL1            1 RESIDUE      1      MOL     
@<SCITEGIC>MOL_PROPERTY
VConf Rank
SciTegic.value.IntegerValue
464

@<SCITEGIC>MOL_PROPERTY
Conf_Id
SciTegic.value.IntegerValue
7

@<SCITEGIC>MOL_PROPERTY
Delta U+W
SciTegic.value.DoubleValue
-0.041

@<SCITEGIC>MOL_PROPERTY
U+W
SciTegic.value.DoubleValue
-49.468

@<SCITEGIC>MOL_PROPERTY
Grad RMS
SciTegic.value.DoubleValue
0.000000

@<SCITEGIC>MOL_PROPERTY
U
SciTegic.value.DoubleValue
14.121

@<SCITEGIC>MOL_PROPERTY
W
SciTegic.value.DoubleValue
-63.589

@<SCITEGIC>MOL_PROPERTY
W(PB)
SciTegic.value.DoubleValue
-65.660

@<SCITEGIC>MOL_PROPERTY
W(SA)
SciTegic.value.DoubleValue
2.071

@<SCITEGIC>MOL_PROPERTY
Valence
SciTegic.value.DoubleValue
15.230

@<SCITEGIC>MOL_PROPERTY
Coulomb
SciTegic.value.DoubleValue
-1.333

@<SCITEGIC>MOL_PROPERTY
VdW
SciTegic.value.DoubleValue
0.224

@<SCITEGIC>MOL_PROPERTY
VdW6
SciTegic.value.DoubleValue
-4.212

@<SCITEGIC>MOL_PROPERTY
VdW12
SciTegic.value.DoubleValue
4.436

@<SCITEGIC>MOL_PROPERTY
Bond
SciTegic.value.DoubleValue
0.044

@<SCITEGIC>MOL_PROPERTY
Angle
SciTegic.value.DoubleValue
2.230

@<SCITEGIC>MOL_PROPERTY
Pdih
SciTegic.value.DoubleValue
12.956

@<SCITEGIC>MOL_PROPERTY
Idih
SciTegic.value.DoubleValue
0.000

@<SCITEGIC>MOL_PROPERTY
Tether
SciTegic.value.DoubleValue
0.000

@<TRIPOS>MOLECULE
guest-s20_confgen4.mol2 : confsearch ligand conformer 465
          17          16           1
SMALL
USER_CHARGES
 
@<TRIPOS>ATOM
       1    C1      20.783436   20.871349   24.421227 C.2        1 MOL1         0.6132
       2    O1      19.957689   21.756150   24.310501 O.co2      1 MOL1        -0.6749
       3    O2      21.979370   21.074696   24.495221 O.co2      1 MOL1        -0.6749
       4    C2      20.290549   19.429648   24.499579 C.3        1 MOL1        -0.1955
       5    H1      19.312078   19.435143   24.993878 H          1 MOL1         0.0733
       6    H2      20.963247   18.880793   25.168875 H          1 MOL1         0.0733
       7    C3      20.185752   18.697842   23.169032 C.2        1 MOL1        -0.1395
       8    H3      19.832238   17.670527   23.247756 H          1 MOL1         0.0816
       9    C4      20.481587   19.205447   21.966612 C.2        1 MOL1        -0.1394
      10    H4      20.836091   20.229990   21.859971 H          1 MOL1         0.0816
      11    C5      20.361178   18.433386   20.671481 C.3        1 MOL1        -0.1826
      12    H5      21.278905   18.555926   20.080482 H          1 MOL1         0.0736
      13    H6      20.256936   17.358218   20.872236 H          1 MOL1         0.0736
      14    C6      19.151696   18.918015   19.848484 C.3        1 MOL1        -0.2882
      15    H7      19.070013   18.355446   18.909387 H          1 MOL1         0.0749
      16    H8      18.218163   18.781325   20.410111 H          1 MOL1         0.0749
      17    H9      19.248477   19.983171   19.600421 H          1 MOL1         0.0749
@<TRIPOS>BOND
    1     1     2    1
    2     1     3    2
    3     1     4    1
    4     4     5    1
    5     4     6    1
    6     4     7    1
    7     7     8    1
    8     7     9    2
    9     9    10    1
   10     9    11    1
   11    11    12    1
   12    11    13    1
   13    11    14    1
   14    14    15    1
   15    14    16    1
   16    14    17    1
@<TRIPOS>SUBSTRUCTURE
       1 MOL1            1 RESIDUE      1      MOL     
@<SCITEGIC>MOL_PROPERTY
VConf Rank
SciTegic.value.IntegerValue
465

@<SCITEGIC>MOL_PROPERTY
Conf_Id
SciTegic.value.IntegerValue
39

@<SCITEGIC>MOL_PROPERTY
Delta U+W
SciTegic.value.DoubleValue
-0.422

@<SCITEGIC>MOL_PROPERTY
U+W
SciTegic.value.DoubleValue
-49.849

@<SCITEGIC>MOL_PROPERTY
Grad RMS
SciTegic.value.DoubleValue
0.000000

@<SCITEGIC>MOL_PROPERTY
U
SciTegic.value.DoubleValue
14.465

@<SCITEGIC>MOL_PROPERTY
W
SciTegic.value.DoubleValue
-64.314

@<SCITEGIC>MOL_PROPERTY
W(PB)
SciTegic.value.DoubleValue
-66.406

@<SCITEGIC>MOL_PROPERTY
W(SA)
SciTegic.value.DoubleValue
2.093

@<SCITEGIC>MOL_PROPERTY
Valence
SciTegic.value.DoubleValue
14.072

@<SCITEGIC>MOL_PROPERTY
Coulomb
SciTegic.value.DoubleValue
-0.199

@<SCITEGIC>MOL_PROPERTY
VdW
SciTegic.value.DoubleValue
0.592

@<SCITEGIC>MOL_PROPERTY
VdW6
SciTegic.value.DoubleValue
-5.019

@<SCITEGIC>MOL_PROPERTY
VdW12
SciTegic.value.DoubleValue
5.611

@<SCITEGIC>MOL_PROPERTY
Bond
SciTegic.value.DoubleValue
0.085

@<SCITEGIC>MOL_PROPERTY
Angle
SciTegic.value.DoubleValue
2.748

@<SCITEGIC>MOL_PROPERTY
Pdih
SciTegic.value.DoubleValue
11.238

@<SCITEGIC>MOL_PROPERTY
Idih
SciTegic.value.DoubleValue
0.001

@<SCITEGIC>MOL_PROPERTY
Tether
SciTegic.value.DoubleValue
0.000

@<TRIPOS>MOLECULE
guest-s20_confgen4.mol2 : confsearch ligand conformer 466
          17          16           1
SMALL
USER_CHARGES
 
@<TRIPOS>ATOM
       1    C1      21.855811   21.527344   23.479061 C.2        1 MOL1         0.6132
       2    O1      23.046725   21.306313   23.578210 O.co2      1 MOL1        -0.6749
       3    O2      21.197869   22.066372   24.347036 O.co2      1 MOL1        -0.6749
       4    C2      21.152748   21.110152   22.194048 C.3        1 MOL1        -0.1955
       5    H1      21.816729   21.350625   21.355710 H          1 MOL1         0.0733
       6    H2      20.253897   21.727726   22.078679 H          1 MOL1         0.0733
       7    C3      20.804229   19.634030   22.175532 C.2        1 MOL1        -0.1395
       8    H3      21.655506   18.955787   22.125357 H          1 MOL1         0.0816
       9    C4      19.556817   19.156199   22.218733 C.2        1 MOL1        -0.1394
      10    H4      18.706174   19.834903   22.271903 H          1 MOL1         0.0816
      11    C5      19.211360   17.683866   22.203988 C.3        1 MOL1        -0.1826
      12    H5      20.104350   17.077442   22.409021 H          1 MOL1         0.0736
      13    H6      18.490800   17.464157   23.003399 H          1 MOL1         0.0736
      14    C6      18.613858   17.268745   20.845413 C.3        1 MOL1        -0.2882
      15    H7      19.327552   17.455579   20.032188 H          1 MOL1         0.0749
      16    H8      18.364626   16.199657   20.840995 H          1 MOL1         0.0749
      17    H9      17.696663   17.833213   20.631967 H          1 MOL1         0.0749
@<TRIPOS>BOND
    1     1     2    1
    2     1     3    2
    3     1     4    1
    4     4     5    1
    5     4     6    1
    6     4     7    1
    7     7     8    1
    8     7     9    2
    9     9    10    1
   10     9    11    1
   11    11    12    1
   12    11    13    1
   13    11    14    1
   14    14    15    1
   15    14    16    1
   16    14    17    1
@<TRIPOS>SUBSTRUCTURE
       1 MOL1            1 RESIDUE      1      MOL     
@<SCITEGIC>MOL_PROPERTY
VConf Rank
SciTegic.value.IntegerValue
466

@<SCITEGIC>MOL_PROPERTY
Conf_Id
SciTegic.value.IntegerValue
38

@<SCITEGIC>MOL_PROPERTY
Delta U+W
SciTegic.value.DoubleValue
0.000

@<SCITEGIC>MOL_PROPERTY
U+W
SciTegic.value.DoubleValue
-49.427

@<SCITEGIC>MOL_PROPERTY
Grad RMS
SciTegic.value.DoubleValue
0.000000

@<SCITEGIC>MOL_PROPERTY
U
SciTegic.value.DoubleValue
13.666

@<SCITEGIC>MOL_PROPERTY
W
SciTegic.value.DoubleValue
-63.093

@<SCITEGIC>MOL_PROPERTY
W(PB)
SciTegic.value.DoubleValue
-65.225

@<SCITEGIC>MOL_PROPERTY
W(SA)
SciTegic.value.DoubleValue
2.132

@<SCITEGIC>MOL_PROPERTY
Valence
SciTegic.value.DoubleValue
15.226

@<SCITEGIC>MOL_PROPERTY
Coulomb
SciTegic.value.DoubleValue
-1.822

@<SCITEGIC>MOL_PROPERTY
VdW
SciTegic.value.DoubleValue
0.261

@<SCITEGIC>MOL_PROPERTY
VdW6
SciTegic.value.DoubleValue
-4.165

@<SCITEGIC>MOL_PROPERTY
VdW12
SciTegic.value.DoubleValue
4.426

@<SCITEGIC>MOL_PROPERTY
Bond
SciTegic.value.DoubleValue
0.044

@<SCITEGIC>MOL_PROPERTY
Angle
SciTegic.value.DoubleValue
2.229

@<SCITEGIC>MOL_PROPERTY
Pdih
SciTegic.value.DoubleValue
12.953

@<SCITEGIC>MOL_PROPERTY
Idih
SciTegic.value.DoubleValue
0.000

@<SCITEGIC>MOL_PROPERTY
Tether
SciTegic.value.DoubleValue
0.000

@<TRIPOS>MOLECULE
guest-s20_confgen4.mol2 : confsearch ligand conformer 467
          17          16           1
SMALL
USER_CHARGES
 
@<TRIPOS>ATOM
       1    C1      21.290598   19.658762   25.005482 C.2        1 MOL1         0.6132
       2    O1      20.599220   19.061669   25.806916 O.co2      1 MOL1        -0.6749
       3    O2      21.812645   20.731692   25.236239 O.co2      1 MOL1        -0.6749
       4    C2      21.521142   19.027333   23.638825 C.3        1 MOL1        -0.1955
       5    H1      21.370623   17.944992   23.731139 H          1 MOL1         0.0733
       6    H2      22.572564   19.183104   23.370954 H          1 MOL1         0.0733
       7    C3      20.618972   19.612391   22.568993 C.2        1 MOL1        -0.1395
       8    H3      20.821023   20.650523   22.306965 H          1 MOL1         0.0816
       9    C4      19.633535   18.939460   21.967074 C.2        1 MOL1        -0.1394
      10    H4      19.429987   17.902384   22.231844 H          1 MOL1         0.0816
      11    C5      18.732382   19.525701   20.903323 C.3        1 MOL1        -0.1826
      12    H5      17.683474   19.304713   21.143091 H          1 MOL1         0.0736
      13    H6      18.826659   20.620137   20.880091 H          1 MOL1         0.0736
      14    C6      19.072806   18.954836   19.512896 C.3        1 MOL1        -0.2882
      15    H7      18.949755   17.863957   19.496479 H          1 MOL1         0.0749
      16    H8      18.415250   19.383336   18.745372 H          1 MOL1         0.0749
      17    H9      20.110892   19.186115   19.239974 H          1 MOL1         0.0749
@<TRIPOS>BOND
    1     1     2    1
    2     1     3    2
    3     1     4    1
    4     4     5    1
    5     4     6    1
    6     4     7    1
    7     7     8    1
    8     7     9    2
    9     9    10    1
   10     9    11    1
   11    11    12    1
   12    11    13    1
   13    11    14    1
   14    14    15    1
   15    14    16    1
   16    14    17    1
@<TRIPOS>SUBSTRUCTURE
       1 MOL1            1 RESIDUE      1      MOL     
@<SCITEGIC>MOL_PROPERTY
VConf Rank
SciTegic.value.IntegerValue
467

@<SCITEGIC>MOL_PROPERTY
Conf_Id
SciTegic.value.IntegerValue
35

@<SCITEGIC>MOL_PROPERTY
Delta U+W
SciTegic.value.DoubleValue
-0.102

@<SCITEGIC>MOL_PROPERTY
U+W
SciTegic.value.DoubleValue
-49.529

@<SCITEGIC>MOL_PROPERTY
Grad RMS
SciTegic.value.DoubleValue
0.000000

@<SCITEGIC>MOL_PROPERTY
U
SciTegic.value.DoubleValue
13.666

@<SCITEGIC>MOL_PROPERTY
W
SciTegic.value.DoubleValue
-63.195

@<SCITEGIC>MOL_PROPERTY
W(PB)
SciTegic.value.DoubleValue
-65.299

@<SCITEGIC>MOL_PROPERTY
W(SA)
SciTegic.value.DoubleValue
2.103

@<SCITEGIC>MOL_PROPERTY
Valence
SciTegic.value.DoubleValue
15.226

@<SCITEGIC>MOL_PROPERTY
Coulomb
SciTegic.value.DoubleValue
-1.822

@<SCITEGIC>MOL_PROPERTY
VdW
SciTegic.value.DoubleValue
0.261

@<SCITEGIC>MOL_PROPERTY
VdW6
SciTegic.value.DoubleValue
-4.165

@<SCITEGIC>MOL_PROPERTY
VdW12
SciTegic.value.DoubleValue
4.426

@<SCITEGIC>MOL_PROPERTY
Bond
SciTegic.value.DoubleValue
0.044

@<SCITEGIC>MOL_PROPERTY
Angle
SciTegic.value.DoubleValue
2.229

@<SCITEGIC>MOL_PROPERTY
Pdih
SciTegic.value.DoubleValue
12.953

@<SCITEGIC>MOL_PROPERTY
Idih
SciTegic.value.DoubleValue
0.000

@<SCITEGIC>MOL_PROPERTY
Tether
SciTegic.value.DoubleValue
0.000

@<TRIPOS>MOLECULE
guest-s20_confgen4.mol2 : confsearch ligand conformer 468
          17          16           1
SMALL
USER_CHARGES
 
@<TRIPOS>ATOM
       1    C1      18.091642   19.270317   24.236906 C.2        1 MOL1         0.6132
       2    O1      17.368754   18.296359   24.160684 O.co2      1 MOL1        -0.6749
       3    O2      18.515116   19.712351   25.286728 O.co2      1 MOL1        -0.6749
       4    C2      18.479056   19.979678   22.946011 C.3        1 MOL1        -0.1955
       5    H1      18.737699   21.017247   23.189196 H          1 MOL1         0.0733
       6    H2      17.591883   20.012925   22.303104 H          1 MOL1         0.0733
       7    C3      19.619806   19.288219   22.223529 C.2        1 MOL1        -0.1395
       8    H3      19.372524   18.309603   21.815790 H          1 MOL1         0.0816
       9    C4      20.844494   19.811946   22.087300 C.2        1 MOL1        -0.1394
      10    H4      21.056126   20.792390   22.512773 H          1 MOL1         0.0816
      11    C5      22.030419   19.175559   21.382187 C.3        1 MOL1        -0.1826
      12    H5      22.376772   19.849938   20.587354 H          1 MOL1         0.0736
      13    H6      22.866960   19.099557   22.089960 H          1 MOL1         0.0736
      14    C6      21.757125   17.781525   20.775550 C.3        1 MOL1        -0.2882
      15    H7      20.960564   17.829228   20.021483 H          1 MOL1         0.0749
      16    H8      22.659221   17.390784   20.287109 H          1 MOL1         0.0749
      17    H9      21.458703   17.065496   21.552554 H          1 MOL1         0.0749
@<TRIPOS>BOND
    1     1     2    1
    2     1     3    2
    3     1     4    1
    4     4     5    1
    5     4     6    1
    6     4     7    1
    7     7     8    1
    8     7     9    2
    9     9    10    1
   10     9    11    1
   11    11    12    1
   12    11    13    1
   13    11    14    1
   14    14    15    1
   15    14    16    1
   16    14    17    1
@<TRIPOS>SUBSTRUCTURE
       1 MOL1            1 RESIDUE      1      MOL     
@<SCITEGIC>MOL_PROPERTY
VConf Rank
SciTegic.value.IntegerValue
468

@<SCITEGIC>MOL_PROPERTY
Conf_Id
SciTegic.value.IntegerValue
19

@<SCITEGIC>MOL_PROPERTY
Delta U+W
SciTegic.value.DoubleValue
-0.496

@<SCITEGIC>MOL_PROPERTY
U+W
SciTegic.value.DoubleValue
-49.923

@<SCITEGIC>MOL_PROPERTY
Grad RMS
SciTegic.value.DoubleValue
0.000000

@<SCITEGIC>MOL_PROPERTY
U
SciTegic.value.DoubleValue
13.863

@<SCITEGIC>MOL_PROPERTY
W
SciTegic.value.DoubleValue
-63.786

@<SCITEGIC>MOL_PROPERTY
W(PB)
SciTegic.value.DoubleValue
-65.856

@<SCITEGIC>MOL_PROPERTY
W(SA)
SciTegic.value.DoubleValue
2.070

@<SCITEGIC>MOL_PROPERTY
Valence
SciTegic.value.DoubleValue
14.117

@<SCITEGIC>MOL_PROPERTY
Coulomb
SciTegic.value.DoubleValue
-1.228

@<SCITEGIC>MOL_PROPERTY
VdW
SciTegic.value.DoubleValue
0.974

@<SCITEGIC>MOL_PROPERTY
VdW6
SciTegic.value.DoubleValue
-4.885

@<SCITEGIC>MOL_PROPERTY
VdW12
SciTegic.value.DoubleValue
5.859

@<SCITEGIC>MOL_PROPERTY
Bond
SciTegic.value.DoubleValue
0.094

@<SCITEGIC>MOL_PROPERTY
Angle
SciTegic.value.DoubleValue
2.818

@<SCITEGIC>MOL_PROPERTY
Pdih
SciTegic.value.DoubleValue
11.205

@<SCITEGIC>MOL_PROPERTY
Idih
SciTegic.value.DoubleValue
0.000

@<SCITEGIC>MOL_PROPERTY
Tether
SciTegic.value.DoubleValue
0.000

@<TRIPOS>MOLECULE
guest-s20_confgen4.mol2 : confsearch ligand conformer 469
          17          16           1
SMALL
USER_CHARGES
 
@<TRIPOS>ATOM
       1    C1      18.726246   21.590963   22.644652 C.2        1 MOL1         0.6132
       2    O1      18.922719   21.800091   23.825532 O.co2      1 MOL1        -0.6749
       3    O2      18.850155   22.438421   21.782409 O.co2      1 MOL1        -0.6749
       4    C2      18.290526   20.194348   22.221047 C.3        1 MOL1        -0.1955
       5    H1      17.503148   20.303988   21.466395 H          1 MOL1         0.0733
       6    H2      17.837418   19.698502   23.087928 H          1 MOL1         0.0733
       7    C3      19.436694   19.372759   21.662429 C.2        1 MOL1        -0.1395
       8    H3      19.838289   19.721149   20.711344 H          1 MOL1         0.0816
       9    C4      19.952956   18.296898   22.264270 C.2        1 MOL1        -0.1394
      10    H4      19.554380   17.952017   23.217818 H          1 MOL1         0.0816
      11    C5      21.097808   17.480774   21.706963 C.3        1 MOL1        -0.1826
      12    H5      20.844346   16.412630   21.743683 H          1 MOL1         0.0736
      13    H6      21.267719   17.728493   20.650093 H          1 MOL1         0.0736
      14    C6      22.393552   17.729147   22.503423 C.3        1 MOL1        -0.2882
      15    H7      22.264086   17.452780   23.558073 H          1 MOL1         0.0749
      16    H8      23.221057   17.134894   22.094563 H          1 MOL1         0.0749
      17    H9      22.680476   18.788154   22.460300 H          1 MOL1         0.0749
@<TRIPOS>BOND
    1     1     2    1
    2     1     3    2
    3     1     4    1
    4     4     5    1
    5     4     6    1
    6     4     7    1
    7     7     8    1
    8     7     9    2
    9     9    10    1
   10     9    11    1
   11    11    12    1
   12    11    13    1
   13    11    14    1
   14    14    15    1
   15    14    16    1
   16    14    17    1
@<TRIPOS>SUBSTRUCTURE
       1 MOL1            1 RESIDUE      1      MOL     
@<SCITEGIC>MOL_PROPERTY
VConf Rank
SciTegic.value.IntegerValue
469

@<SCITEGIC>MOL_PROPERTY
Conf_Id
SciTegic.value.IntegerValue
7

@<SCITEGIC>MOL_PROPERTY
Delta U+W
SciTegic.value.DoubleValue
-0.041

@<SCITEGIC>MOL_PROPERTY
U+W
SciTegic.value.DoubleValue
-49.468

@<SCITEGIC>MOL_PROPERTY
Grad RMS
SciTegic.value.DoubleValue
0.000000

@<SCITEGIC>MOL_PROPERTY
U
SciTegic.value.DoubleValue
14.121

@<SCITEGIC>MOL_PROPERTY
W
SciTegic.value.DoubleValue
-63.589

@<SCITEGIC>MOL_PROPERTY
W(PB)
SciTegic.value.DoubleValue
-65.660

@<SCITEGIC>MOL_PROPERTY
W(SA)
SciTegic.value.DoubleValue
2.071

@<SCITEGIC>MOL_PROPERTY
Valence
SciTegic.value.DoubleValue
15.230

@<SCITEGIC>MOL_PROPERTY
Coulomb
SciTegic.value.DoubleValue
-1.333

@<SCITEGIC>MOL_PROPERTY
VdW
SciTegic.value.DoubleValue
0.224

@<SCITEGIC>MOL_PROPERTY
VdW6
SciTegic.value.DoubleValue
-4.212

@<SCITEGIC>MOL_PROPERTY
VdW12
SciTegic.value.DoubleValue
4.436

@<SCITEGIC>MOL_PROPERTY
Bond
SciTegic.value.DoubleValue
0.044

@<SCITEGIC>MOL_PROPERTY
Angle
SciTegic.value.DoubleValue
2.230

@<SCITEGIC>MOL_PROPERTY
Pdih
SciTegic.value.DoubleValue
12.956

@<SCITEGIC>MOL_PROPERTY
Idih
SciTegic.value.DoubleValue
0.000

@<SCITEGIC>MOL_PROPERTY
Tether
SciTegic.value.DoubleValue
0.000

@<TRIPOS>MOLECULE
guest-s20_confgen4.mol2 : confsearch ligand conformer 470
          17          16           1
SMALL
USER_CHARGES
 
@<TRIPOS>ATOM
       1    C1      17.784886   17.918246   21.724677 C.2        1 MOL1         0.6132
       2    O1      17.150340   18.778381   21.146307 O.co2      1 MOL1        -0.6749
       3    O2      17.369210   17.315328   22.694618 O.co2      1 MOL1        -0.6749
       4    C2      19.166218   17.556216   21.187617 C.3        1 MOL1        -0.1955
       5    H1      19.151476   17.695627   20.100366 H          1 MOL1         0.0733
       6    H2      19.319637   16.483271   21.351846 H          1 MOL1         0.0733
       7    C3      20.328814   18.335395   21.786057 C.2        1 MOL1        -0.1395
       8    H3      21.305381   18.061266   21.388923 H          1 MOL1         0.0816
       9    C4      20.238469   19.289667   22.719972 C.2        1 MOL1        -0.1394
      10    H4      19.274185   19.583368   23.133047 H          1 MOL1         0.0816
      11    C5      21.428161   20.034509   23.283694 C.3        1 MOL1        -0.1826
      12    H5      21.369753   20.049994   24.380448 H          1 MOL1         0.0736
      13    H6      22.363250   19.518792   23.025240 H          1 MOL1         0.0736
      14    C6      21.479183   21.479946   22.751579 C.3        1 MOL1        -0.2882
      15    H7      22.343402   22.016018   23.164873 H          1 MOL1         0.0749
      16    H8      21.563696   21.489503   21.656883 H          1 MOL1         0.0749
      17    H9      20.571344   22.031547   23.029109 H          1 MOL1         0.0749
@<TRIPOS>BOND
    1     1     2    1
    2     1     3    2
    3     1     4    1
    4     4     5    1
    5     4     6    1
    6     4     7    1
    7     7     8    1
    8     7     9    2
    9     9    10    1
   10     9    11    1
   11    11    12    1
   12    11    13    1
   13    11    14    1
   14    14    15    1
   15    14    16    1
   16    14    17    1
@<TRIPOS>SUBSTRUCTURE
       1 MOL1            1 RESIDUE      1      MOL     
@<SCITEGIC>MOL_PROPERTY
VConf Rank
SciTegic.value.IntegerValue
470

@<SCITEGIC>MOL_PROPERTY
Conf_Id
SciTegic.value.IntegerValue
39

@<SCITEGIC>MOL_PROPERTY
Delta U+W
SciTegic.value.DoubleValue
-0.422

@<SCITEGIC>MOL_PROPERTY
U+W
SciTegic.value.DoubleValue
-49.849

@<SCITEGIC>MOL_PROPERTY
Grad RMS
SciTegic.value.DoubleValue
0.000000

@<SCITEGIC>MOL_PROPERTY
U
SciTegic.value.DoubleValue
14.465

@<SCITEGIC>MOL_PROPERTY
W
SciTegic.value.DoubleValue
-64.314

@<SCITEGIC>MOL_PROPERTY
W(PB)
SciTegic.value.DoubleValue
-66.406

@<SCITEGIC>MOL_PROPERTY
W(SA)
SciTegic.value.DoubleValue
2.093

@<SCITEGIC>MOL_PROPERTY
Valence
SciTegic.value.DoubleValue
14.072

@<SCITEGIC>MOL_PROPERTY
Coulomb
SciTegic.value.DoubleValue
-0.199

@<SCITEGIC>MOL_PROPERTY
VdW
SciTegic.value.DoubleValue
0.592

@<SCITEGIC>MOL_PROPERTY
VdW6
SciTegic.value.DoubleValue
-5.019

@<SCITEGIC>MOL_PROPERTY
VdW12
SciTegic.value.DoubleValue
5.611

@<SCITEGIC>MOL_PROPERTY
Bond
SciTegic.value.DoubleValue
0.085

@<SCITEGIC>MOL_PROPERTY
Angle
SciTegic.value.DoubleValue
2.748

@<SCITEGIC>MOL_PROPERTY
Pdih
SciTegic.value.DoubleValue
11.238

@<SCITEGIC>MOL_PROPERTY
Idih
SciTegic.value.DoubleValue
0.001

@<SCITEGIC>MOL_PROPERTY
Tether
SciTegic.value.DoubleValue
0.000

@<TRIPOS>MOLECULE
guest-s20_confgen4.mol2 : confsearch ligand conformer 471
          17          16           1
SMALL
USER_CHARGES
 
@<TRIPOS>ATOM
       1    C1      17.766452   17.183355   22.504517 C.2        1 MOL1         0.6132
       2    O1      18.091782   16.017408   22.612630 O.co2      1 MOL1        -0.6749
       3    O2      16.792310   17.554005   21.879629 O.co2      1 MOL1        -0.6749
       4    C2      18.624648   18.235149   23.195047 C.3        1 MOL1        -0.1955
       5    H1      18.906728   17.843802   24.179318 H          1 MOL1         0.0733
       6    H2      18.005339   19.123412   23.368498 H          1 MOL1         0.0733
       7    C3      19.866929   18.585634   22.398402 C.2        1 MOL1        -0.1395
       8    H3      20.609295   17.791812   22.321320 H          1 MOL1         0.0816
       9    C4      20.075454   19.769526   21.814326 C.2        1 MOL1        -0.1394
      10    H4      19.331381   20.561861   21.889295 H          1 MOL1         0.0816
      11    C5      21.313131   20.115948   21.017164 C.3        1 MOL1        -0.1826
      12    H5      21.879948   19.206948   20.772913 H          1 MOL1         0.0736
      13    H6      21.022644   20.572623   20.061339 H          1 MOL1         0.0736
      14    C6      22.219772   21.088331   21.796610 C.3        1 MOL1        -0.2882
      15    H7      22.544323   20.642528   22.746097 H          1 MOL1         0.0749
      16    H8      23.115776   21.336493   21.212934 H          1 MOL1         0.0749
      17    H9      21.689800   22.023273   22.021202 H          1 MOL1         0.0749
@<TRIPOS>BOND
    1     1     2    1
    2     1     3    2
    3     1     4    1
    4     4     5    1
    5     4     6    1
    6     4     7    1
    7     7     8    1
    8     7     9    2
    9     9    10    1
   10     9    11    1
   11    11    12    1
   12    11    13    1
   13    11    14    1
   14    14    15    1
   15    14    16    1
   16    14    17    1
@<TRIPOS>SUBSTRUCTURE
       1 MOL1            1 RESIDUE      1      MOL     
@<SCITEGIC>MOL_PROPERTY
VConf Rank
SciTegic.value.IntegerValue
471

@<SCITEGIC>MOL_PROPERTY
Conf_Id
SciTegic.value.IntegerValue
38

@<SCITEGIC>MOL_PROPERTY
Delta U+W
SciTegic.value.DoubleValue
0.000

@<SCITEGIC>MOL_PROPERTY
U+W
SciTegic.value.DoubleValue
-49.427

@<SCITEGIC>MOL_PROPERTY
Grad RMS
SciTegic.value.DoubleValue
0.000000

@<SCITEGIC>MOL_PROPERTY
U
SciTegic.value.DoubleValue
13.666

@<SCITEGIC>MOL_PROPERTY
W
SciTegic.value.DoubleValue
-63.093

@<SCITEGIC>MOL_PROPERTY
W(PB)
SciTegic.value.DoubleValue
-65.225

@<SCITEGIC>MOL_PROPERTY
W(SA)
SciTegic.value.DoubleValue
2.132

@<SCITEGIC>MOL_PROPERTY
Valence
SciTegic.value.DoubleValue
15.226

@<SCITEGIC>MOL_PROPERTY
Coulomb
SciTegic.value.DoubleValue
-1.822

@<SCITEGIC>MOL_PROPERTY
VdW
SciTegic.value.DoubleValue
0.261

@<SCITEGIC>MOL_PROPERTY
VdW6
SciTegic.value.DoubleValue
-4.165

@<SCITEGIC>MOL_PROPERTY
VdW12
SciTegic.value.DoubleValue
4.426

@<SCITEGIC>MOL_PROPERTY
Bond
SciTegic.value.DoubleValue
0.044

@<SCITEGIC>MOL_PROPERTY
Angle
SciTegic.value.DoubleValue
2.229

@<SCITEGIC>MOL_PROPERTY
Pdih
SciTegic.value.DoubleValue
12.953

@<SCITEGIC>MOL_PROPERTY
Idih
SciTegic.value.DoubleValue
0.000

@<SCITEGIC>MOL_PROPERTY
Tether
SciTegic.value.DoubleValue
0.000

@<TRIPOS>MOLECULE
guest-s20_confgen4.mol2 : confsearch ligand conformer 472
          17          16           1
SMALL
USER_CHARGES
 
@<TRIPOS>ATOM
       1    C1      21.376427   17.476486   24.372824 C.2        1 MOL1         0.6132
       2    O1      22.514133   17.191224   24.054911 O.co2      1 MOL1        -0.6749
       3    O2      20.629254   16.713205   24.952562 O.co2      1 MOL1        -0.6749
       4    C2      20.858554   18.867609   24.031961 C.3        1 MOL1        -0.1955
       5    H1      21.720179   19.537033   23.921891 H          1 MOL1         0.0733
       6    H2      20.279401   19.228861   24.889624 H          1 MOL1         0.0733
       7    C3      19.999311   18.877418   22.782022 C.2        1 MOL1        -0.1395
       8    H3      19.042982   18.362916   22.871037 H          1 MOL1         0.0816
       9    C4      20.352319   19.460621   21.632462 C.2        1 MOL1        -0.1394
      10    H4      21.310124   19.972187   21.543181 H          1 MOL1         0.0816
      11    C5      19.495948   19.465984   20.385898 C.3        1 MOL1        -0.1826
      12    H5      20.101703   19.169937   19.518748 H          1 MOL1         0.0736
      13    H6      18.686880   18.727617   20.472170 H          1 MOL1         0.0736
      14    C6      18.889267   20.860585   20.136727 C.3        1 MOL1        -0.2882
      15    H7      19.677895   21.613571   20.008251 H          1 MOL1         0.0749
      16    H8      18.269565   20.858423   19.230608 H          1 MOL1         0.0749
      17    H9      18.257586   21.167428   20.980781 H          1 MOL1         0.0749
@<TRIPOS>BOND
    1     1     2    1
    2     1     3    2
    3     1     4    1
    4     4     5    1
    5     4     6    1
    6     4     7    1
    7     7     8    1
    8     7     9    2
    9     9    10    1
   10     9    11    1
   11    11    12    1
   12    11    13    1
   13    11    14    1
   14    14    15    1
   15    14    16    1
   16    14    17    1
@<TRIPOS>SUBSTRUCTURE
       1 MOL1            1 RESIDUE      1      MOL     
@<SCITEGIC>MOL_PROPERTY
VConf Rank
SciTegic.value.IntegerValue
472

@<SCITEGIC>MOL_PROPERTY
Conf_Id
SciTegic.value.IntegerValue
35

@<SCITEGIC>MOL_PROPERTY
Delta U+W
SciTegic.value.DoubleValue
-0.102

@<SCITEGIC>MOL_PROPERTY
U+W
SciTegic.value.DoubleValue
-49.529

@<SCITEGIC>MOL_PROPERTY
Grad RMS
SciTegic.value.DoubleValue
0.000000

@<SCITEGIC>MOL_PROPERTY
U
SciTegic.value.DoubleValue
13.666

@<SCITEGIC>MOL_PROPERTY
W
SciTegic.value.DoubleValue
-63.195

@<SCITEGIC>MOL_PROPERTY
W(PB)
SciTegic.value.DoubleValue
-65.299

@<SCITEGIC>MOL_PROPERTY
W(SA)
SciTegic.value.DoubleValue
2.103

@<SCITEGIC>MOL_PROPERTY
Valence
SciTegic.value.DoubleValue
15.226

@<SCITEGIC>MOL_PROPERTY
Coulomb
SciTegic.value.DoubleValue
-1.822

@<SCITEGIC>MOL_PROPERTY
VdW
SciTegic.value.DoubleValue
0.261

@<SCITEGIC>MOL_PROPERTY
VdW6
SciTegic.value.DoubleValue
-4.165

@<SCITEGIC>MOL_PROPERTY
VdW12
SciTegic.value.DoubleValue
4.426

@<SCITEGIC>MOL_PROPERTY
Bond
SciTegic.value.DoubleValue
0.044

@<SCITEGIC>MOL_PROPERTY
Angle
SciTegic.value.DoubleValue
2.229

@<SCITEGIC>MOL_PROPERTY
Pdih
SciTegic.value.DoubleValue
12.953

@<SCITEGIC>MOL_PROPERTY
Idih
SciTegic.value.DoubleValue
0.000

@<SCITEGIC>MOL_PROPERTY
Tether
SciTegic.value.DoubleValue
0.000

@<TRIPOS>MOLECULE
guest-s20_confgen4.mol2 : confsearch ligand conformer 473
          17          16           1
SMALL
USER_CHARGES
 
@<TRIPOS>ATOM
       1    C1      19.535055   16.584067   23.584796 C.2        1 MOL1         0.6132
       2    O1      20.550091   16.008596   23.924659 O.co2      1 MOL1        -0.6749
       3    O2      18.568517   16.725357   24.307769 O.co2      1 MOL1        -0.6749
       4    C2      19.469212   17.149979   22.172315 C.3        1 MOL1        -0.1955
       5    H1      18.414177   17.232387   21.884747 H          1 MOL1         0.0733
       6    H2      19.929145   16.419151   21.497138 H          1 MOL1         0.0733
       7    C3      20.174063   18.487703   22.049502 C.2        1 MOL1        -0.1395
       8    H3      21.255303   18.444081   22.168275 H          1 MOL1         0.0816
       9    C4      19.543319   19.646161   21.819611 C.2        1 MOL1        -0.1394
      10    H4      18.459265   19.651240   21.710594 H          1 MOL1         0.0816
      11    C5      20.183645   21.017867   21.689246 C.3        1 MOL1        -0.1826
      12    H5      19.918310   21.444027   20.712266 H          1 MOL1         0.0736
      13    H6      19.739425   21.690799   22.435137 H          1 MOL1         0.0736
      14    C6      21.720193   21.037817   21.846250 C.3        1 MOL1        -0.2882
      15    H7      22.202637   20.416621   21.080244 H          1 MOL1         0.0749
      16    H8      22.104608   22.060595   21.740520 H          1 MOL1         0.0749
      17    H9      22.019897   20.666673   22.835148 H          1 MOL1         0.0749
@<TRIPOS>BOND
    1     1     2    1
    2     1     3    2
    3     1     4    1
    4     4     5    1
    5     4     6    1
    6     4     7    1
    7     7     8    1
    8     7     9    2
    9     9    10    1
   10     9    11    1
   11    11    12    1
   12    11    13    1
   13    11    14    1
   14    14    15    1
   15    14    16    1
   16    14    17    1
@<TRIPOS>SUBSTRUCTURE
       1 MOL1            1 RESIDUE      1      MOL     
@<SCITEGIC>MOL_PROPERTY
VConf Rank
SciTegic.value.IntegerValue
473

@<SCITEGIC>MOL_PROPERTY
Conf_Id
SciTegic.value.IntegerValue
19

@<SCITEGIC>MOL_PROPERTY
Delta U+W
SciTegic.value.DoubleValue
-0.496

@<SCITEGIC>MOL_PROPERTY
U+W
SciTegic.value.DoubleValue
-49.923

@<SCITEGIC>MOL_PROPERTY
Grad RMS
SciTegic.value.DoubleValue
0.000000

@<SCITEGIC>MOL_PROPERTY
U
SciTegic.value.DoubleValue
13.863

@<SCITEGIC>MOL_PROPERTY
W
SciTegic.value.DoubleValue
-63.786

@<SCITEGIC>MOL_PROPERTY
W(PB)
SciTegic.value.DoubleValue
-65.856

@<SCITEGIC>MOL_PROPERTY
W(SA)
SciTegic.value.DoubleValue
2.070

@<SCITEGIC>MOL_PROPERTY
Valence
SciTegic.value.DoubleValue
14.117

@<SCITEGIC>MOL_PROPERTY
Coulomb
SciTegic.value.DoubleValue
-1.228

@<SCITEGIC>MOL_PROPERTY
VdW
SciTegic.value.DoubleValue
0.974

@<SCITEGIC>MOL_PROPERTY
VdW6
SciTegic.value.DoubleValue
-4.885

@<SCITEGIC>MOL_PROPERTY
VdW12
SciTegic.value.DoubleValue
5.859

@<SCITEGIC>MOL_PROPERTY
Bond
SciTegic.value.DoubleValue
0.094

@<SCITEGIC>MOL_PROPERTY
Angle
SciTegic.value.DoubleValue
2.818

@<SCITEGIC>MOL_PROPERTY
Pdih
SciTegic.value.DoubleValue
11.205

@<SCITEGIC>MOL_PROPERTY
Idih
SciTegic.value.DoubleValue
0.000

@<SCITEGIC>MOL_PROPERTY
Tether
SciTegic.value.DoubleValue
0.000

@<TRIPOS>MOLECULE
guest-s20_confgen4.mol2 : confsearch ligand conformer 474
          17          16           1
SMALL
USER_CHARGES
 
@<TRIPOS>ATOM
       1    C1      21.079776   20.611330   24.530603 C.2        1 MOL1         0.6132
       2    O1      21.138699   19.763816   25.399545 O.co2      1 MOL1        -0.6749
       3    O2      21.959030   21.424587   24.324380 O.co2      1 MOL1        -0.6749
       4    C2      19.832433   20.666079   23.658269 C.3        1 MOL1        -0.1955
       5    H1      19.561589   21.720131   23.527490 H          1 MOL1         0.0733
       6    H2      19.010154   20.188860   24.204870 H          1 MOL1         0.0733
       7    C3      20.039745   20.009928   22.306511 C.2        1 MOL1        -0.1395
       8    H3      20.734296   20.523139   21.642110 H          1 MOL1         0.0816
       9    C4      19.440314   18.879542   21.920345 C.2        1 MOL1        -0.1394
      10    H4      18.749845   18.364015   22.587087 H          1 MOL1         0.0816
      11    C5      19.650672   18.225343   20.573084 C.3        1 MOL1        -0.1826
      12    H5      18.678979   17.972349   20.127742 H          1 MOL1         0.0736
      13    H6      20.143416   18.921532   19.880458 H          1 MOL1         0.0736
      14    C6      20.503530   16.948549   20.705073 C.3        1 MOL1        -0.2882
      15    H7      20.015064   16.217509   21.362649 H          1 MOL1         0.0749
      16    H8      20.653431   16.478180   19.724588 H          1 MOL1         0.0749
      17    H9      21.490604   17.181119   21.126116 H          1 MOL1         0.0749
@<TRIPOS>BOND
    1     1     2    1
    2     1     3    2
    3     1     4    1
    4     4     5    1
    5     4     6    1
    6     4     7    1
    7     7     8    1
    8     7     9    2
    9     9    10    1
   10     9    11    1
   11    11    12    1
   12    11    13    1
   13    11    14    1
   14    14    15    1
   15    14    16    1
   16    14    17    1
@<TRIPOS>SUBSTRUCTURE
       1 MOL1            1 RESIDUE      1      MOL     
@<SCITEGIC>MOL_PROPERTY
VConf Rank
SciTegic.value.IntegerValue
474

@<SCITEGIC>MOL_PROPERTY
Conf_Id
SciTegic.value.IntegerValue
7

@<SCITEGIC>MOL_PROPERTY
Delta U+W
SciTegic.value.DoubleValue
-0.041

@<SCITEGIC>MOL_PROPERTY
U+W
SciTegic.value.DoubleValue
-49.468

@<SCITEGIC>MOL_PROPERTY
Grad RMS
SciTegic.value.DoubleValue
0.000000

@<SCITEGIC>MOL_PROPERTY
U
SciTegic.value.DoubleValue
14.121

@<SCITEGIC>MOL_PROPERTY
W
SciTegic.value.DoubleValue
-63.589

@<SCITEGIC>MOL_PROPERTY
W(PB)
SciTegic.value.DoubleValue
-65.660

@<SCITEGIC>MOL_PROPERTY
W(SA)
SciTegic.value.DoubleValue
2.071

@<SCITEGIC>MOL_PROPERTY
Valence
SciTegic.value.DoubleValue
15.230

@<SCITEGIC>MOL_PROPERTY
Coulomb
SciTegic.value.DoubleValue
-1.333

@<SCITEGIC>MOL_PROPERTY
VdW
SciTegic.value.DoubleValue
0.224

@<SCITEGIC>MOL_PROPERTY
VdW6
SciTegic.value.DoubleValue
-4.212

@<SCITEGIC>MOL_PROPERTY
VdW12
SciTegic.value.DoubleValue
4.436

@<SCITEGIC>MOL_PROPERTY
Bond
SciTegic.value.DoubleValue
0.044

@<SCITEGIC>MOL_PROPERTY
Angle
SciTegic.value.DoubleValue
2.230

@<SCITEGIC>MOL_PROPERTY
Pdih
SciTegic.value.DoubleValue
12.956

@<SCITEGIC>MOL_PROPERTY
Idih
SciTegic.value.DoubleValue
0.000

@<SCITEGIC>MOL_PROPERTY
Tether
SciTegic.value.DoubleValue
0.000

@<TRIPOS>MOLECULE
guest-s20_confgen4.mol2 : confsearch ligand conformer 475
          17          16           1
SMALL
USER_CHARGES
 
@<TRIPOS>ATOM
       1    C1      21.151499   20.678224   20.119627 C.2        1 MOL1         0.6132
       2    O1      20.727482   21.793304   20.351574 O.co2      1 MOL1        -0.6749
       3    O2      20.974806   20.098556   19.066134 O.co2      1 MOL1        -0.6749
       4    C2      21.973439   19.979607   21.198481 C.3        1 MOL1        -0.1955
       5    H1      22.516706   20.749514   21.758725 H          1 MOL1         0.0733
       6    H2      22.738578   19.374456   20.698406 H          1 MOL1         0.0733
       7    C3      21.183946   19.107520   22.164421 C.2        1 MOL1        -0.1395
       8    H3      21.789781   18.618266   22.926091 H          1 MOL1         0.0816
       9    C4      19.860267   18.911319   22.145026 C.2        1 MOL1        -0.1394
      10    H4      19.231420   19.389280   21.394801 H          1 MOL1         0.0816
      11    C5      19.122785   18.031224   23.129655 C.3        1 MOL1        -0.1826
      12    H5      18.441120   17.360813   22.588913 H          1 MOL1         0.0736
      13    H6      19.827823   17.389778   23.676118 H          1 MOL1         0.0736
      14    C6      18.319337   18.878398   24.135539 C.3        1 MOL1        -0.2882
      15    H7      17.785243   18.234758   24.846546 H          1 MOL1         0.0749
      16    H8      18.984218   19.539433   24.706993 H          1 MOL1         0.0749
      17    H9      17.578956   19.502625   23.618204 H          1 MOL1         0.0749
@<TRIPOS>BOND
    1     1     2    1
    2     1     3    2
    3     1     4    1
    4     4     5    1
    5     4     6    1
    6     4     7    1
    7     7     8    1
    8     7     9    2
    9     9    10    1
   10     9    11    1
   11    11    12    1
   12    11    13    1
   13    11    14    1
   14    14    15    1
   15    14    16    1
   16    14    17    1
@<TRIPOS>SUBSTRUCTURE
       1 MOL1            1 RESIDUE      1      MOL     
@<SCITEGIC>MOL_PROPERTY
VConf Rank
SciTegic.value.IntegerValue
475

@<SCITEGIC>MOL_PROPERTY
Conf_Id
SciTegic.value.IntegerValue
39

@<SCITEGIC>MOL_PROPERTY
Delta U+W
SciTegic.value.DoubleValue
-0.422

@<SCITEGIC>MOL_PROPERTY
U+W
SciTegic.value.DoubleValue
-49.849

@<SCITEGIC>MOL_PROPERTY
Grad RMS
SciTegic.value.DoubleValue
0.000000

@<SCITEGIC>MOL_PROPERTY
U
SciTegic.value.DoubleValue
14.465

@<SCITEGIC>MOL_PROPERTY
W
SciTegic.value.DoubleValue
-64.314

@<SCITEGIC>MOL_PROPERTY
W(PB)
SciTegic.value.DoubleValue
-66.406

@<SCITEGIC>MOL_PROPERTY
W(SA)
SciTegic.value.DoubleValue
2.093

@<SCITEGIC>MOL_PROPERTY
Valence
SciTegic.value.DoubleValue
14.072

@<SCITEGIC>MOL_PROPERTY
Coulomb
SciTegic.value.DoubleValue
-0.199

@<SCITEGIC>MOL_PROPERTY
VdW
SciTegic.value.DoubleValue
0.592

@<SCITEGIC>MOL_PROPERTY
VdW6
SciTegic.value.DoubleValue
-5.019

@<SCITEGIC>MOL_PROPERTY
VdW12
SciTegic.value.DoubleValue
5.611

@<SCITEGIC>MOL_PROPERTY
Bond
SciTegic.value.DoubleValue
0.085

@<SCITEGIC>MOL_PROPERTY
Angle
SciTegic.value.DoubleValue
2.748

@<SCITEGIC>MOL_PROPERTY
Pdih
SciTegic.value.DoubleValue
11.238

@<SCITEGIC>MOL_PROPERTY
Idih
SciTegic.value.DoubleValue
0.001

@<SCITEGIC>MOL_PROPERTY
Tether
SciTegic.value.DoubleValue
0.000

@<TRIPOS>MOLECULE
guest-s20_confgen4.mol2 : confsearch ligand conformer 476
          17          16           1
SMALL
USER_CHARGES
 
@<TRIPOS>ATOM
       1    C1      20.949211   18.387788   19.185350 C.2        1 MOL1         0.6132
       2    O1      20.189112   18.690082   18.286557 O.co2      1 MOL1        -0.6749
       3    O2      21.529140   17.321506   19.244875 O.co2      1 MOL1        -0.6749
       4    C2      21.190845   19.404179   20.293576 C.3        1 MOL1        -0.1955
       5    H1      21.272953   20.393449   19.828696 H          1 MOL1         0.0733
       6    H2      22.161406   19.184872   20.754614 H          1 MOL1         0.0733
       7    C3      20.084273   19.406483   21.330994 C.2        1 MOL1        -0.1395
       8    H3      19.119080   19.770958   20.980621 H          1 MOL1         0.0816
       9    C4      20.237917   18.997234   22.593981 C.2        1 MOL1        -0.1394
      10    H4      21.202571   18.630101   22.942861 H          1 MOL1         0.0816
      11    C5      19.132385   18.996706   23.626027 C.3        1 MOL1        -0.1826
      12    H5      18.154786   19.128673   23.142181 H          1 MOL1         0.0736
      13    H6      19.102604   18.024742   24.136842 H          1 MOL1         0.0736
      14    C6      19.343058   20.116301   24.663902 C.3        1 MOL1        -0.2882
      15    H7      19.350671   21.101270   24.178743 H          1 MOL1         0.0749
      16    H8      18.538212   20.110492   25.410410 H          1 MOL1         0.0749
      17    H9      20.297488   19.987272   25.191011 H          1 MOL1         0.0749
@<TRIPOS>BOND
    1     1     2    1
    2     1     3    2
    3     1     4    1
    4     4     5    1
    5     4     6    1
    6     4     7    1
    7     7     8    1
    8     7     9    2
    9     9    10    1
   10     9    11    1
   11    11    12    1
   12    11    13    1
   13    11    14    1
   14    14    15    1
   15    14    16    1
   16    14    17    1
@<TRIPOS>SUBSTRUCTURE
       1 MOL1            1 RESIDUE      1      MOL     
@<SCITEGIC>MOL_PROPERTY
VConf Rank
SciTegic.value.IntegerValue
476

@<SCITEGIC>MOL_PROPERTY
Conf_Id
SciTegic.value.IntegerValue
38

@<SCITEGIC>MOL_PROPERTY
Delta U+W
SciTegic.value.DoubleValue
0.000

@<SCITEGIC>MOL_PROPERTY
U+W
SciTegic.value.DoubleValue
-49.427

@<SCITEGIC>MOL_PROPERTY
Grad RMS
SciTegic.value.DoubleValue
0.000000

@<SCITEGIC>MOL_PROPERTY
U
SciTegic.value.DoubleValue
13.666

@<SCITEGIC>MOL_PROPERTY
W
SciTegic.value.DoubleValue
-63.093

@<SCITEGIC>MOL_PROPERTY
W(PB)
SciTegic.value.DoubleValue
-65.225

@<SCITEGIC>MOL_PROPERTY
W(SA)
SciTegic.value.DoubleValue
2.132

@<SCITEGIC>MOL_PROPERTY
Valence
SciTegic.value.DoubleValue
15.226

@<SCITEGIC>MOL_PROPERTY
Coulomb
SciTegic.value.DoubleValue
-1.822

@<SCITEGIC>MOL_PROPERTY
VdW
SciTegic.value.DoubleValue
0.261

@<SCITEGIC>MOL_PROPERTY
VdW6
SciTegic.value.DoubleValue
-4.165

@<SCITEGIC>MOL_PROPERTY
VdW12
SciTegic.value.DoubleValue
4.426

@<SCITEGIC>MOL_PROPERTY
Bond
SciTegic.value.DoubleValue
0.044

@<SCITEGIC>MOL_PROPERTY
Angle
SciTegic.value.DoubleValue
2.229

@<SCITEGIC>MOL_PROPERTY
Pdih
SciTegic.value.DoubleValue
12.953

@<SCITEGIC>MOL_PROPERTY
Idih
SciTegic.value.DoubleValue
0.000

@<SCITEGIC>MOL_PROPERTY
Tether
SciTegic.value.DoubleValue
0.000

@<TRIPOS>MOLECULE
guest-s20_confgen4.mol2 : confsearch ligand conformer 477
          17          16           1
SMALL
USER_CHARGES
 
@<TRIPOS>ATOM
       1    C1      18.420826   21.468207   20.555289 C.2        1 MOL1         0.6132
       2    O1      18.716320   21.433756   19.377021 O.co2      1 MOL1        -0.6749
       3    O2      18.185574   22.496201   21.159313 O.co2      1 MOL1        -0.6749
       4    C2      18.334750   20.152186   21.317052 C.3        1 MOL1        -0.1955
       5    H1      18.148238   19.348881   20.594172 H          1 MOL1         0.0733
       6    H2      17.458698   20.202108   21.973975 H          1 MOL1         0.0733
       7    C3      19.582092   19.870601   22.132890 C.2        1 MOL1        -0.1395
       8    H3      19.746233   20.539270   22.977366 H          1 MOL1         0.0816
       9    C4      20.446041   18.885750   21.868526 C.2        1 MOL1        -0.1394
      10    H4      20.282977   18.219464   21.022043 H          1 MOL1         0.0816
      11    C5      21.691401   18.608929   22.680789 C.3        1 MOL1        -0.1826
      12    H5      22.552987   18.490879   22.009770 H          1 MOL1         0.0736
      13    H6      21.918233   19.459296   23.338544 H          1 MOL1         0.0736
      14    C6      21.525347   17.335379   23.532586 C.3        1 MOL1        -0.2882
      15    H7      21.335270   16.460806   22.896644 H          1 MOL1         0.0749
      16    H8      22.432319   17.139307   24.119137 H          1 MOL1         0.0749
      17    H9      20.684219   17.440086   24.230541 H          1 MOL1         0.0749
@<TRIPOS>BOND
    1     1     2    1
    2     1     3    2
    3     1     4    1
    4     4     5    1
    5     4     6    1
    6     4     7    1
    7     7     8    1
    8     7     9    2
    9     9    10    1
   10     9    11    1
   11    11    12    1
   12    11    13    1
   13    11    14    1
   14    14    15    1
   15    14    16    1
   16    14    17    1
@<TRIPOS>SUBSTRUCTURE
       1 MOL1            1 RESIDUE      1      MOL     
@<SCITEGIC>MOL_PROPERTY
VConf Rank
SciTegic.value.IntegerValue
477

@<SCITEGIC>MOL_PROPERTY
Conf_Id
SciTegic.value.IntegerValue
35

@<SCITEGIC>MOL_PROPERTY
Delta U+W
SciTegic.value.DoubleValue
-0.102

@<SCITEGIC>MOL_PROPERTY
U+W
SciTegic.value.DoubleValue
-49.529

@<SCITEGIC>MOL_PROPERTY
Grad RMS
SciTegic.value.DoubleValue
0.000000

@<SCITEGIC>MOL_PROPERTY
U
SciTegic.value.DoubleValue
13.666

@<SCITEGIC>MOL_PROPERTY
W
SciTegic.value.DoubleValue
-63.195

@<SCITEGIC>MOL_PROPERTY
W(PB)
SciTegic.value.DoubleValue
-65.299

@<SCITEGIC>MOL_PROPERTY
W(SA)
SciTegic.value.DoubleValue
2.103

@<SCITEGIC>MOL_PROPERTY
Valence
SciTegic.value.DoubleValue
15.226

@<SCITEGIC>MOL_PROPERTY
Coulomb
SciTegic.value.DoubleValue
-1.822

@<SCITEGIC>MOL_PROPERTY
VdW
SciTegic.value.DoubleValue
0.261

@<SCITEGIC>MOL_PROPERTY
VdW6
SciTegic.value.DoubleValue
-4.165

@<SCITEGIC>MOL_PROPERTY
VdW12
SciTegic.value.DoubleValue
4.426

@<SCITEGIC>MOL_PROPERTY
Bond
SciTegic.value.DoubleValue
0.044

@<SCITEGIC>MOL_PROPERTY
Angle
SciTegic.value.DoubleValue
2.229

@<SCITEGIC>MOL_PROPERTY
Pdih
SciTegic.value.DoubleValue
12.953

@<SCITEGIC>MOL_PROPERTY
Idih
SciTegic.value.DoubleValue
0.000

@<SCITEGIC>MOL_PROPERTY
Tether
SciTegic.value.DoubleValue
0.000

@<TRIPOS>MOLECULE
guest-s20_confgen4.mol2 : confsearch ligand conformer 478
          17          16           1
SMALL
USER_CHARGES
 
@<TRIPOS>ATOM
       1    C1      19.359039   21.040885   24.250165 C.2        1 MOL1         0.6132
       2    O1      18.922474   22.040029   23.713421 O.co2      1 MOL1        -0.6749
       3    O2      18.813768   20.487187   25.184481 O.co2      1 MOL1        -0.6749
       4    C2      20.665688   20.458019   23.728025 C.3        1 MOL1        -0.1955
       5    H1      21.128049   19.876119   24.534375 H          1 MOL1         0.0733
       6    H2      21.340578   21.293292   23.508134 H          1 MOL1         0.0733
       7    C3      20.467385   19.608457   22.486927 C.2        1 MOL1        -0.1395
       8    H3      20.158954   20.162197   21.601867 H          1 MOL1         0.0816
       9    C4      20.644285   18.281689   22.453684 C.2        1 MOL1        -0.1394
      10    H4      20.949161   17.760927   23.360846 H          1 MOL1         0.0816
      11    C5      20.460429   17.371433   21.251094 C.3        1 MOL1        -0.1826
      12    H5      21.399782   16.833853   21.063666 H          1 MOL1         0.0736
      13    H6      19.721994   16.597239   21.499807 H          1 MOL1         0.0736
      14    C6      20.022064   18.085754   19.953555 C.3        1 MOL1        -0.2882
      15    H7      20.765760   18.831691   19.643883 H          1 MOL1         0.0749
      16    H8      19.910395   17.362771   19.135109 H          1 MOL1         0.0749
      17    H9      19.057058   18.591579   20.089181 H          1 MOL1         0.0749
@<TRIPOS>BOND
    1     1     2    1
    2     1     3    2
    3     1     4    1
    4     4     5    1
    5     4     6    1
    6     4     7    1
    7     7     8    1
    8     7     9    2
    9     9    10    1
   10     9    11    1
   11    11    12    1
   12    11    13    1
   13    11    14    1
   14    14    15    1
   15    14    16    1
   16    14    17    1
@<TRIPOS>SUBSTRUCTURE
       1 MOL1            1 RESIDUE      1      MOL     
@<SCITEGIC>MOL_PROPERTY
VConf Rank
SciTegic.value.IntegerValue
478

@<SCITEGIC>MOL_PROPERTY
Conf_Id
SciTegic.value.IntegerValue
19

@<SCITEGIC>MOL_PROPERTY
Delta U+W
SciTegic.value.DoubleValue
-0.496

@<SCITEGIC>MOL_PROPERTY
U+W
SciTegic.value.DoubleValue
-49.923

@<SCITEGIC>MOL_PROPERTY
Grad RMS
SciTegic.value.DoubleValue
0.000000

@<SCITEGIC>MOL_PROPERTY
U
SciTegic.value.DoubleValue
13.863

@<SCITEGIC>MOL_PROPERTY
W
SciTegic.value.DoubleValue
-63.786

@<SCITEGIC>MOL_PROPERTY
W(PB)
SciTegic.value.DoubleValue
-65.856

@<SCITEGIC>MOL_PROPERTY
W(SA)
SciTegic.value.DoubleValue
2.070

@<SCITEGIC>MOL_PROPERTY
Valence
SciTegic.value.DoubleValue
14.117

@<SCITEGIC>MOL_PROPERTY
Coulomb
SciTegic.value.DoubleValue
-1.228

@<SCITEGIC>MOL_PROPERTY
VdW
SciTegic.value.DoubleValue
0.974

@<SCITEGIC>MOL_PROPERTY
VdW6
SciTegic.value.DoubleValue
-4.885

@<SCITEGIC>MOL_PROPERTY
VdW12
SciTegic.value.DoubleValue
5.859

@<SCITEGIC>MOL_PROPERTY
Bond
SciTegic.value.DoubleValue
0.094

@<SCITEGIC>MOL_PROPERTY
Angle
SciTegic.value.DoubleValue
2.818

@<SCITEGIC>MOL_PROPERTY
Pdih
SciTegic.value.DoubleValue
11.205

@<SCITEGIC>MOL_PROPERTY
Idih
SciTegic.value.DoubleValue
0.000

@<SCITEGIC>MOL_PROPERTY
Tether
SciTegic.value.DoubleValue
0.000

@<TRIPOS>MOLECULE
guest-s20_confgen4.mol2 : confsearch ligand conformer 479
          17          16           1
SMALL
USER_CHARGES
 
@<TRIPOS>ATOM
       1    C1      18.769822   19.558925   24.751284 C.2        1 MOL1         0.6132
       2    O1      18.355901   18.453152   25.038942 O.co2      1 MOL1        -0.6749
       3    O2      19.330456   20.293040   25.541072 O.co2      1 MOL1        -0.6749
       4    C2      18.566513   20.058402   23.326848 C.3        1 MOL1        -0.1955
       5    H1      18.264444   21.110680   23.381169 H          1 MOL1         0.0733
       6    H2      17.727927   19.506125   22.885919 H          1 MOL1         0.0733
       7    C3      19.815952   19.918253   22.478306 C.2        1 MOL1        -0.1395
       8    H3      20.648014   20.560125   22.766210 H          1 MOL1         0.0816
       9    C4      19.933591   19.075199   21.447948 C.2        1 MOL1        -0.1394
      10    H4      19.103008   18.429901   21.163729 H          1 MOL1         0.0816
      11    C5      21.181383   18.934905   20.604936 C.3        1 MOL1        -0.1826
      12    H5      20.914862   18.965412   19.539780 H          1 MOL1         0.0736
      13    H6      21.862932   19.777935   20.783824 H          1 MOL1         0.0736
      14    C6      21.912425   17.613933   20.914129 C.3        1 MOL1        -0.2882
      15    H7      21.266239   16.750868   20.706791 H          1 MOL1         0.0749
      16    H8      22.817232   17.517479   20.300054 H          1 MOL1         0.0749
      17    H9      22.210876   17.571674   21.969981 H          1 MOL1         0.0749
@<TRIPOS>BOND
    1     1     2    1
    2     1     3    2
    3     1     4    1
    4     4     5    1
    5     4     6    1
    6     4     7    1
    7     7     8    1
    8     7     9    2
    9     9    10    1
   10     9    11    1
   11    11    12    1
   12    11    13    1
   13    11    14    1
   14    14    15    1
   15    14    16    1
   16    14    17    1
@<TRIPOS>SUBSTRUCTURE
       1 MOL1            1 RESIDUE      1      MOL     
@<SCITEGIC>MOL_PROPERTY
VConf Rank
SciTegic.value.IntegerValue
479

@<SCITEGIC>MOL_PROPERTY
Conf_Id
SciTegic.value.IntegerValue
7

@<SCITEGIC>MOL_PROPERTY
Delta U+W
SciTegic.value.DoubleValue
-0.041

@<SCITEGIC>MOL_PROPERTY
U+W
SciTegic.value.DoubleValue
-49.468

@<SCITEGIC>MOL_PROPERTY
Grad RMS
SciTegic.value.DoubleValue
0.000000

@<SCITEGIC>MOL_PROPERTY
U
SciTegic.value.DoubleValue
14.121

@<SCITEGIC>MOL_PROPERTY
W
SciTegic.value.DoubleValue
-63.589

@<SCITEGIC>MOL_PROPERTY
W(PB)
SciTegic.value.DoubleValue
-65.660

@<SCITEGIC>MOL_PROPERTY
W(SA)
SciTegic.value.DoubleValue
2.071

@<SCITEGIC>MOL_PROPERTY
Valence
SciTegic.value.DoubleValue
15.230

@<SCITEGIC>MOL_PROPERTY
Coulomb
SciTegic.value.DoubleValue
-1.333

@<SCITEGIC>MOL_PROPERTY
VdW
SciTegic.value.DoubleValue
0.224

@<SCITEGIC>MOL_PROPERTY
VdW6
SciTegic.value.DoubleValue
-4.212

@<SCITEGIC>MOL_PROPERTY
VdW12
SciTegic.value.DoubleValue
4.436

@<SCITEGIC>MOL_PROPERTY
Bond
SciTegic.value.DoubleValue
0.044

@<SCITEGIC>MOL_PROPERTY
Angle
SciTegic.value.DoubleValue
2.230

@<SCITEGIC>MOL_PROPERTY
Pdih
SciTegic.value.DoubleValue
12.956

@<SCITEGIC>MOL_PROPERTY
Idih
SciTegic.value.DoubleValue
0.000

@<SCITEGIC>MOL_PROPERTY
Tether
SciTegic.value.DoubleValue
0.000

@<TRIPOS>MOLECULE
guest-s20_confgen4.mol2 : confsearch ligand conformer 480
          17          16           1
SMALL
USER_CHARGES
 
@<TRIPOS>ATOM
       1    C1      19.508924   17.212923   23.997752 C.2        1 MOL1         0.6132
       2    O1      20.190534   17.507424   24.959869 O.co2      1 MOL1        -0.6749
       3    O2      19.550471   16.127470   23.452641 O.co2      1 MOL1        -0.6749
       4    C2      18.528295   18.251940   23.462600 C.3        1 MOL1        -0.1955
       5    H1      18.183761   18.856782   24.309495 H          1 MOL1         0.0733
       6    H2      17.644084   17.719858   23.092762 H          1 MOL1         0.0733
       7    C3      19.068658   19.164292   22.370584 C.2        1 MOL1        -0.1395
       8    H3      18.352543   19.898128   22.002876 H          1 MOL1         0.0816
       9    C4      20.304027   19.130396   21.857056 C.2        1 MOL1        -0.1394
      10    H4      21.039550   18.407281   22.207545 H          1 MOL1         0.0816
      11    C5      20.791788   20.061074   20.768998 C.3        1 MOL1        -0.1826
      12    H5      21.294645   19.481068   19.983347 H          1 MOL1         0.0736
      13    H6      19.944719   20.571571   20.290436 H          1 MOL1         0.0736
      14    C6      21.766538   21.111923   21.335226 C.3        1 MOL1        -0.2882
      15    H7      22.118269   21.783501   20.541295 H          1 MOL1         0.0749
      16    H8      21.277294   21.722010   22.105959 H          1 MOL1         0.0749
      17    H9      22.643308   20.629430   21.786815 H          1 MOL1         0.0749
@<TRIPOS>BOND
    1     1     2    1
    2     1     3    2
    3     1     4    1
    4     4     5    1
    5     4     6    1
    6     4     7    1
    7     7     8    1
    8     7     9    2
    9     9    10    1
   10     9    11    1
   11    11    12    1
   12    11    13    1
   13    11    14    1
   14    14    15    1
   15    14    16    1
   16    14    17    1
@<TRIPOS>SUBSTRUCTURE
       1 MOL1            1 RESIDUE      1      MOL     
@<SCITEGIC>MOL_PROPERTY
VConf Rank
SciTegic.value.IntegerValue
480

@<SCITEGIC>MOL_PROPERTY
Conf_Id
SciTegic.value.IntegerValue
39

@<SCITEGIC>MOL_PROPERTY
Delta U+W
SciTegic.value.DoubleValue
-0.422

@<SCITEGIC>MOL_PROPERTY
U+W
SciTegic.value.DoubleValue
-49.849

@<SCITEGIC>MOL_PROPERTY
Grad RMS
SciTegic.value.DoubleValue
0.000000

@<SCITEGIC>MOL_PROPERTY
U
SciTegic.value.DoubleValue
14.465

@<SCITEGIC>MOL_PROPERTY
W
SciTegic.value.DoubleValue
-64.314

@<SCITEGIC>MOL_PROPERTY
W(PB)
SciTegic.value.DoubleValue
-66.406

@<SCITEGIC>MOL_PROPERTY
W(SA)
SciTegic.value.DoubleValue
2.093

@<SCITEGIC>MOL_PROPERTY
Valence
SciTegic.value.DoubleValue
14.072

@<SCITEGIC>MOL_PROPERTY
Coulomb
SciTegic.value.DoubleValue
-0.199

@<SCITEGIC>MOL_PROPERTY
VdW
SciTegic.value.DoubleValue
0.592

@<SCITEGIC>MOL_PROPERTY
VdW6
SciTegic.value.DoubleValue
-5.019

@<SCITEGIC>MOL_PROPERTY
VdW12
SciTegic.value.DoubleValue
5.611

@<SCITEGIC>MOL_PROPERTY
Bond
SciTegic.value.DoubleValue
0.085

@<SCITEGIC>MOL_PROPERTY
Angle
SciTegic.value.DoubleValue
2.748

@<SCITEGIC>MOL_PROPERTY
Pdih
SciTegic.value.DoubleValue
11.238

@<SCITEGIC>MOL_PROPERTY
Idih
SciTegic.value.DoubleValue
0.001

@<SCITEGIC>MOL_PROPERTY
Tether
SciTegic.value.DoubleValue
0.000

@<TRIPOS>MOLECULE
guest-s20_confgen4.mol2 : confsearch ligand conformer 481
          17          16           1
SMALL
USER_CHARGES
 
@<TRIPOS>ATOM
       1    C1      22.642275   20.728308   23.323666 C.2        1 MOL1         0.6132
       2    O1      22.795463   21.895517   23.021809 O.co2      1 MOL1        -0.6749
       3    O2      23.555398   19.931033   23.409565 O.co2      1 MOL1        -0.6749
       4    C2      21.228803   20.241666   23.615009 C.3        1 MOL1        -0.1955
       5    H1      20.719878   21.019434   24.196027 H          1 MOL1         0.0733
       6    H2      21.296667   19.354805   24.256500 H          1 MOL1         0.0733
       7    C3      20.446331   19.939862   22.351127 C.2        1 MOL1        -0.1395
       8    H3      20.199330   20.806694   21.738922 H          1 MOL1         0.0816
       9    C4      20.068924   18.713824   21.976132 C.2        1 MOL1        -0.1394
      10    H4      20.318825   17.847147   22.587263 H          1 MOL1         0.0816
      11    C5      19.291990   18.414364   20.713587 C.3        1 MOL1        -0.1826
      12    H5      19.305988   19.281414   20.038865 H          1 MOL1         0.0736
      13    H6      19.769104   17.586106   20.172397 H          1 MOL1         0.0736
      14    C6      17.831581   18.043205   21.036862 C.3        1 MOL1        -0.2882
      15    H7      17.325616   18.867679   21.556326 H          1 MOL1         0.0749
      16    H8      17.273095   17.826392   20.116987 H          1 MOL1         0.0749
      17    H9      17.786443   17.154660   21.680196 H          1 MOL1         0.0749
@<TRIPOS>BOND
    1     1     2    1
    2     1     3    2
    3     1     4    1
    4     4     5    1
    5     4     6    1
    6     4     7    1
    7     7     8    1
    8     7     9    2
    9     9    10    1
   10     9    11    1
   11    11    12    1
   12    11    13    1
   13    11    14    1
   14    14    15    1
   15    14    16    1
   16    14    17    1
@<TRIPOS>SUBSTRUCTURE
       1 MOL1            1 RESIDUE      1      MOL     
@<SCITEGIC>MOL_PROPERTY
VConf Rank
SciTegic.value.IntegerValue
481

@<SCITEGIC>MOL_PROPERTY
Conf_Id
SciTegic.value.IntegerValue
38

@<SCITEGIC>MOL_PROPERTY
Delta U+W
SciTegic.value.DoubleValue
0.000

@<SCITEGIC>MOL_PROPERTY
U+W
SciTegic.value.DoubleValue
-49.427

@<SCITEGIC>MOL_PROPERTY
Grad RMS
SciTegic.value.DoubleValue
0.000000

@<SCITEGIC>MOL_PROPERTY
U
SciTegic.value.DoubleValue
13.666

@<SCITEGIC>MOL_PROPERTY
W
SciTegic.value.DoubleValue
-63.093

@<SCITEGIC>MOL_PROPERTY
W(PB)
SciTegic.value.DoubleValue
-65.225

@<SCITEGIC>MOL_PROPERTY
W(SA)
SciTegic.value.DoubleValue
2.132

@<SCITEGIC>MOL_PROPERTY
Valence
SciTegic.value.DoubleValue
15.226

@<SCITEGIC>MOL_PROPERTY
Coulomb
SciTegic.value.DoubleValue
-1.822

@<SCITEGIC>MOL_PROPERTY
VdW
SciTegic.value.DoubleValue
0.261

@<SCITEGIC>MOL_PROPERTY
VdW6
SciTegic.value.DoubleValue
-4.165

@<SCITEGIC>MOL_PROPERTY
VdW12
SciTegic.value.DoubleValue
4.426

@<SCITEGIC>MOL_PROPERTY
Bond
SciTegic.value.DoubleValue
0.044

@<SCITEGIC>MOL_PROPERTY
Angle
SciTegic.value.DoubleValue
2.229

@<SCITEGIC>MOL_PROPERTY
Pdih
SciTegic.value.DoubleValue
12.953

@<SCITEGIC>MOL_PROPERTY
Idih
SciTegic.value.DoubleValue
0.000

@<SCITEGIC>MOL_PROPERTY
Tether
SciTegic.value.DoubleValue
0.000

@<TRIPOS>MOLECULE
guest-s20_confgen4.mol2 : confsearch ligand conformer 482
          17          16           1
SMALL
USER_CHARGES
 
@<TRIPOS>ATOM
       1    C1      19.079015   21.839133   23.651147 C.2        1 MOL1         0.6132
       2    O1      18.902772   21.556677   24.819896 O.co2      1 MOL1        -0.6749
       3    O2      18.365972   22.601857   23.029229 O.co2      1 MOL1        -0.6749
       4    C2      20.260382   21.208273   22.925893 C.3        1 MOL1        -0.1955
       5    H1      21.008348   20.920169   23.674346 H          1 MOL1         0.0733
       6    H2      20.717768   21.980118   22.296163 H          1 MOL1         0.0733
       7    C3      19.853267   20.018224   22.078081 C.2        1 MOL1        -0.1395
       8    H3      19.235178   20.253759   21.212235 H          1 MOL1         0.0816
       9    C4      20.202896   18.755034   22.339504 C.2        1 MOL1        -0.1394
      10    H4      20.818322   18.519858   23.207261 H          1 MOL1         0.0816
      11    C5      19.792715   17.569186   21.495207 C.3        1 MOL1        -0.1826
      12    H5      19.399845   16.772390   22.141197 H          1 MOL1         0.0736
      13    H6      18.980891   17.848057   20.809355 H          1 MOL1         0.0736
      14    C6      20.985144   17.029733   20.681473 C.3        1 MOL1        -0.2882
      15    H7      21.798248   16.707145   21.344968 H          1 MOL1         0.0749
      16    H8      20.681578   16.169033   20.071449 H          1 MOL1         0.0749
      17    H9      21.379185   17.802459   20.008253 H          1 MOL1         0.0749
@<TRIPOS>BOND
    1     1     2    1
    2     1     3    2
    3     1     4    1
    4     4     5    1
    5     4     6    1
    6     4     7    1
    7     7     8    1
    8     7     9    2
    9     9    10    1
   10     9    11    1
   11    11    12    1
   12    11    13    1
   13    11    14    1
   14    14    15    1
   15    14    16    1
   16    14    17    1
@<TRIPOS>SUBSTRUCTURE
       1 MOL1            1 RESIDUE      1      MOL     
@<SCITEGIC>MOL_PROPERTY
VConf Rank
SciTegic.value.IntegerValue
482

@<SCITEGIC>MOL_PROPERTY
Conf_Id
SciTegic.value.IntegerValue
35

@<SCITEGIC>MOL_PROPERTY
Delta U+W
SciTegic.value.DoubleValue
-0.102

@<SCITEGIC>MOL_PROPERTY
U+W
SciTegic.value.DoubleValue
-49.529

@<SCITEGIC>MOL_PROPERTY
Grad RMS
SciTegic.value.DoubleValue
0.000000

@<SCITEGIC>MOL_PROPERTY
U
SciTegic.value.DoubleValue
13.666

@<SCITEGIC>MOL_PROPERTY
W
SciTegic.value.DoubleValue
-63.195

@<SCITEGIC>MOL_PROPERTY
W(PB)
SciTegic.value.DoubleValue
-65.299

@<SCITEGIC>MOL_PROPERTY
W(SA)
SciTegic.value.DoubleValue
2.103

@<SCITEGIC>MOL_PROPERTY
Valence
SciTegic.value.DoubleValue
15.226

@<SCITEGIC>MOL_PROPERTY
Coulomb
SciTegic.value.DoubleValue
-1.822

@<SCITEGIC>MOL_PROPERTY
VdW
SciTegic.value.DoubleValue
0.261

@<SCITEGIC>MOL_PROPERTY
VdW6
SciTegic.value.DoubleValue
-4.165

@<SCITEGIC>MOL_PROPERTY
VdW12
SciTegic.value.DoubleValue
4.426

@<SCITEGIC>MOL_PROPERTY
Bond
SciTegic.value.DoubleValue
0.044

@<SCITEGIC>MOL_PROPERTY
Angle
SciTegic.value.DoubleValue
2.229

@<SCITEGIC>MOL_PROPERTY
Pdih
SciTegic.value.DoubleValue
12.953

@<SCITEGIC>MOL_PROPERTY
Idih
SciTegic.value.DoubleValue
0.000

@<SCITEGIC>MOL_PROPERTY
Tether
SciTegic.value.DoubleValue
0.000

@<TRIPOS>MOLECULE
guest-s20_confgen4.mol2 : confsearch ligand conformer 483
          17          16           1
SMALL
USER_CHARGES
 
@<TRIPOS>ATOM
       1    C1      17.536649   19.131097   23.424016 C.2        1 MOL1         0.6132
       2    O1      17.241436   18.014485   23.802166 O.co2      1 MOL1        -0.6749
       3    O2      17.363896   20.133401   24.089142 O.co2      1 MOL1        -0.6749
       4    C2      18.147528   19.281272   22.036944 C.3        1 MOL1        -0.1955
       5    H1      17.955329   20.302401   21.686314 H          1 MOL1         0.0733
       6    H2      17.612834   18.604359   21.360630 H          1 MOL1         0.0733
       7    C3      19.631973   18.968982   22.019513 C.2        1 MOL1        -0.1395
       8    H3      19.878813   17.925118   22.205279 H          1 MOL1         0.0816
       9    C4      20.585303   19.883549   21.801704 C.2        1 MOL1        -0.1394
      10    H4      20.300102   20.919928   21.623760 H          1 MOL1         0.0816
      11    C5      22.085165   19.642213   21.774127 C.3        1 MOL1        -0.1826
      12    H5      22.480881   19.966629   20.802186 H          1 MOL1         0.0736
      13    H6      22.564295   20.291512   22.519357 H          1 MOL1         0.0736
      14    C6      22.515320   18.180876   22.030035 C.3        1 MOL1        -0.2882
      15    H7      22.097531   17.508221   21.269516 H          1 MOL1         0.0749
      16    H8      23.608711   18.089788   21.995010 H          1 MOL1         0.0749
      17    H9      22.181097   17.839290   23.018521 H          1 MOL1         0.0749
@<TRIPOS>BOND
    1     1     2    1
    2     1     3    2
    3     1     4    1
    4     4     5    1
    5     4     6    1
    6     4     7    1
    7     7     8    1
    8     7     9    2
    9     9    10    1
   10     9    11    1
   11    11    12    1
   12    11    13    1
   13    11    14    1
   14    14    15    1
   15    14    16    1
   16    14    17    1
@<TRIPOS>SUBSTRUCTURE
       1 MOL1            1 RESIDUE      1      MOL     
@<SCITEGIC>MOL_PROPERTY
VConf Rank
SciTegic.value.IntegerValue
483

@<SCITEGIC>MOL_PROPERTY
Conf_Id
SciTegic.value.IntegerValue
19

@<SCITEGIC>MOL_PROPERTY
Delta U+W
SciTegic.value.DoubleValue
-0.496

@<SCITEGIC>MOL_PROPERTY
U+W
SciTegic.value.DoubleValue
-49.923

@<SCITEGIC>MOL_PROPERTY
Grad RMS
SciTegic.value.DoubleValue
0.000000

@<SCITEGIC>MOL_PROPERTY
U
SciTegic.value.DoubleValue
13.863

@<SCITEGIC>MOL_PROPERTY
W
SciTegic.value.DoubleValue
-63.786

@<SCITEGIC>MOL_PROPERTY
W(PB)
SciTegic.value.DoubleValue
-65.856

@<SCITEGIC>MOL_PROPERTY
W(SA)
SciTegic.value.DoubleValue
2.070

@<SCITEGIC>MOL_PROPERTY
Valence
SciTegic.value.DoubleValue
14.117

@<SCITEGIC>MOL_PROPERTY
Coulomb
SciTegic.value.DoubleValue
-1.228

@<SCITEGIC>MOL_PROPERTY
VdW
SciTegic.value.DoubleValue
0.974

@<SCITEGIC>MOL_PROPERTY
VdW6
SciTegic.value.DoubleValue
-4.885

@<SCITEGIC>MOL_PROPERTY
VdW12
SciTegic.value.DoubleValue
5.859

@<SCITEGIC>MOL_PROPERTY
Bond
SciTegic.value.DoubleValue
0.094

@<SCITEGIC>MOL_PROPERTY
Angle
SciTegic.value.DoubleValue
2.818

@<SCITEGIC>MOL_PROPERTY
Pdih
SciTegic.value.DoubleValue
11.205

@<SCITEGIC>MOL_PROPERTY
Idih
SciTegic.value.DoubleValue
0.000

@<SCITEGIC>MOL_PROPERTY
Tether
SciTegic.value.DoubleValue
0.000

@<TRIPOS>MOLECULE
guest-s20_confgen4.mol2 : confsearch ligand conformer 484
          17          16           1
SMALL
USER_CHARGES
 
@<TRIPOS>ATOM
       1    C1      21.750240   21.314661   23.221902 C.2        1 MOL1         0.6132
       2    O1      22.062834   21.889960   22.198120 O.co2      1 MOL1        -0.6749
       3    O2      21.322036   21.882050   24.207657 O.co2      1 MOL1        -0.6749
       4    C2      21.913216   19.801377   23.278809 C.3        1 MOL1        -0.1955
       5    H1      22.327447   19.546156   24.261030 H          1 MOL1         0.0733
       6    H2      22.658822   19.508098   22.530002 H          1 MOL1         0.0733
       7    C3      20.604074   19.067515   23.058905 C.2        1 MOL1        -0.1395
       8    H3      19.864565   19.188548   23.849913 H          1 MOL1         0.0816
       9    C4      20.332258   18.322002   21.983478 C.2        1 MOL1        -0.1394
      10    H4      21.070175   18.205518   21.190402 H          1 MOL1         0.0816
      11    C5      19.025091   17.593430   21.764774 C.3        1 MOL1        -0.1826
      12    H5      19.224398   16.555191   21.466683 H          1 MOL1         0.0736
      13    H6      18.449161   17.548249   22.699371 H          1 MOL1         0.0736
      14    C6      18.180169   18.286838   20.678365 C.3        1 MOL1        -0.2882
      15    H7      18.717067   18.311544   19.720996 H          1 MOL1         0.0749
      16    H8      17.232685   17.754369   20.524035 H          1 MOL1         0.0749
      17    H9      17.947339   19.320502   20.966480 H          1 MOL1         0.0749
@<TRIPOS>BOND
    1     1     2    1
    2     1     3    2
    3     1     4    1
    4     4     5    1
    5     4     6    1
    6     4     7    1
    7     7     8    1
    8     7     9    2
    9     9    10    1
   10     9    11    1
   11    11    12    1
   12    11    13    1
   13    11    14    1
   14    14    15    1
   15    14    16    1
   16    14    17    1
@<TRIPOS>SUBSTRUCTURE
       1 MOL1            1 RESIDUE      1      MOL     
@<SCITEGIC>MOL_PROPERTY
VConf Rank
SciTegic.value.IntegerValue
484

@<SCITEGIC>MOL_PROPERTY
Conf_Id
SciTegic.value.IntegerValue
7

@<SCITEGIC>MOL_PROPERTY
Delta U+W
SciTegic.value.DoubleValue
-0.041

@<SCITEGIC>MOL_PROPERTY
U+W
SciTegic.value.DoubleValue
-49.468

@<SCITEGIC>MOL_PROPERTY
Grad RMS
SciTegic.value.DoubleValue
0.000000

@<SCITEGIC>MOL_PROPERTY
U
SciTegic.value.DoubleValue
14.121

@<SCITEGIC>MOL_PROPERTY
W
SciTegic.value.DoubleValue
-63.589

@<SCITEGIC>MOL_PROPERTY
W(PB)
SciTegic.value.DoubleValue
-65.660

@<SCITEGIC>MOL_PROPERTY
W(SA)
SciTegic.value.DoubleValue
2.071

@<SCITEGIC>MOL_PROPERTY
Valence
SciTegic.value.DoubleValue
15.230

@<SCITEGIC>MOL_PROPERTY
Coulomb
SciTegic.value.DoubleValue
-1.333

@<SCITEGIC>MOL_PROPERTY
VdW
SciTegic.value.DoubleValue
0.224

@<SCITEGIC>MOL_PROPERTY
VdW6
SciTegic.value.DoubleValue
-4.212

@<SCITEGIC>MOL_PROPERTY
VdW12
SciTegic.value.DoubleValue
4.436

@<SCITEGIC>MOL_PROPERTY
Bond
SciTegic.value.DoubleValue
0.044

@<SCITEGIC>MOL_PROPERTY
Angle
SciTegic.value.DoubleValue
2.230

@<SCITEGIC>MOL_PROPERTY
Pdih
SciTegic.value.DoubleValue
12.956

@<SCITEGIC>MOL_PROPERTY
Idih
SciTegic.value.DoubleValue
0.000

@<SCITEGIC>MOL_PROPERTY
Tether
SciTegic.value.DoubleValue
0.000

@<TRIPOS>MOLECULE
guest-s20_confgen4.mol2 : confsearch ligand conformer 485
          17          16           1
SMALL
USER_CHARGES
 
@<TRIPOS>ATOM
       1    C1      21.832858   20.865074   23.746439 C.2        1 MOL1         0.6132
       2    O1      22.277552   20.055094   24.535852 O.co2      1 MOL1        -0.6749
       3    O2      21.309433   21.909990   24.079997 O.co2      1 MOL1        -0.6749
       4    C2      21.963607   20.567249   22.255875 C.3        1 MOL1        -0.1955
       5    H1      22.885227   19.992515   22.107332 H          1 MOL1         0.0733
       6    H2      22.115305   21.519945   21.735224 H          1 MOL1         0.0733
       7    C3      20.792405   19.824064   21.629105 C.2        1 MOL1        -0.1395
       8    H3      20.906179   19.621845   20.564817 H          1 MOL1         0.0816
       9    C4      19.686555   19.419366   22.264959 C.2        1 MOL1        -0.1394
      10    H4      19.548215   19.608001   23.328919 H          1 MOL1         0.0816
      11    C5      18.548154   18.683647   21.593615 C.3        1 MOL1        -0.1826
      12    H5      17.592306   19.149022   21.869841 H          1 MOL1         0.0736
      13    H6      18.631528   18.759953   20.500738 H          1 MOL1         0.0736
      14    C6      18.532655   17.197504   22.001260 C.3        1 MOL1        -0.2882
      15    H7      17.703961   16.668975   21.512399 H          1 MOL1         0.0749
      16    H8      19.469824   16.704129   21.711621 H          1 MOL1         0.0749
      17    H9      18.411642   17.090699   23.087265 H          1 MOL1         0.0749
@<TRIPOS>BOND
    1     1     2    1
    2     1     3    2
    3     1     4    1
    4     4     5    1
    5     4     6    1
    6     4     7    1
    7     7     8    1
    8     7     9    2
    9     9    10    1
   10     9    11    1
   11    11    12    1
   12    11    13    1
   13    11    14    1
   14    14    15    1
   15    14    16    1
   16    14    17    1
@<TRIPOS>SUBSTRUCTURE
       1 MOL1            1 RESIDUE      1      MOL     
@<SCITEGIC>MOL_PROPERTY
VConf Rank
SciTegic.value.IntegerValue
485

@<SCITEGIC>MOL_PROPERTY
Conf_Id
SciTegic.value.IntegerValue
39

@<SCITEGIC>MOL_PROPERTY
Delta U+W
SciTegic.value.DoubleValue
-0.422

@<SCITEGIC>MOL_PROPERTY
U+W
SciTegic.value.DoubleValue
-49.849

@<SCITEGIC>MOL_PROPERTY
Grad RMS
SciTegic.value.DoubleValue
0.000000

@<SCITEGIC>MOL_PROPERTY
U
SciTegic.value.DoubleValue
14.465

@<SCITEGIC>MOL_PROPERTY
W
SciTegic.value.DoubleValue
-64.314

@<SCITEGIC>MOL_PROPERTY
W(PB)
SciTegic.value.DoubleValue
-66.406

@<SCITEGIC>MOL_PROPERTY
W(SA)
SciTegic.value.DoubleValue
2.093

@<SCITEGIC>MOL_PROPERTY
Valence
SciTegic.value.DoubleValue
14.072

@<SCITEGIC>MOL_PROPERTY
Coulomb
SciTegic.value.DoubleValue
-0.199

@<SCITEGIC>MOL_PROPERTY
VdW
SciTegic.value.DoubleValue
0.592

@<SCITEGIC>MOL_PROPERTY
VdW6
SciTegic.value.DoubleValue
-5.019

@<SCITEGIC>MOL_PROPERTY
VdW12
SciTegic.value.DoubleValue
5.611

@<SCITEGIC>MOL_PROPERTY
Bond
SciTegic.value.DoubleValue
0.085

@<SCITEGIC>MOL_PROPERTY
Angle
SciTegic.value.DoubleValue
2.748

@<SCITEGIC>MOL_PROPERTY
Pdih
SciTegic.value.DoubleValue
11.238

@<SCITEGIC>MOL_PROPERTY
Idih
SciTegic.value.DoubleValue
0.001

@<SCITEGIC>MOL_PROPERTY
Tether
SciTegic.value.DoubleValue
0.000

@<TRIPOS>MOLECULE
guest-s20_confgen4.mol2 : confsearch ligand conformer 486
          17          16           1
SMALL
USER_CHARGES
 
@<TRIPOS>ATOM
       1    C1      22.659131   17.552389   21.362506 C.2        1 MOL1         0.6132
       2    O1      22.814381   17.292109   20.185598 O.co2      1 MOL1        -0.6749
       3    O2      22.881767   16.764004   22.260114 O.co2      1 MOL1        -0.6749
       4    C2      22.163668   18.944748   21.730553 C.3        1 MOL1        -0.1955
       5    H1      22.676843   19.664940   21.082878 H          1 MOL1         0.0733
       6    H2      22.476233   19.159263   22.759594 H          1 MOL1         0.0733
       7    C3      20.661119   19.085714   21.578170 C.2        1 MOL1        -0.1395
       8    H3      20.291662   19.044661   20.553955 H          1 MOL1         0.0816
       9    C4      19.814491   19.247636   22.599557 C.2        1 MOL1        -0.1394
      10    H4      20.184306   19.285615   23.623694 H          1 MOL1         0.0816
      11    C5      18.316134   19.384246   22.445987 C.3        1 MOL1        -0.1826
      12    H5      18.003951   19.081435   21.436994 H          1 MOL1         0.0736
      13    H6      17.808455   18.709731   23.148716 H          1 MOL1         0.0736
      14    C6      17.862544   20.833854   22.706666 C.3        1 MOL1        -0.2882
      15    H7      18.338283   21.524621   21.998066 H          1 MOL1         0.0749
      16    H8      16.774480   20.926601   22.594411 H          1 MOL1         0.0749
      17    H9      18.128268   21.150543   23.723783 H          1 MOL1         0.0749
@<TRIPOS>BOND
    1     1     2    1
    2     1     3    2
    3     1     4    1
    4     4     5    1
    5     4     6    1
    6     4     7    1
    7     7     8    1
    8     7     9    2
    9     9    10    1
   10     9    11    1
   11    11    12    1
   12    11    13    1
   13    11    14    1
   14    14    15    1
   15    14    16    1
   16    14    17    1
@<TRIPOS>SUBSTRUCTURE
       1 MOL1            1 RESIDUE      1      MOL     
@<SCITEGIC>MOL_PROPERTY
VConf Rank
SciTegic.value.IntegerValue
486

@<SCITEGIC>MOL_PROPERTY
Conf_Id
SciTegic.value.IntegerValue
38

@<SCITEGIC>MOL_PROPERTY
Delta U+W
SciTegic.value.DoubleValue
0.000

@<SCITEGIC>MOL_PROPERTY
U+W
SciTegic.value.DoubleValue
-49.427

@<SCITEGIC>MOL_PROPERTY
Grad RMS
SciTegic.value.DoubleValue
0.000000

@<SCITEGIC>MOL_PROPERTY
U
SciTegic.value.DoubleValue
13.666

@<SCITEGIC>MOL_PROPERTY
W
SciTegic.value.DoubleValue
-63.093

@<SCITEGIC>MOL_PROPERTY
W(PB)
SciTegic.value.DoubleValue
-65.225

@<SCITEGIC>MOL_PROPERTY
W(SA)
SciTegic.value.DoubleValue
2.132

@<SCITEGIC>MOL_PROPERTY
Valence
SciTegic.value.DoubleValue
15.226

@<SCITEGIC>MOL_PROPERTY
Coulomb
SciTegic.value.DoubleValue
-1.822

@<SCITEGIC>MOL_PROPERTY
VdW
SciTegic.value.DoubleValue
0.261

@<SCITEGIC>MOL_PROPERTY
VdW6
SciTegic.value.DoubleValue
-4.165

@<SCITEGIC>MOL_PROPERTY
VdW12
SciTegic.value.DoubleValue
4.426

@<SCITEGIC>MOL_PROPERTY
Bond
SciTegic.value.DoubleValue
0.044

@<SCITEGIC>MOL_PROPERTY
Angle
SciTegic.value.DoubleValue
2.229

@<SCITEGIC>MOL_PROPERTY
Pdih
SciTegic.value.DoubleValue
12.953

@<SCITEGIC>MOL_PROPERTY
Idih
SciTegic.value.DoubleValue
0.000

@<SCITEGIC>MOL_PROPERTY
Tether
SciTegic.value.DoubleValue
0.000

@<TRIPOS>MOLECULE
guest-s20_confgen4.mol2 : confsearch ligand conformer 487
          17          16           1
SMALL
USER_CHARGES
 
@<TRIPOS>ATOM
       1    C1      21.942826   21.826446   22.251980 C.2        1 MOL1         0.6132
       2    O1      21.986946   22.349097   21.155756 O.co2      1 MOL1        -0.6749
       3    O2      22.894316   21.764010   23.005458 O.co2      1 MOL1        -0.6749
       4    C2      20.622815   21.220889   22.710757 C.3        1 MOL1        -0.1955
       5    H1      19.810864   21.710145   22.159392 H          1 MOL1         0.0733
       6    H2      20.488757   21.472554   23.769153 H          1 MOL1         0.0733
       7    C3      20.577710   19.716355   22.523438 C.2        1 MOL1        -0.1395
       8    H3      21.251219   19.147580   23.163815 H          1 MOL1         0.0816
       9    C4      19.786141   19.092102   21.645968 C.2        1 MOL1        -0.1394
      10    H4      19.115215   19.661676   21.003703 H          1 MOL1         0.0816
      11    C5      19.745379   17.592019   21.457787 C.3        1 MOL1        -0.1826
      12    H5      19.810043   17.350719   20.388149 H          1 MOL1         0.0736
      13    H6      20.612483   17.120366   21.940377 H          1 MOL1         0.0736
      14    C6      18.449793   16.995601   22.041570 C.3        1 MOL1        -0.2882
      15    H7      17.565800   17.422103   21.549552 H          1 MOL1         0.0749
      16    H8      18.425613   15.907087   21.901430 H          1 MOL1         0.0749
      17    H9      18.375606   17.202354   23.117372 H          1 MOL1         0.0749
@<TRIPOS>BOND
    1     1     2    1
    2     1     3    2
    3     1     4    1
    4     4     5    1
    5     4     6    1
    6     4     7    1
    7     7     8    1
    8     7     9    2
    9     9    10    1
   10     9    11    1
   11    11    12    1
   12    11    13    1
   13    11    14    1
   14    14    15    1
   15    14    16    1
   16    14    17    1
@<TRIPOS>SUBSTRUCTURE
       1 MOL1            1 RESIDUE      1      MOL     
@<SCITEGIC>MOL_PROPERTY
VConf Rank
SciTegic.value.IntegerValue
487

@<SCITEGIC>MOL_PROPERTY
Conf_Id
SciTegic.value.IntegerValue
35

@<SCITEGIC>MOL_PROPERTY
Delta U+W
SciTegic.value.DoubleValue
-0.102

@<SCITEGIC>MOL_PROPERTY
U+W
SciTegic.value.DoubleValue
-49.529

@<SCITEGIC>MOL_PROPERTY
Grad RMS
SciTegic.value.DoubleValue
0.000000

@<SCITEGIC>MOL_PROPERTY
U
SciTegic.value.DoubleValue
13.666

@<SCITEGIC>MOL_PROPERTY
W
SciTegic.value.DoubleValue
-63.195

@<SCITEGIC>MOL_PROPERTY
W(PB)
SciTegic.value.DoubleValue
-65.299

@<SCITEGIC>MOL_PROPERTY
W(SA)
SciTegic.value.DoubleValue
2.103

@<SCITEGIC>MOL_PROPERTY
Valence
SciTegic.value.DoubleValue
15.226

@<SCITEGIC>MOL_PROPERTY
Coulomb
SciTegic.value.DoubleValue
-1.822

@<SCITEGIC>MOL_PROPERTY
VdW
SciTegic.value.DoubleValue
0.261

@<SCITEGIC>MOL_PROPERTY
VdW6
SciTegic.value.DoubleValue
-4.165

@<SCITEGIC>MOL_PROPERTY
VdW12
SciTegic.value.DoubleValue
4.426

@<SCITEGIC>MOL_PROPERTY
Bond
SciTegic.value.DoubleValue
0.044

@<SCITEGIC>MOL_PROPERTY
Angle
SciTegic.value.DoubleValue
2.229

@<SCITEGIC>MOL_PROPERTY
Pdih
SciTegic.value.DoubleValue
12.953

@<SCITEGIC>MOL_PROPERTY
Idih
SciTegic.value.DoubleValue
0.000

@<SCITEGIC>MOL_PROPERTY
Tether
SciTegic.value.DoubleValue
0.000

@<TRIPOS>MOLECULE
guest-s20_confgen4.mol2 : confsearch ligand conformer 488
          17          16           1
SMALL
USER_CHARGES
 
@<TRIPOS>ATOM
       1    C1      23.092158   19.762394   22.023147 C.2        1 MOL1         0.6132
       2    O1      23.711124   19.153275   22.873339 O.co2      1 MOL1        -0.6749
       3    O2      23.453644   19.856332   20.866708 O.co2      1 MOL1        -0.6749
       4    C2      21.798114   20.452808   22.433601 C.3        1 MOL1        -0.1955
       5    H1      21.606965   21.270390   21.728189 H          1 MOL1         0.0733
       6    H2      21.959630   20.909327   23.416969 H          1 MOL1         0.0733
       7    C3      20.622442   19.495766   22.490808 C.2        1 MOL1        -0.1395
       8    H3      20.680539   18.751662   23.283287 H          1 MOL1         0.0816
       9    C4      19.585376   19.534953   21.644835 C.2        1 MOL1        -0.1394
      10    H4      19.564096   20.291556   20.861136 H          1 MOL1         0.0816
      11    C5      18.380835   18.608852   21.642171 C.3        1 MOL1        -0.1826
      12    H5      17.467678   19.210987   21.742592 H          1 MOL1         0.0736
      13    H6      18.307229   18.122834   20.659883 H          1 MOL1         0.0736
      14    C6      18.390744   17.522955   22.740696 C.3        1 MOL1        -0.2882
      15    H7      18.409218   17.974740   23.741172 H          1 MOL1         0.0749
      16    H8      17.491625   16.897024   22.671229 H          1 MOL1         0.0749
      17    H9      19.265448   16.867265   22.638458 H          1 MOL1         0.0749
@<TRIPOS>BOND
    1     1     2    1
    2     1     3    2
    3     1     4    1
    4     4     5    1
    5     4     6    1
    6     4     7    1
    7     7     8    1
    8     7     9    2
    9     9    10    1
   10     9    11    1
   11    11    12    1
   12    11    13    1
   13    11    14    1
   14    14    15    1
   15    14    16    1
   16    14    17    1
@<TRIPOS>SUBSTRUCTURE
       1 MOL1            1 RESIDUE      1      MOL     
@<SCITEGIC>MOL_PROPERTY
VConf Rank
SciTegic.value.IntegerValue
488

@<SCITEGIC>MOL_PROPERTY
Conf_Id
SciTegic.value.IntegerValue
19

@<SCITEGIC>MOL_PROPERTY
Delta U+W
SciTegic.value.DoubleValue
-0.496

@<SCITEGIC>MOL_PROPERTY
U+W
SciTegic.value.DoubleValue
-49.923

@<SCITEGIC>MOL_PROPERTY
Grad RMS
SciTegic.value.DoubleValue
0.000000

@<SCITEGIC>MOL_PROPERTY
U
SciTegic.value.DoubleValue
13.863

@<SCITEGIC>MOL_PROPERTY
W
SciTegic.value.DoubleValue
-63.786

@<SCITEGIC>MOL_PROPERTY
W(PB)
SciTegic.value.DoubleValue
-65.856

@<SCITEGIC>MOL_PROPERTY
W(SA)
SciTegic.value.DoubleValue
2.070

@<SCITEGIC>MOL_PROPERTY
Valence
SciTegic.value.DoubleValue
14.117

@<SCITEGIC>MOL_PROPERTY
Coulomb
SciTegic.value.DoubleValue
-1.228

@<SCITEGIC>MOL_PROPERTY
VdW
SciTegic.value.DoubleValue
0.974

@<SCITEGIC>MOL_PROPERTY
VdW6
SciTegic.value.DoubleValue
-4.885

@<SCITEGIC>MOL_PROPERTY
VdW12
SciTegic.value.DoubleValue
5.859

@<SCITEGIC>MOL_PROPERTY
Bond
SciTegic.value.DoubleValue
0.094

@<SCITEGIC>MOL_PROPERTY
Angle
SciTegic.value.DoubleValue
2.818

@<SCITEGIC>MOL_PROPERTY
Pdih
SciTegic.value.DoubleValue
11.205

@<SCITEGIC>MOL_PROPERTY
Idih
SciTegic.value.DoubleValue
0.000

@<SCITEGIC>MOL_PROPERTY
Tether
SciTegic.value.DoubleValue
0.000

@<TRIPOS>MOLECULE
guest-s20_confgen4.mol2 : confsearch ligand conformer 489
          17          16           1
SMALL
USER_CHARGES
 
@<TRIPOS>ATOM
       1    C1      21.094242   17.937259   19.667799 C.2        1 MOL1         0.6132
       2    O1      22.200070   18.429277   19.558825 O.co2      1 MOL1        -0.6749
       3    O2      20.861079   16.759623   19.478561 O.co2      1 MOL1        -0.6749
       4    C2      19.933867   18.846017   20.051876 C.3        1 MOL1        -0.1955
       5    H1      19.072041   18.567249   19.434600 H          1 MOL1         0.0733
       6    H2      20.200913   19.875393   19.784063 H          1 MOL1         0.0733
       7    C3      19.576775   18.742045   21.522400 C.2        1 MOL1        -0.1395
       8    H3      19.153931   17.786708   21.831835 H          1 MOL1         0.0816
       9    C4      19.758424   19.723877   22.410782 C.2        1 MOL1        -0.1394
      10    H4      20.186064   20.677149   22.101822 H          1 MOL1         0.0816
      11    C5      19.404375   19.617116   23.877271 C.3        1 MOL1        -0.1826
      12    H5      18.832950   20.502798   24.186404 H          1 MOL1         0.0736
      13    H6      18.757470   18.746811   24.054159 H          1 MOL1         0.0736
      14    C6      20.672033   19.494763   24.745064 C.3        1 MOL1        -0.2882
      15    H7      21.320254   20.371644   24.617334 H          1 MOL1         0.0749
      16    H8      20.409349   19.417161   25.808099 H          1 MOL1         0.0749
      17    H9      21.247740   18.601121   24.470026 H          1 MOL1         0.0749
@<TRIPOS>BOND
    1     1     2    1
    2     1     3    2
    3     1     4    1
    4     4     5    1
    5     4     6    1
    6     4     7    1
    7     7     8    1
    8     7     9    2
    9     9    10    1
   10     9    11    1
   11    11    12    1
   12    11    13    1
   13    11    14    1
   14    14    15    1
   15    14    16    1
   16    14    17    1
@<TRIPOS>SUBSTRUCTURE
       1 MOL1            1 RESIDUE      1      MOL     
@<SCITEGIC>MOL_PROPERTY
VConf Rank
SciTegic.value.IntegerValue
489

@<SCITEGIC>MOL_PROPERTY
Conf_Id
SciTegic.value.IntegerValue
7

@<SCITEGIC>MOL_PROPERTY
Delta U+W
SciTegic.value.DoubleValue
-0.041

@<SCITEGIC>MOL_PROPERTY
U+W
SciTegic.value.DoubleValue
-49.468

@<SCITEGIC>MOL_PROPERTY
Grad RMS
SciTegic.value.DoubleValue
0.000000

@<SCITEGIC>MOL_PROPERTY
U
SciTegic.value.DoubleValue
14.121

@<SCITEGIC>MOL_PROPERTY
W
SciTegic.value.DoubleValue
-63.589

@<SCITEGIC>MOL_PROPERTY
W(PB)
SciTegic.value.DoubleValue
-65.660

@<SCITEGIC>MOL_PROPERTY
W(SA)
SciTegic.value.DoubleValue
2.071

@<SCITEGIC>MOL_PROPERTY
Valence
SciTegic.value.DoubleValue
15.230

@<SCITEGIC>MOL_PROPERTY
Coulomb
SciTegic.value.DoubleValue
-1.333

@<SCITEGIC>MOL_PROPERTY
VdW
SciTegic.value.DoubleValue
0.224

@<SCITEGIC>MOL_PROPERTY
VdW6
SciTegic.value.DoubleValue
-4.212

@<SCITEGIC>MOL_PROPERTY
VdW12
SciTegic.value.DoubleValue
4.436

@<SCITEGIC>MOL_PROPERTY
Bond
SciTegic.value.DoubleValue
0.044

@<SCITEGIC>MOL_PROPERTY
Angle
SciTegic.value.DoubleValue
2.230

@<SCITEGIC>MOL_PROPERTY
Pdih
SciTegic.value.DoubleValue
12.956

@<SCITEGIC>MOL_PROPERTY
Idih
SciTegic.value.DoubleValue
0.000

@<SCITEGIC>MOL_PROPERTY
Tether
SciTegic.value.DoubleValue
0.000

@<TRIPOS>MOLECULE
guest-s20_confgen4.mol2 : confsearch ligand conformer 490
          17          16           1
SMALL
USER_CHARGES
 
@<TRIPOS>ATOM
       1    C1      19.281944   20.425175   19.904024 C.2        1 MOL1         0.6132
       2    O1      18.075899   20.334895   20.023602 O.co2      1 MOL1        -0.6749
       3    O2      19.894584   20.003963   18.942601 O.co2      1 MOL1        -0.6749
       4    C2      20.065963   21.129812   21.006920 C.3        1 MOL1        -0.1955
       5    H1      19.421488   21.907229   21.433585 H          1 MOL1         0.0733
       6    H2      20.904658   21.657455   20.537982 H          1 MOL1         0.0733
       7    C3      20.586537   20.231310   22.119831 C.2        1 MOL1        -0.1395
       8    H3      21.143245   20.754353   22.896393 H          1 MOL1         0.0816
       9    C4      20.414095   18.907071   22.207298 C.2        1 MOL1        -0.1394
      10    H4      19.860739   18.360018   21.444892 H          1 MOL1         0.0816
      11    C5      20.954668   18.058113   23.336454 C.3        1 MOL1        -0.1826
      12    H5      21.464143   17.176005   22.925553 H          1 MOL1         0.0736
      13    H6      21.705844   18.616037   23.912310 H          1 MOL1         0.0736
      14    C6      19.822856   17.604904   24.279130 C.3        1 MOL1        -0.2882
      15    H7      20.220548   16.988228   25.095593 H          1 MOL1         0.0749
      16    H8      19.314655   18.471286   24.722647 H          1 MOL1         0.0749
      17    H9      19.075539   17.011217   23.736442 H          1 MOL1         0.0749
@<TRIPOS>BOND
    1     1     2    1
    2     1     3    2
    3     1     4    1
    4     4     5    1
    5     4     6    1
    6     4     7    1
    7     7     8    1
    8     7     9    2
    9     9    10    1
   10     9    11    1
   11    11    12    1
   12    11    13    1
   13    11    14    1
   14    14    15    1
   15    14    16    1
   16    14    17    1
@<TRIPOS>SUBSTRUCTURE
       1 MOL1            1 RESIDUE      1      MOL     
@<SCITEGIC>MOL_PROPERTY
VConf Rank
SciTegic.value.IntegerValue
490

@<SCITEGIC>MOL_PROPERTY
Conf_Id
SciTegic.value.IntegerValue
39

@<SCITEGIC>MOL_PROPERTY
Delta U+W
SciTegic.value.DoubleValue
-0.422

@<SCITEGIC>MOL_PROPERTY
U+W
SciTegic.value.DoubleValue
-49.849

@<SCITEGIC>MOL_PROPERTY
Grad RMS
SciTegic.value.DoubleValue
0.000000

@<SCITEGIC>MOL_PROPERTY
U
SciTegic.value.DoubleValue
14.465

@<SCITEGIC>MOL_PROPERTY
W
SciTegic.value.DoubleValue
-64.314

@<SCITEGIC>MOL_PROPERTY
W(PB)
SciTegic.value.DoubleValue
-66.406

@<SCITEGIC>MOL_PROPERTY
W(SA)
SciTegic.value.DoubleValue
2.093

@<SCITEGIC>MOL_PROPERTY
Valence
SciTegic.value.DoubleValue
14.072

@<SCITEGIC>MOL_PROPERTY
Coulomb
SciTegic.value.DoubleValue
-0.199

@<SCITEGIC>MOL_PROPERTY
VdW
SciTegic.value.DoubleValue
0.592

@<SCITEGIC>MOL_PROPERTY
VdW6
SciTegic.value.DoubleValue
-5.019

@<SCITEGIC>MOL_PROPERTY
VdW12
SciTegic.value.DoubleValue
5.611

@<SCITEGIC>MOL_PROPERTY
Bond
SciTegic.value.DoubleValue
0.085

@<SCITEGIC>MOL_PROPERTY
Angle
SciTegic.value.DoubleValue
2.748

@<SCITEGIC>MOL_PROPERTY
Pdih
SciTegic.value.DoubleValue
11.238

@<SCITEGIC>MOL_PROPERTY
Idih
SciTegic.value.DoubleValue
0.001

@<SCITEGIC>MOL_PROPERTY
Tether
SciTegic.value.DoubleValue
0.000

@<TRIPOS>MOLECULE
guest-s20_confgen4.mol2 : confsearch ligand conformer 491
          17          16           1
SMALL
USER_CHARGES
 
@<TRIPOS>ATOM
       1    C1      18.959452   21.586327   20.275979 C.2        1 MOL1         0.6132
       2    O1      18.272783   22.423937   20.827208 O.co2      1 MOL1        -0.6749
       3    O2      18.715561   21.136945   19.173531 O.co2      1 MOL1        -0.6749
       4    C2      20.195430   21.077474   21.006069 C.3        1 MOL1        -0.1955
       5    H1      20.676804   21.936097   21.488308 H          1 MOL1         0.0733
       6    H2      20.900381   20.691966   20.259698 H          1 MOL1         0.0733
       7    C3      19.864397   20.017750   22.039581 C.2        1 MOL1        -0.1395
       8    H3      19.297208   20.369306   22.900921 H          1 MOL1         0.0816
       9    C4      20.220849   18.733569   21.939343 C.2        1 MOL1        -0.1394
      10    H4      20.785431   18.382106   21.076336 H          1 MOL1         0.0816
      11    C5      19.886615   17.677509   22.969075 C.3        1 MOL1        -0.1826
      12    H5      19.113736   18.044034   23.658668 H          1 MOL1         0.0736
      13    H6      19.469711   16.792156   22.470199 H          1 MOL1         0.0736
      14    C6      21.137343   17.272741   23.773377 C.3        1 MOL1        -0.2882
      15    H7      21.557584   18.138226   24.302466 H          1 MOL1         0.0749
      16    H8      20.888722   16.505831   24.518442 H          1 MOL1         0.0749
      17    H9      21.913706   16.866137   23.112042 H          1 MOL1         0.0749
@<TRIPOS>BOND
    1     1     2    1
    2     1     3    2
    3     1     4    1
    4     4     5    1
    5     4     6    1
    6     4     7    1
    7     7     8    1
    8     7     9    2
    9     9    10    1
   10     9    11    1
   11    11    12    1
   12    11    13    1
   13    11    14    1
   14    14    15    1
   15    14    16    1
   16    14    17    1
@<TRIPOS>SUBSTRUCTURE
       1 MOL1            1 RESIDUE      1      MOL     
@<SCITEGIC>MOL_PROPERTY
VConf Rank
SciTegic.value.IntegerValue
491

@<SCITEGIC>MOL_PROPERTY
Conf_Id
SciTegic.value.IntegerValue
38

@<SCITEGIC>MOL_PROPERTY
Delta U+W
SciTegic.value.DoubleValue
0.000

@<SCITEGIC>MOL_PROPERTY
U+W
SciTegic.value.DoubleValue
-49.427

@<SCITEGIC>MOL_PROPERTY
Grad RMS
SciTegic.value.DoubleValue
0.000000

@<SCITEGIC>MOL_PROPERTY
U
SciTegic.value.DoubleValue
13.666

@<SCITEGIC>MOL_PROPERTY
W
SciTegic.value.DoubleValue
-63.093

@<SCITEGIC>MOL_PROPERTY
W(PB)
SciTegic.value.DoubleValue
-65.225

@<SCITEGIC>MOL_PROPERTY
W(SA)
SciTegic.value.DoubleValue
2.132

@<SCITEGIC>MOL_PROPERTY
Valence
SciTegic.value.DoubleValue
15.226

@<SCITEGIC>MOL_PROPERTY
Coulomb
SciTegic.value.DoubleValue
-1.822

@<SCITEGIC>MOL_PROPERTY
VdW
SciTegic.value.DoubleValue
0.261

@<SCITEGIC>MOL_PROPERTY
VdW6
SciTegic.value.DoubleValue
-4.165

@<SCITEGIC>MOL_PROPERTY
VdW12
SciTegic.value.DoubleValue
4.426

@<SCITEGIC>MOL_PROPERTY
Bond
SciTegic.value.DoubleValue
0.044

@<SCITEGIC>MOL_PROPERTY
Angle
SciTegic.value.DoubleValue
2.229

@<SCITEGIC>MOL_PROPERTY
Pdih
SciTegic.value.DoubleValue
12.953

@<SCITEGIC>MOL_PROPERTY
Idih
SciTegic.value.DoubleValue
0.000

@<SCITEGIC>MOL_PROPERTY
Tether
SciTegic.value.DoubleValue
0.000

@<TRIPOS>MOLECULE
guest-s20_confgen4.mol2 : confsearch ligand conformer 492
          17          16           1
SMALL
USER_CHARGES
 
@<TRIPOS>ATOM
       1    C1      18.799948   21.598724   23.816512 C.2        1 MOL1         0.6132
       2    O1      19.622366   22.008127   24.612022 O.co2      1 MOL1        -0.6749
       3    O2      17.614965   21.498099   24.066809 O.co2      1 MOL1        -0.6749
       4    C2      19.277272   21.194303   22.427912 C.3        1 MOL1        -0.1955
       5    H1      20.217407   21.719902   22.221681 H          1 MOL1         0.0733
       6    H2      18.540948   21.557478   21.701663 H          1 MOL1         0.0733
       7    C3      19.451063   19.694029   22.287494 C.2        1 MOL1        -0.1395
       8    H3      18.529270   19.114002   22.320191 H          1 MOL1         0.0816
       9    C4      20.631295   19.085580   22.135604 C.2        1 MOL1        -0.1394
      10    H4      21.552922   19.665923   22.106185 H          1 MOL1         0.0816
      11    C5      20.803013   17.589128   21.999714 C.3        1 MOL1        -0.1826
      12    H5      21.591857   17.243123   22.681284 H          1 MOL1         0.0736
      13    H6      19.881411   17.068178   22.293789 H          1 MOL1         0.0736
      14    C6      21.167961   17.202620   20.553171 C.3        1 MOL1        -0.2882
      15    H7      22.107537   17.679975   20.245342 H          1 MOL1         0.0749
      16    H8      21.291942   16.115785   20.460947 H          1 MOL1         0.0749
      17    H9      20.380347   17.516127   19.855334 H          1 MOL1         0.0749
@<TRIPOS>BOND
    1     1     2    1
    2     1     3    2
    3     1     4    1
    4     4     5    1
    5     4     6    1
    6     4     7    1
    7     7     8    1
    8     7     9    2
    9     9    10    1
   10     9    11    1
   11    11    12    1
   12    11    13    1
   13    11    14    1
   14    14    15    1
   15    14    16    1
   16    14    17    1
@<TRIPOS>SUBSTRUCTURE
       1 MOL1            1 RESIDUE      1      MOL     
@<SCITEGIC>MOL_PROPERTY
VConf Rank
SciTegic.value.IntegerValue
492

@<SCITEGIC>MOL_PROPERTY
Conf_Id
SciTegic.value.IntegerValue
35

@<SCITEGIC>MOL_PROPERTY
Delta U+W
SciTegic.value.DoubleValue
-0.102

@<SCITEGIC>MOL_PROPERTY
U+W
SciTegic.value.DoubleValue
-49.529

@<SCITEGIC>MOL_PROPERTY
Grad RMS
SciTegic.value.DoubleValue
0.000000

@<SCITEGIC>MOL_PROPERTY
U
SciTegic.value.DoubleValue
13.666

@<SCITEGIC>MOL_PROPERTY
W
SciTegic.value.DoubleValue
-63.195

@<SCITEGIC>MOL_PROPERTY
W(PB)
SciTegic.value.DoubleValue
-65.299

@<SCITEGIC>MOL_PROPERTY
W(SA)
SciTegic.value.DoubleValue
2.103

@<SCITEGIC>MOL_PROPERTY
Valence
SciTegic.value.DoubleValue
15.226

@<SCITEGIC>MOL_PROPERTY
Coulomb
SciTegic.value.DoubleValue
-1.822

@<SCITEGIC>MOL_PROPERTY
VdW
SciTegic.value.DoubleValue
0.261

@<SCITEGIC>MOL_PROPERTY
VdW6
SciTegic.value.DoubleValue
-4.165

@<SCITEGIC>MOL_PROPERTY
VdW12
SciTegic.value.DoubleValue
4.426

@<SCITEGIC>MOL_PROPERTY
Bond
SciTegic.value.DoubleValue
0.044

@<SCITEGIC>MOL_PROPERTY
Angle
SciTegic.value.DoubleValue
2.229

@<SCITEGIC>MOL_PROPERTY
Pdih
SciTegic.value.DoubleValue
12.953

@<SCITEGIC>MOL_PROPERTY
Idih
SciTegic.value.DoubleValue
0.000

@<SCITEGIC>MOL_PROPERTY
Tether
SciTegic.value.DoubleValue
0.000

@<TRIPOS>MOLECULE
guest-s20_confgen4.mol2 : confsearch ligand conformer 493
          17          16           1
SMALL
USER_CHARGES
 
@<TRIPOS>ATOM
       1    C1      20.788951   16.204196   22.277824 C.2        1 MOL1         0.6132
       2    O1      21.986901   16.019785   22.366591 O.co2      1 MOL1        -0.6749
       3    O2      19.966107   15.608541   22.944887 O.co2      1 MOL1        -0.6749
       4    C2      20.293510   17.231375   21.268302 C.3        1 MOL1        -0.1955
       5    H1      19.259421   16.980485   21.003161 H          1 MOL1         0.0733
       6    H2      20.893368   17.121816   20.357437 H          1 MOL1         0.0733
       7    C3      20.393429   18.652548   21.789539 C.2        1 MOL1        -0.1395
       8    H3      21.410501   19.017184   21.922562 H          1 MOL1         0.0816
       9    C4      19.333948   19.419017   22.077181 C.2        1 MOL1        -0.1394
      10    H4      18.330831   19.018077   21.935443 H          1 MOL1         0.0816
      11    C5      19.360867   20.843857   22.604150 C.3        1 MOL1        -0.1826
      12    H5      18.805025   21.490758   21.912006 H          1 MOL1         0.0736
      13    H6      18.808614   20.883388   23.552820 H          1 MOL1         0.0736
      14    C6      20.772487   21.432926   22.819452 C.3        1 MOL1        -0.2882
      15    H7      21.336223   21.459444   21.877698 H          1 MOL1         0.0749
      16    H8      20.706772   22.460214   23.200755 H          1 MOL1         0.0749
      17    H9      21.339909   20.839510   23.548410 H          1 MOL1         0.0749
@<TRIPOS>BOND
    1     1     2    1
    2     1     3    2
    3     1     4    1
    4     4     5    1
    5     4     6    1
    6     4     7    1
    7     7     8    1
    8     7     9    2
    9     9    10    1
   10     9    11    1
   11    11    12    1
   12    11    13    1
   13    11    14    1
   14    14    15    1
   15    14    16    1
   16    14    17    1
@<TRIPOS>SUBSTRUCTURE
       1 MOL1            1 RESIDUE      1      MOL     
@<SCITEGIC>MOL_PROPERTY
VConf Rank
SciTegic.value.IntegerValue
493

@<SCITEGIC>MOL_PROPERTY
Conf_Id
SciTegic.value.IntegerValue
19

@<SCITEGIC>MOL_PROPERTY
Delta U+W
SciTegic.value.DoubleValue
-0.496

@<SCITEGIC>MOL_PROPERTY
U+W
SciTegic.value.DoubleValue
-49.923

@<SCITEGIC>MOL_PROPERTY
Grad RMS
SciTegic.value.DoubleValue
0.000000

@<SCITEGIC>MOL_PROPERTY
U
SciTegic.value.DoubleValue
13.863

@<SCITEGIC>MOL_PROPERTY
W
SciTegic.value.DoubleValue
-63.786

@<SCITEGIC>MOL_PROPERTY
W(PB)
SciTegic.value.DoubleValue
-65.856

@<SCITEGIC>MOL_PROPERTY
W(SA)
SciTegic.value.DoubleValue
2.070

@<SCITEGIC>MOL_PROPERTY
Valence
SciTegic.value.DoubleValue
14.117

@<SCITEGIC>MOL_PROPERTY
Coulomb
SciTegic.value.DoubleValue
-1.228

@<SCITEGIC>MOL_PROPERTY
VdW
SciTegic.value.DoubleValue
0.974

@<SCITEGIC>MOL_PROPERTY
VdW6
SciTegic.value.DoubleValue
-4.885

@<SCITEGIC>MOL_PROPERTY
VdW12
SciTegic.value.DoubleValue
5.859

@<SCITEGIC>MOL_PROPERTY
Bond
SciTegic.value.DoubleValue
0.094

@<SCITEGIC>MOL_PROPERTY
Angle
SciTegic.value.DoubleValue
2.818

@<SCITEGIC>MOL_PROPERTY
Pdih
SciTegic.value.DoubleValue
11.205

@<SCITEGIC>MOL_PROPERTY
Idih
SciTegic.value.DoubleValue
0.000

@<SCITEGIC>MOL_PROPERTY
Tether
SciTegic.value.DoubleValue
0.000

@<TRIPOS>MOLECULE
guest-s20_confgen4.mol2 : confsearch ligand conformer 494
          17          16           1
SMALL
USER_CHARGES
 
@<TRIPOS>ATOM
       1    C1      20.321578   19.261907   19.287121 C.2        1 MOL1         0.6132
       2    O1      20.838551   18.204299   18.985434 O.co2      1 MOL1        -0.6749
       3    O2      19.349669   19.720798   18.719833 O.co2      1 MOL1        -0.6749
       4    C2      20.929516   20.062827   20.431134 C.3        1 MOL1        -0.1955
       5    H1      20.936234   21.117979   20.134328 H          1 MOL1         0.0733
       6    H2      21.975784   19.755430   20.547262 H          1 MOL1         0.0733
       7    C3      20.165284   19.891964   21.730179 C.2        1 MOL1        -0.1395
       8    H3      19.162302   20.317597   21.739084 H          1 MOL1         0.0816
       9    C4      20.646286   19.264539   22.807765 C.2        1 MOL1        -0.1394
      10    H4      21.647336   18.834616   22.796543 H          1 MOL1         0.0816
      11    C5      19.881461   19.092699   24.101151 C.3        1 MOL1        -0.1826
      12    H5      20.517874   19.379129   24.949360 H          1 MOL1         0.0736
      13    H6      19.008223   19.759179   24.122806 H          1 MOL1         0.0736
      14    C6      19.414497   17.634777   24.278349 C.3        1 MOL1        -0.2882
      15    H7      20.271503   16.948829   24.299343 H          1 MOL1         0.0749
      16    H8      18.859741   17.515826   25.218117 H          1 MOL1         0.0749
      17    H9      18.755738   17.333611   23.453112 H          1 MOL1         0.0749
@<TRIPOS>BOND
    1     1     2    1
    2     1     3    2
    3     1     4    1
    4     4     5    1
    5     4     6    1
    6     4     7    1
    7     7     8    1
    8     7     9    2
    9     9    10    1
   10     9    11    1
   11    11    12    1
   12    11    13    1
   13    11    14    1
   14    14    15    1
   15    14    16    1
   16    14    17    1
@<TRIPOS>SUBSTRUCTURE
       1 MOL1            1 RESIDUE      1      MOL     
@<SCITEGIC>MOL_PROPERTY
VConf Rank
SciTegic.value.IntegerValue
494

@<SCITEGIC>MOL_PROPERTY
Conf_Id
SciTegic.value.IntegerValue
7

@<SCITEGIC>MOL_PROPERTY
Delta U+W
SciTegic.value.DoubleValue
-0.041

@<SCITEGIC>MOL_PROPERTY
U+W
SciTegic.value.DoubleValue
-49.468

@<SCITEGIC>MOL_PROPERTY
Grad RMS
SciTegic.value.DoubleValue
0.000000

@<SCITEGIC>MOL_PROPERTY
U
SciTegic.value.DoubleValue
14.121

@<SCITEGIC>MOL_PROPERTY
W
SciTegic.value.DoubleValue
-63.589

@<SCITEGIC>MOL_PROPERTY
W(PB)
SciTegic.value.DoubleValue
-65.660

@<SCITEGIC>MOL_PROPERTY
W(SA)
SciTegic.value.DoubleValue
2.071

@<SCITEGIC>MOL_PROPERTY
Valence
SciTegic.value.DoubleValue
15.230

@<SCITEGIC>MOL_PROPERTY
Coulomb
SciTegic.value.DoubleValue
-1.333

@<SCITEGIC>MOL_PROPERTY
VdW
SciTegic.value.DoubleValue
0.224

@<SCITEGIC>MOL_PROPERTY
VdW6
SciTegic.value.DoubleValue
-4.212

@<SCITEGIC>MOL_PROPERTY
VdW12
SciTegic.value.DoubleValue
4.436

@<SCITEGIC>MOL_PROPERTY
Bond
SciTegic.value.DoubleValue
0.044

@<SCITEGIC>MOL_PROPERTY
Angle
SciTegic.value.DoubleValue
2.230

@<SCITEGIC>MOL_PROPERTY
Pdih
SciTegic.value.DoubleValue
12.956

@<SCITEGIC>MOL_PROPERTY
Idih
SciTegic.value.DoubleValue
0.000

@<SCITEGIC>MOL_PROPERTY
Tether
SciTegic.value.DoubleValue
0.000

@<TRIPOS>MOLECULE
guest-s20_confgen4.mol2 : confsearch ligand conformer 495
          17          16           1
SMALL
USER_CHARGES
 
@<TRIPOS>ATOM
       1    C1      21.345529   20.125921   24.594509 C.2        1 MOL1         0.6132
       2    O1      22.518351   20.008581   24.298346 O.co2      1 MOL1        -0.6749
       3    O2      20.848940   19.621480   25.582447 O.co2      1 MOL1        -0.6749
       4    C2      20.454758   20.975038   23.692786 C.3        1 MOL1        -0.1955
       5    H1      21.072784   21.772730   23.264417 H          1 MOL1         0.0733
       6    H2      19.714236   21.475453   24.327555 H          1 MOL1         0.0733
       7    C3      19.744745   20.224050   22.575299 C.2        1 MOL1        -0.1395
       8    H3      19.114239   20.848799   21.943875 H          1 MOL1         0.0816
       9    C4      19.838624   18.912658   22.325433 C.2        1 MOL1        -0.1394
      10    H4      20.462719   18.265750   22.940859 H          1 MOL1         0.0816
      11    C5      19.109048   18.213365   21.199978 C.3        1 MOL1        -0.1826
      12    H5      18.617345   17.308858   21.582881 H          1 MOL1         0.0736
      13    H6      18.315015   18.857048   20.797066 H          1 MOL1         0.0736
      14    C6      20.079069   17.829594   20.065599 C.3        1 MOL1        -0.2882
      15    H7      19.544647   17.321386   19.252470 H          1 MOL1         0.0749
      16    H8      20.564321   18.722151   19.649105 H          1 MOL1         0.0749
      17    H9      20.863035   17.154209   20.432627 H          1 MOL1         0.0749
@<TRIPOS>BOND
    1     1     2    1
    2     1     3    2
    3     1     4    1
    4     4     5    1
    5     4     6    1
    6     4     7    1
    7     7     8    1
    8     7     9    2
    9     9    10    1
   10     9    11    1
   11    11    12    1
   12    11    13    1
   13    11    14    1
   14    14    15    1
   15    14    16    1
   16    14    17    1
@<TRIPOS>SUBSTRUCTURE
       1 MOL1            1 RESIDUE      1      MOL     
@<SCITEGIC>MOL_PROPERTY
VConf Rank
SciTegic.value.IntegerValue
495

@<SCITEGIC>MOL_PROPERTY
Conf_Id
SciTegic.value.IntegerValue
39

@<SCITEGIC>MOL_PROPERTY
Delta U+W
SciTegic.value.DoubleValue
-0.422

@<SCITEGIC>MOL_PROPERTY
U+W
SciTegic.value.DoubleValue
-49.849

@<SCITEGIC>MOL_PROPERTY
Grad RMS
SciTegic.value.DoubleValue
0.000000

@<SCITEGIC>MOL_PROPERTY
U
SciTegic.value.DoubleValue
14.465

@<SCITEGIC>MOL_PROPERTY
W
SciTegic.value.DoubleValue
-64.314

@<SCITEGIC>MOL_PROPERTY
W(PB)
SciTegic.value.DoubleValue
-66.406

@<SCITEGIC>MOL_PROPERTY
W(SA)
SciTegic.value.DoubleValue
2.093

@<SCITEGIC>MOL_PROPERTY
Valence
SciTegic.value.DoubleValue
14.072

@<SCITEGIC>MOL_PROPERTY
Coulomb
SciTegic.value.DoubleValue
-0.199

@<SCITEGIC>MOL_PROPERTY
VdW
SciTegic.value.DoubleValue
0.592

@<SCITEGIC>MOL_PROPERTY
VdW6
SciTegic.value.DoubleValue
-5.019

@<SCITEGIC>MOL_PROPERTY
VdW12
SciTegic.value.DoubleValue
5.611

@<SCITEGIC>MOL_PROPERTY
Bond
SciTegic.value.DoubleValue
0.085

@<SCITEGIC>MOL_PROPERTY
Angle
SciTegic.value.DoubleValue
2.748

@<SCITEGIC>MOL_PROPERTY
Pdih
SciTegic.value.DoubleValue
11.238

@<SCITEGIC>MOL_PROPERTY
Idih
SciTegic.value.DoubleValue
0.001

@<SCITEGIC>MOL_PROPERTY
Tether
SciTegic.value.DoubleValue
0.000

@<TRIPOS>MOLECULE
guest-s20_confgen4.mol2 : confsearch ligand conformer 496
          17          16           1
SMALL
USER_CHARGES
 
@<TRIPOS>ATOM
       1    C1      19.279572   21.289407   19.810707 C.2        1 MOL1         0.6132
       2    O1      19.659966   21.020539   18.688223 O.co2      1 MOL1        -0.6749
       3    O2      19.259492   22.417924   20.261114 O.co2      1 MOL1        -0.6749
       4    C2      18.797119   20.149131   20.697619 C.3        1 MOL1        -0.1955
       5    H1      18.202748   19.469654   20.075893 H          1 MOL1         0.0733
       6    H2      18.121269   20.565383   21.454323 H          1 MOL1         0.0733
       7    C3      19.941345   19.394229   21.346937 C.2        1 MOL1        -0.1395
       8    H3      20.565869   18.819030   20.664063 H          1 MOL1         0.0816
       9    C4      20.202332   19.408010   22.657633 C.2        1 MOL1        -0.1394
      10    H4      19.579224   19.985781   23.339526 H          1 MOL1         0.0816
      11    C5      21.346014   18.657665   23.302841 C.3        1 MOL1        -0.1826
      12    H5      22.063435   18.321714   22.541482 H          1 MOL1         0.0736
      13    H6      21.894405   19.327635   23.978816 H          1 MOL1         0.0736
      14    C6      20.832574   17.438274   24.093111 C.3        1 MOL1        -0.2882
      15    H7      20.302104   16.740396   23.431924 H          1 MOL1         0.0749
      16    H8      21.666818   16.898250   24.559475 H          1 MOL1         0.0749
      17    H9      20.141429   17.749088   24.887556 H          1 MOL1         0.0749
@<TRIPOS>BOND
    1     1     2    1
    2     1     3    2
    3     1     4    1
    4     4     5    1
    5     4     6    1
    6     4     7    1
    7     7     8    1
    8     7     9    2
    9     9    10    1
   10     9    11    1
   11    11    12    1
   12    11    13    1
   13    11    14    1
   14    14    15    1
   15    14    16    1
   16    14    17    1
@<TRIPOS>SUBSTRUCTURE
       1 MOL1            1 RESIDUE      1      MOL     
@<SCITEGIC>MOL_PROPERTY
VConf Rank
SciTegic.value.IntegerValue
496

@<SCITEGIC>MOL_PROPERTY
Conf_Id
SciTegic.value.IntegerValue
38

@<SCITEGIC>MOL_PROPERTY
Delta U+W
SciTegic.value.DoubleValue
0.000

@<SCITEGIC>MOL_PROPERTY
U+W
SciTegic.value.DoubleValue
-49.427

@<SCITEGIC>MOL_PROPERTY
Grad RMS
SciTegic.value.DoubleValue
0.000000

@<SCITEGIC>MOL_PROPERTY
U
SciTegic.value.DoubleValue
13.666

@<SCITEGIC>MOL_PROPERTY
W
SciTegic.value.DoubleValue
-63.093

@<SCITEGIC>MOL_PROPERTY
W(PB)
SciTegic.value.DoubleValue
-65.225

@<SCITEGIC>MOL_PROPERTY
W(SA)
SciTegic.value.DoubleValue
2.132

@<SCITEGIC>MOL_PROPERTY
Valence
SciTegic.value.DoubleValue
15.226

@<SCITEGIC>MOL_PROPERTY
Coulomb
SciTegic.value.DoubleValue
-1.822

@<SCITEGIC>MOL_PROPERTY
VdW
SciTegic.value.DoubleValue
0.261

@<SCITEGIC>MOL_PROPERTY
VdW6
SciTegic.value.DoubleValue
-4.165

@<SCITEGIC>MOL_PROPERTY
VdW12
SciTegic.value.DoubleValue
4.426

@<SCITEGIC>MOL_PROPERTY
Bond
SciTegic.value.DoubleValue
0.044

@<SCITEGIC>MOL_PROPERTY
Angle
SciTegic.value.DoubleValue
2.229

@<SCITEGIC>MOL_PROPERTY
Pdih
SciTegic.value.DoubleValue
12.953

@<SCITEGIC>MOL_PROPERTY
Idih
SciTegic.value.DoubleValue
0.000

@<SCITEGIC>MOL_PROPERTY
Tether
SciTegic.value.DoubleValue
0.000

@<TRIPOS>MOLECULE
guest-s20_confgen4.mol2 : confsearch ligand conformer 497
          17          16           1
SMALL
USER_CHARGES
 
@<TRIPOS>ATOM
       1    C1      19.156204   21.728147   23.865268 C.2        1 MOL1         0.6132
       2    O1      20.054179   22.036040   24.623992 O.co2      1 MOL1        -0.6749
       3    O2      17.979388   21.766232   24.166289 O.co2      1 MOL1        -0.6749
       4    C2      19.523045   21.274774   22.458326 C.3        1 MOL1        -0.1955
       5    H1      20.508583   21.687278   22.210952 H          1 MOL1         0.0733
       6    H2      18.803942   21.723851   21.763540 H          1 MOL1         0.0733
       7    C3      19.513754   19.764898   22.313649 C.2        1 MOL1        -0.1395
       8    H3      18.532618   19.296713   22.386974 H          1 MOL1         0.0816
       9    C4      20.607014   19.022883   22.112592 C.2        1 MOL1        -0.1394
      10    H4      21.588163   19.491392   22.042549 H          1 MOL1         0.0816
      11    C5      20.596308   17.517032   21.972520 C.3        1 MOL1        -0.1826
      12    H5      21.367621   17.078990   22.620385 H          1 MOL1         0.0736
      13    H6      19.633460   17.106711   22.306855 H          1 MOL1         0.0736
      14    C6      20.851270   17.094781   20.512466 C.3        1 MOL1        -0.2882
      15    H7      21.826257   17.459743   20.163709 H          1 MOL1         0.0749
      16    H8      20.843043   16.001186   20.417230 H          1 MOL1         0.0749
      17    H9      20.076675   17.500454   19.848363 H          1 MOL1         0.0749
@<TRIPOS>BOND
    1     1     2    1
    2     1     3    2
    3     1     4    1
    4     4     5    1
    5     4     6    1
    6     4     7    1
    7     7     8    1
    8     7     9    2
    9     9    10    1
   10     9    11    1
   11    11    12    1
   12    11    13    1
   13    11    14    1
   14    14    15    1
   15    14    16    1
   16    14    17    1
@<TRIPOS>SUBSTRUCTURE
       1 MOL1            1 RESIDUE      1      MOL     
@<SCITEGIC>MOL_PROPERTY
VConf Rank
SciTegic.value.IntegerValue
497

@<SCITEGIC>MOL_PROPERTY
Conf_Id
SciTegic.value.IntegerValue
35

@<SCITEGIC>MOL_PROPERTY
Delta U+W
SciTegic.value.DoubleValue
-0.102

@<SCITEGIC>MOL_PROPERTY
U+W
SciTegic.value.DoubleValue
-49.529

@<SCITEGIC>MOL_PROPERTY
Grad RMS
SciTegic.value.DoubleValue
0.000000

@<SCITEGIC>MOL_PROPERTY
U
SciTegic.value.DoubleValue
13.666

@<SCITEGIC>MOL_PROPERTY
W
SciTegic.value.DoubleValue
-63.195

@<SCITEGIC>MOL_PROPERTY
W(PB)
SciTegic.value.DoubleValue
-65.299

@<SCITEGIC>MOL_PROPERTY
W(SA)
SciTegic.value.DoubleValue
2.103

@<SCITEGIC>MOL_PROPERTY
Valence
SciTegic.value.DoubleValue
15.226

@<SCITEGIC>MOL_PROPERTY
Coulomb
SciTegic.value.DoubleValue
-1.822

@<SCITEGIC>MOL_PROPERTY
VdW
SciTegic.value.DoubleValue
0.261

@<SCITEGIC>MOL_PROPERTY
VdW6
SciTegic.value.DoubleValue
-4.165

@<SCITEGIC>MOL_PROPERTY
VdW12
SciTegic.value.DoubleValue
4.426

@<SCITEGIC>MOL_PROPERTY
Bond
SciTegic.value.DoubleValue
0.044

@<SCITEGIC>MOL_PROPERTY
Angle
SciTegic.value.DoubleValue
2.229

@<SCITEGIC>MOL_PROPERTY
Pdih
SciTegic.value.DoubleValue
12.953

@<SCITEGIC>MOL_PROPERTY
Idih
SciTegic.value.DoubleValue
0.000

@<SCITEGIC>MOL_PROPERTY
Tether
SciTegic.value.DoubleValue
0.000

@<TRIPOS>MOLECULE
guest-s20_confgen4.mol2 : confsearch ligand conformer 498
          17          16           1
SMALL
USER_CHARGES
 
@<TRIPOS>ATOM
       1    C1      22.972406   18.031977   22.286613 C.2        1 MOL1         0.6132
       2    O1      23.695633   18.800512   22.889329 O.co2      1 MOL1        -0.6749
       3    O2      22.976128   16.829269   22.460765 O.co2      1 MOL1        -0.6749
       4    C2      22.016797   18.608637   21.250289 C.3        1 MOL1        -0.1955
       5    H1      21.776121   17.818725   20.528694 H          1 MOL1         0.0733
       6    H2      22.551662   19.392106   20.701103 H          1 MOL1         0.0733
       7    C3      20.757455   19.178383   21.875472 C.2        1 MOL1        -0.1395
       8    H3      20.913976   20.069234   22.481257 H          1 MOL1         0.0816
       9    C4      19.538695   18.646961   21.717585 C.2        1 MOL1        -0.1394
      10    H4      19.421569   17.751989   21.107348 H          1 MOL1         0.0816
      11    C5      18.239948   19.161305   22.315327 C.3        1 MOL1        -0.1826
      12    H5      17.529511   19.365448   21.502856 H          1 MOL1         0.0736
      13    H6      17.782047   18.362131   22.913799 H          1 MOL1         0.0736
      14    C6      18.380792   20.426524   23.190205 C.3        1 MOL1        -0.2882
      15    H7      18.786334   21.264692   22.608472 H          1 MOL1         0.0749
      16    H8      17.403018   20.732866   23.584088 H          1 MOL1         0.0749
      17    H9      19.044773   20.242362   24.045016 H          1 MOL1         0.0749
@<TRIPOS>BOND
    1     1     2    1
    2     1     3    2
    3     1     4    1
    4     4     5    1
    5     4     6    1
    6     4     7    1
    7     7     8    1
    8     7     9    2
    9     9    10    1
   10     9    11    1
   11    11    12    1
   12    11    13    1
   13    11    14    1
   14    14    15    1
   15    14    16    1
   16    14    17    1
@<TRIPOS>SUBSTRUCTURE
       1 MOL1            1 RESIDUE      1      MOL     
@<SCITEGIC>MOL_PROPERTY
VConf Rank
SciTegic.value.IntegerValue
498

@<SCITEGIC>MOL_PROPERTY
Conf_Id
SciTegic.value.IntegerValue
19

@<SCITEGIC>MOL_PROPERTY
Delta U+W
SciTegic.value.DoubleValue
-0.496

@<SCITEGIC>MOL_PROPERTY
U+W
SciTegic.value.DoubleValue
-49.923

@<SCITEGIC>MOL_PROPERTY
Grad RMS
SciTegic.value.DoubleValue
0.000000

@<SCITEGIC>MOL_PROPERTY
U
SciTegic.value.DoubleValue
13.863

@<SCITEGIC>MOL_PROPERTY
W
SciTegic.value.DoubleValue
-63.786

@<SCITEGIC>MOL_PROPERTY
W(PB)
SciTegic.value.DoubleValue
-65.856

@<SCITEGIC>MOL_PROPERTY
W(SA)
SciTegic.value.DoubleValue
2.070

@<SCITEGIC>MOL_PROPERTY
Valence
SciTegic.value.DoubleValue
14.117

@<SCITEGIC>MOL_PROPERTY
Coulomb
SciTegic.value.DoubleValue
-1.228

@<SCITEGIC>MOL_PROPERTY
VdW
SciTegic.value.DoubleValue
0.974

@<SCITEGIC>MOL_PROPERTY
VdW6
SciTegic.value.DoubleValue
-4.885

@<SCITEGIC>MOL_PROPERTY
VdW12
SciTegic.value.DoubleValue
5.859

@<SCITEGIC>MOL_PROPERTY
Bond
SciTegic.value.DoubleValue
0.094

@<SCITEGIC>MOL_PROPERTY
Angle
SciTegic.value.DoubleValue
2.818

@<SCITEGIC>MOL_PROPERTY
Pdih
SciTegic.value.DoubleValue
11.205

@<SCITEGIC>MOL_PROPERTY
Idih
SciTegic.value.DoubleValue
0.000

@<SCITEGIC>MOL_PROPERTY
Tether
SciTegic.value.DoubleValue
0.000

@<TRIPOS>MOLECULE
guest-s20_confgen4.mol2 : confsearch ligand conformer 499
          17          16           1
SMALL
USER_CHARGES
 
@<TRIPOS>ATOM
       1    C1      20.879056   16.878535   24.034199 C.2        1 MOL1         0.6132
       2    O1      21.830435   16.375213   23.469968 O.co2      1 MOL1        -0.6749
       3    O2      20.860884   17.135159   25.221977 O.co2      1 MOL1        -0.6749
       4    C2      19.636754   17.196042   23.212189 C.3        1 MOL1        -0.1955
       5    H1      18.760778   16.908191   23.804889 H          1 MOL1         0.0733
       6    H2      19.643767   16.558943   22.319603 H          1 MOL1         0.0733
       7    C3      19.550242   18.662158   22.833003 C.2        1 MOL1        -0.1395
       8    H3      19.384506   19.348182   23.663134 H          1 MOL1         0.0816
       9    C4      19.671062   19.123570   21.584516 C.2        1 MOL1        -0.1394
      10    H4      19.841925   18.437588   20.755484 H          1 MOL1         0.0816
      11    C5      19.587402   20.586197   21.208938 C.3        1 MOL1        -0.1826
      12    H5      18.906594   20.711901   20.356166 H          1 MOL1         0.0736
      13    H6      19.166654   21.172374   22.037537 H          1 MOL1         0.0736
      14    C6      20.976816   21.144088   20.843869 C.3        1 MOL1        -0.2882
      15    H7      21.405447   20.600753   19.991525 H          1 MOL1         0.0749
      16    H8      20.910381   22.205728   20.572622 H          1 MOL1         0.0749
      17    H9      21.668873   21.051387   21.691303 H          1 MOL1         0.0749
@<TRIPOS>BOND
    1     1     2    1
    2     1     3    2
    3     1     4    1
    4     4     5    1
    5     4     6    1
    6     4     7    1
    7     7     8    1
    8     7     9    2
    9     9    10    1
   10     9    11    1
   11    11    12    1
   12    11    13    1
   13    11    14    1
   14    14    15    1
   15    14    16    1
   16    14    17    1
@<TRIPOS>SUBSTRUCTURE
       1 MOL1            1 RESIDUE      1      MOL     
@<SCITEGIC>MOL_PROPERTY
VConf Rank
SciTegic.value.IntegerValue
499

@<SCITEGIC>MOL_PROPERTY
Conf_Id
SciTegic.value.IntegerValue
7

@<SCITEGIC>MOL_PROPERTY
Delta U+W
SciTegic.value.DoubleValue
-0.041

@<SCITEGIC>MOL_PROPERTY
U+W
SciTegic.value.DoubleValue
-49.468

@<SCITEGIC>MOL_PROPERTY
Grad RMS
SciTegic.value.DoubleValue
0.000000

@<SCITEGIC>MOL_PROPERTY
U
SciTegic.value.DoubleValue
14.121

@<SCITEGIC>MOL_PROPERTY
W
SciTegic.value.DoubleValue
-63.589

@<SCITEGIC>MOL_PROPERTY
W(PB)
SciTegic.value.DoubleValue
-65.660

@<SCITEGIC>MOL_PROPERTY
W(SA)
SciTegic.value.DoubleValue
2.071

@<SCITEGIC>MOL_PROPERTY
Valence
SciTegic.value.DoubleValue
15.230

@<SCITEGIC>MOL_PROPERTY
Coulomb
SciTegic.value.DoubleValue
-1.333

@<SCITEGIC>MOL_PROPERTY
VdW
SciTegic.value.DoubleValue
0.224

@<SCITEGIC>MOL_PROPERTY
VdW6
SciTegic.value.DoubleValue
-4.212

@<SCITEGIC>MOL_PROPERTY
VdW12
SciTegic.value.DoubleValue
4.436

@<SCITEGIC>MOL_PROPERTY
Bond
SciTegic.value.DoubleValue
0.044

@<SCITEGIC>MOL_PROPERTY
Angle
SciTegic.value.DoubleValue
2.230

@<SCITEGIC>MOL_PROPERTY
Pdih
SciTegic.value.DoubleValue
12.956

@<SCITEGIC>MOL_PROPERTY
Idih
SciTegic.value.DoubleValue
0.000

@<SCITEGIC>MOL_PROPERTY
Tether
SciTegic.value.DoubleValue
0.000

@<TRIPOS>MOLECULE
guest-s20_confgen4.mol2 : confsearch ligand conformer 500
          17          16           1
SMALL
USER_CHARGES
 
@<TRIPOS>ATOM
       1    C1      20.199569   16.872423   23.630117 C.2        1 MOL1         0.6132
       2    O1      21.386800   16.616527   23.585462 O.co2      1 MOL1        -0.6749
       3    O2      19.333296   16.106798   23.255321 O.co2      1 MOL1        -0.6749
       4    C2      19.772095   18.215638   24.213740 C.3        1 MOL1        -0.1955
       5    H1      20.499656   18.494031   24.985051 H          1 MOL1         0.0733
       6    H2      18.820335   18.066725   24.736901 H          1 MOL1         0.0733
       7    C3      19.631034   19.352519   23.211502 C.2        1 MOL1        -0.1395
       8    H3      19.325051   20.301990   23.649024 H          1 MOL1         0.0816
       9    C4      19.848547   19.270874   21.893543 C.2        1 MOL1        -0.1394
      10    H4      20.156106   18.333809   21.430888 H          1 MOL1         0.0816
      11    C5      19.692347   20.433417   20.938537 C.3        1 MOL1        -0.1826
      12    H5      19.100310   20.120569   20.067826 H          1 MOL1         0.0736
      13    H6      19.139606   21.253510   21.417159 H          1 MOL1         0.0736
      14    C6      21.065300   20.950857   20.467056 C.3        1 MOL1        -0.2882
      15    H7      20.945916   21.793265   19.773402 H          1 MOL1         0.0749
      16    H8      21.666314   21.293735   21.319588 H          1 MOL1         0.0749
      17    H9      21.625124   20.160383   19.950137 H          1 MOL1         0.0749
@<TRIPOS>BOND
    1     1     2    1
    2     1     3    2
    3     1     4    1
    4     4     5    1
    5     4     6    1
    6     4     7    1
    7     7     8    1
    8     7     9    2
    9     9    10    1
   10     9    11    1
   11    11    12    1
   12    11    13    1
   13    11    14    1
   14    14    15    1
   15    14    16    1
   16    14    17    1
@<TRIPOS>SUBSTRUCTURE
       1 MOL1            1 RESIDUE      1      MOL     
@<SCITEGIC>MOL_PROPERTY
VConf Rank
SciTegic.value.IntegerValue
500

@<SCITEGIC>MOL_PROPERTY
Conf_Id
SciTegic.value.IntegerValue
39

@<SCITEGIC>MOL_PROPERTY
Delta U+W
SciTegic.value.DoubleValue
-0.422

@<SCITEGIC>MOL_PROPERTY
U+W
SciTegic.value.DoubleValue
-49.849

@<SCITEGIC>MOL_PROPERTY
Grad RMS
SciTegic.value.DoubleValue
0.000000

@<SCITEGIC>MOL_PROPERTY
U
SciTegic.value.DoubleValue
14.465

@<SCITEGIC>MOL_PROPERTY
W
SciTegic.value.DoubleValue
-64.314

@<SCITEGIC>MOL_PROPERTY
W(PB)
SciTegic.value.DoubleValue
-66.406

@<SCITEGIC>MOL_PROPERTY
W(SA)
SciTegic.value.DoubleValue
2.093

@<SCITEGIC>MOL_PROPERTY
Valence
SciTegic.value.DoubleValue
14.072

@<SCITEGIC>MOL_PROPERTY
Coulomb
SciTegic.value.DoubleValue
-0.199

@<SCITEGIC>MOL_PROPERTY
VdW
SciTegic.value.DoubleValue
0.592

@<SCITEGIC>MOL_PROPERTY
VdW6
SciTegic.value.DoubleValue
-5.019

@<SCITEGIC>MOL_PROPERTY
VdW12
SciTegic.value.DoubleValue
5.611

@<SCITEGIC>MOL_PROPERTY
Bond
SciTegic.value.DoubleValue
0.085

@<SCITEGIC>MOL_PROPERTY
Angle
SciTegic.value.DoubleValue
2.748

@<SCITEGIC>MOL_PROPERTY
Pdih
SciTegic.value.DoubleValue
11.238

@<SCITEGIC>MOL_PROPERTY
Idih
SciTegic.value.DoubleValue
0.001

@<SCITEGIC>MOL_PROPERTY
Tether
SciTegic.value.DoubleValue
0.000

@<TRIPOS>MOLECULE
guest-s20_confgen4.mol2 : confsearch ligand conformer 501
          17          16           1
SMALL
USER_CHARGES
 
@<TRIPOS>ATOM
       1    C1      22.297195   20.565218   23.992510 C.2        1 MOL1         0.6132
       2    O1      23.452401   20.473419   23.626405 O.co2      1 MOL1        -0.6749
       3    O2      21.947159   20.441445   25.149650 O.co2      1 MOL1        -0.6749
       4    C2      21.232530   20.856637   22.943145 C.3        1 MOL1        -0.1955
       5    H1      21.639314   21.603630   22.251742 H          1 MOL1         0.0733
       6    H2      20.373513   21.318147   23.444881 H          1 MOL1         0.0733
       7    C3      20.813576   19.614409   22.180195 C.2        1 MOL1        -0.1395
       8    H3      21.576173   19.189997   21.527873 H          1 MOL1         0.0816
       9    C4      19.607245   19.046731   22.273646 C.2        1 MOL1        -0.1394
      10    H4      18.846141   19.469923   22.928390 H          1 MOL1         0.0816
      11    C5      19.192510   17.805872   21.514972 C.3        1 MOL1        -0.1826
      12    H5      20.072326   17.302622   21.090845 H          1 MOL1         0.0736
      13    H6      18.721558   17.090799   22.203020 H          1 MOL1         0.0736
      14    C6      18.207728   18.152991   20.381493 C.3        1 MOL1        -0.2882
      15    H7      18.666351   18.848006   19.665797 H          1 MOL1         0.0749
      16    H8      17.909931   17.248658   19.835064 H          1 MOL1         0.0749
      17    H9      17.300063   18.623605   20.781612 H          1 MOL1         0.0749
@<TRIPOS>BOND
    1     1     2    1
    2     1     3    2
    3     1     4    1
    4     4     5    1
    5     4     6    1
    6     4     7    1
    7     7     8    1
    8     7     9    2
    9     9    10    1
   10     9    11    1
   11    11    12    1
   12    11    13    1
   13    11    14    1
   14    14    15    1
   15    14    16    1
   16    14    17    1
@<TRIPOS>SUBSTRUCTURE
       1 MOL1            1 RESIDUE      1      MOL     
@<SCITEGIC>MOL_PROPERTY
VConf Rank
SciTegic.value.IntegerValue
501

@<SCITEGIC>MOL_PROPERTY
Conf_Id
SciTegic.value.IntegerValue
38

@<SCITEGIC>MOL_PROPERTY
Delta U+W
SciTegic.value.DoubleValue
0.000

@<SCITEGIC>MOL_PROPERTY
U+W
SciTegic.value.DoubleValue
-49.427

@<SCITEGIC>MOL_PROPERTY
Grad RMS
SciTegic.value.DoubleValue
0.000000

@<SCITEGIC>MOL_PROPERTY
U
SciTegic.value.DoubleValue
13.666

@<SCITEGIC>MOL_PROPERTY
W
SciTegic.value.DoubleValue
-63.093

@<SCITEGIC>MOL_PROPERTY
W(PB)
SciTegic.value.DoubleValue
-65.225

@<SCITEGIC>MOL_PROPERTY
W(SA)
SciTegic.value.DoubleValue
2.132

@<SCITEGIC>MOL_PROPERTY
Valence
SciTegic.value.DoubleValue
15.226

@<SCITEGIC>MOL_PROPERTY
Coulomb
SciTegic.value.DoubleValue
-1.822

@<SCITEGIC>MOL_PROPERTY
VdW
SciTegic.value.DoubleValue
0.261

@<SCITEGIC>MOL_PROPERTY
VdW6
SciTegic.value.DoubleValue
-4.165

@<SCITEGIC>MOL_PROPERTY
VdW12
SciTegic.value.DoubleValue
4.426

@<SCITEGIC>MOL_PROPERTY
Bond
SciTegic.value.DoubleValue
0.044

@<SCITEGIC>MOL_PROPERTY
Angle
SciTegic.value.DoubleValue
2.229

@<SCITEGIC>MOL_PROPERTY
Pdih
SciTegic.value.DoubleValue
12.953

@<SCITEGIC>MOL_PROPERTY
Idih
SciTegic.value.DoubleValue
0.000

@<SCITEGIC>MOL_PROPERTY
Tether
SciTegic.value.DoubleValue
0.000

@<TRIPOS>MOLECULE
guest-s20_confgen4.mol2 : confsearch ligand conformer 502
          17          16           1
SMALL
USER_CHARGES
 
@<TRIPOS>ATOM
       1    C1      21.584686   21.505535   23.767152 C.2        1 MOL1         0.6132
       2    O1      22.761805   21.503733   23.465150 O.co2      1 MOL1        -0.6749
       3    O2      21.180813   21.705288   24.895844 O.co2      1 MOL1        -0.6749
       4    C2      20.557738   21.249105   22.672060 C.3        1 MOL1        -0.1955
       5    H1      21.011179   21.510655   21.708409 H          1 MOL1         0.0733
       6    H2      19.720380   21.938587   22.830028 H          1 MOL1         0.0733
       7    C3      20.059051   19.816614   22.667291 C.2        1 MOL1        -0.1395
       8    H3      19.455956   19.531264   23.528716 H          1 MOL1         0.0816
       9    C4      20.319375   18.933900   21.698129 C.2        1 MOL1        -0.1394
      10    H4      20.925163   19.218979   20.838587 H          1 MOL1         0.0816
      11    C5      19.824568   17.504744   21.696997 C.3        1 MOL1        -0.1826
      12    H5      20.656397   16.824653   21.468810 H          1 MOL1         0.0736
      13    H6      19.453266   17.225725   22.692739 H          1 MOL1         0.0736
      14    C6      18.701260   17.308379   20.660328 C.3        1 MOL1        -0.2882
      15    H7      19.056468   17.543869   19.648498 H          1 MOL1         0.0749
      16    H8      18.346815   16.269417   20.663650 H          1 MOL1         0.0749
      17    H9      17.846606   17.960656   20.883269 H          1 MOL1         0.0749
@<TRIPOS>BOND
    1     1     2    1
    2     1     3    2
    3     1     4    1
    4     4     5    1
    5     4     6    1
    6     4     7    1
    7     7     8    1
    8     7     9    2
    9     9    10    1
   10     9    11    1
   11    11    12    1
   12    11    13    1
   13    11    14    1
   14    14    15    1
   15    14    16    1
   16    14    17    1
@<TRIPOS>SUBSTRUCTURE
       1 MOL1            1 RESIDUE      1      MOL     
@<SCITEGIC>MOL_PROPERTY
VConf Rank
SciTegic.value.IntegerValue
502

@<SCITEGIC>MOL_PROPERTY
Conf_Id
SciTegic.value.IntegerValue
35

@<SCITEGIC>MOL_PROPERTY
Delta U+W
SciTegic.value.DoubleValue
-0.102

@<SCITEGIC>MOL_PROPERTY
U+W
SciTegic.value.DoubleValue
-49.529

@<SCITEGIC>MOL_PROPERTY
Grad RMS
SciTegic.value.DoubleValue
0.000000

@<SCITEGIC>MOL_PROPERTY
U
SciTegic.value.DoubleValue
13.666

@<SCITEGIC>MOL_PROPERTY
W
SciTegic.value.DoubleValue
-63.195

@<SCITEGIC>MOL_PROPERTY
W(PB)
SciTegic.value.DoubleValue
-65.299

@<SCITEGIC>MOL_PROPERTY
W(SA)
SciTegic.value.DoubleValue
2.103

@<SCITEGIC>MOL_PROPERTY
Valence
SciTegic.value.DoubleValue
15.226

@<SCITEGIC>MOL_PROPERTY
Coulomb
SciTegic.value.DoubleValue
-1.822

@<SCITEGIC>MOL_PROPERTY
VdW
SciTegic.value.DoubleValue
0.261

@<SCITEGIC>MOL_PROPERTY
VdW6
SciTegic.value.DoubleValue
-4.165

@<SCITEGIC>MOL_PROPERTY
VdW12
SciTegic.value.DoubleValue
4.426

@<SCITEGIC>MOL_PROPERTY
Bond
SciTegic.value.DoubleValue
0.044

@<SCITEGIC>MOL_PROPERTY
Angle
SciTegic.value.DoubleValue
2.229

@<SCITEGIC>MOL_PROPERTY
Pdih
SciTegic.value.DoubleValue
12.953

@<SCITEGIC>MOL_PROPERTY
Idih
SciTegic.value.DoubleValue
0.000

@<SCITEGIC>MOL_PROPERTY
Tether
SciTegic.value.DoubleValue
0.000

@<TRIPOS>MOLECULE
guest-s20_confgen4.mol2 : confsearch ligand conformer 503
          17          16           1
SMALL
USER_CHARGES
 
@<TRIPOS>ATOM
       1    C1      19.885341   16.375738   21.118989 C.2        1 MOL1         0.6132
       2    O1      20.963787   15.818736   21.058377 O.co2      1 MOL1        -0.6749
       3    O2      18.879729   15.847846   21.551338 O.co2      1 MOL1        -0.6749
       4    C2      19.788929   17.810264   20.616464 C.3        1 MOL1        -0.1955
       5    H1      18.746867   18.006318   20.336726 H          1 MOL1         0.0733
       6    H2      20.386038   17.884828   19.700269 H          1 MOL1         0.0733
       7    C3      20.277744   18.817888   21.639772 C.2        1 MOL1        -0.1395
       8    H3      21.346463   18.777091   21.842911 H          1 MOL1         0.0816
       9    C4      19.481682   19.695250   22.263657 C.2        1 MOL1        -0.1394
      10    H4      18.415883   19.703544   22.037633 H          1 MOL1         0.0816
      11    C5      19.901775   20.725918   23.297986 C.3        1 MOL1        -0.1826
      12    H5      19.612758   21.724781   22.944082 H          1 MOL1         0.0736
      13    H6      19.326418   20.561342   24.219073 H          1 MOL1         0.0736
      14    C6      21.408052   20.729802   23.640247 C.3        1 MOL1        -0.2882
      15    H7      22.013761   20.945816   22.750384 H          1 MOL1         0.0749
      16    H8      21.629856   21.498094   24.392284 H          1 MOL1         0.0749
      17    H9      21.721783   19.759864   24.048026 H          1 MOL1         0.0749
@<TRIPOS>BOND
    1     1     2    1
    2     1     3    2
    3     1     4    1
    4     4     5    1
    5     4     6    1
    6     4     7    1
    7     7     8    1
    8     7     9    2
    9     9    10    1
   10     9    11    1
   11    11    12    1
   12    11    13    1
   13    11    14    1
   14    14    15    1
   15    14    16    1
   16    14    17    1
@<TRIPOS>SUBSTRUCTURE
       1 MOL1            1 RESIDUE      1      MOL     
@<SCITEGIC>MOL_PROPERTY
VConf Rank
SciTegic.value.IntegerValue
503

@<SCITEGIC>MOL_PROPERTY
Conf_Id
SciTegic.value.IntegerValue
19

@<SCITEGIC>MOL_PROPERTY
Delta U+W
SciTegic.value.DoubleValue
-0.496

@<SCITEGIC>MOL_PROPERTY
U+W
SciTegic.value.DoubleValue
-49.923

@<SCITEGIC>MOL_PROPERTY
Grad RMS
SciTegic.value.DoubleValue
0.000000

@<SCITEGIC>MOL_PROPERTY
U
SciTegic.value.DoubleValue
13.863

@<SCITEGIC>MOL_PROPERTY
W
SciTegic.value.DoubleValue
-63.786

@<SCITEGIC>MOL_PROPERTY
W(PB)
SciTegic.value.DoubleValue
-65.856

@<SCITEGIC>MOL_PROPERTY
W(SA)
SciTegic.value.DoubleValue
2.070

@<SCITEGIC>MOL_PROPERTY
Valence
SciTegic.value.DoubleValue
14.117

@<SCITEGIC>MOL_PROPERTY
Coulomb
SciTegic.value.DoubleValue
-1.228

@<SCITEGIC>MOL_PROPERTY
VdW
SciTegic.value.DoubleValue
0.974

@<SCITEGIC>MOL_PROPERTY
VdW6
SciTegic.value.DoubleValue
-4.885

@<SCITEGIC>MOL_PROPERTY
VdW12
SciTegic.value.DoubleValue
5.859

@<SCITEGIC>MOL_PROPERTY
Bond
SciTegic.value.DoubleValue
0.094

@<SCITEGIC>MOL_PROPERTY
Angle
SciTegic.value.DoubleValue
2.818

@<SCITEGIC>MOL_PROPERTY
Pdih
SciTegic.value.DoubleValue
11.205

@<SCITEGIC>MOL_PROPERTY
Idih
SciTegic.value.DoubleValue
0.000

@<SCITEGIC>MOL_PROPERTY
Tether
SciTegic.value.DoubleValue
0.000

@<TRIPOS>MOLECULE
guest-s20_confgen4.mol2 : confsearch ligand conformer 504
          17          16           1
SMALL
USER_CHARGES
 
@<TRIPOS>ATOM
       1    C1      17.691735   18.554618   23.721306 C.2        1 MOL1         0.6132
       2    O1      17.332851   19.677483   24.016584 O.co2      1 MOL1        -0.6749
       3    O2      16.945946   17.707526   23.270490 O.co2      1 MOL1        -0.6749
       4    C2      19.152961   18.183048   23.937132 C.3        1 MOL1        -0.1955
       5    H1      19.182346   17.171003   24.357117 H          1 MOL1         0.0733
       6    H2      19.570201   18.857195   24.694820 H          1 MOL1         0.0733
       7    C3      19.961896   18.238751   22.655226 C.2        1 MOL1        -0.1395
       8    H3      19.703936   17.487323   21.909552 H          1 MOL1         0.0816
       9    C4      20.924989   19.133169   22.412979 C.2        1 MOL1        -0.1394
      10    H4      21.178992   19.887564   23.156908 H          1 MOL1         0.0816
      11    C5      21.728434   19.188815   21.132856 C.3        1 MOL1        -0.1826
      12    H5      22.798450   19.263940   21.369381 H          1 MOL1         0.0736
      13    H6      21.597139   18.262921   20.556063 H          1 MOL1         0.0736
      14    C6      21.307697   20.392526   20.267378 C.3        1 MOL1        -0.2882
      15    H7      21.465132   21.336232   20.805950 H          1 MOL1         0.0749
      16    H8      21.893459   20.427843   19.339638 H          1 MOL1         0.0749
      17    H9      20.245411   20.326050   19.997541 H          1 MOL1         0.0749
@<TRIPOS>BOND
    1     1     2    1
    2     1     3    2
    3     1     4    1
    4     4     5    1
    5     4     6    1
    6     4     7    1
    7     7     8    1
    8     7     9    2
    9     9    10    1
   10     9    11    1
   11    11    12    1
   12    11    13    1
   13    11    14    1
   14    14    15    1
   15    14    16    1
   16    14    17    1
@<TRIPOS>SUBSTRUCTURE
       1 MOL1            1 RESIDUE      1      MOL     
@<SCITEGIC>MOL_PROPERTY
VConf Rank
SciTegic.value.IntegerValue
504

@<SCITEGIC>MOL_PROPERTY
Conf_Id
SciTegic.value.IntegerValue
7

@<SCITEGIC>MOL_PROPERTY
Delta U+W
SciTegic.value.DoubleValue
-0.041

@<SCITEGIC>MOL_PROPERTY
U+W
SciTegic.value.DoubleValue
-49.468

@<SCITEGIC>MOL_PROPERTY
Grad RMS
SciTegic.value.DoubleValue
0.000000

@<SCITEGIC>MOL_PROPERTY
U
SciTegic.value.DoubleValue
14.121

@<SCITEGIC>MOL_PROPERTY
W
SciTegic.value.DoubleValue
-63.589

@<SCITEGIC>MOL_PROPERTY
W(PB)
SciTegic.value.DoubleValue
-65.660

@<SCITEGIC>MOL_PROPERTY
W(SA)
SciTegic.value.DoubleValue
2.071

@<SCITEGIC>MOL_PROPERTY
Valence
SciTegic.value.DoubleValue
15.230

@<SCITEGIC>MOL_PROPERTY
Coulomb
SciTegic.value.DoubleValue
-1.333

@<SCITEGIC>MOL_PROPERTY
VdW
SciTegic.value.DoubleValue
0.224

@<SCITEGIC>MOL_PROPERTY
VdW6
SciTegic.value.DoubleValue
-4.212

@<SCITEGIC>MOL_PROPERTY
VdW12
SciTegic.value.DoubleValue
4.436

@<SCITEGIC>MOL_PROPERTY
Bond
SciTegic.value.DoubleValue
0.044

@<SCITEGIC>MOL_PROPERTY
Angle
SciTegic.value.DoubleValue
2.230

@<SCITEGIC>MOL_PROPERTY
Pdih
SciTegic.value.DoubleValue
12.956

@<SCITEGIC>MOL_PROPERTY
Idih
SciTegic.value.DoubleValue
0.000

@<SCITEGIC>MOL_PROPERTY
Tether
SciTegic.value.DoubleValue
0.000

@<TRIPOS>MOLECULE
guest-s20_confgen4.mol2 : confsearch ligand conformer 505
          17          16           1
SMALL
USER_CHARGES
 
@<TRIPOS>ATOM
       1    C1      19.259759   17.495770   20.339527 C.2        1 MOL1         0.6132
       2    O1      18.062488   17.497822   20.548165 O.co2      1 MOL1        -0.6749
       3    O2      19.934242   16.485190   20.309821 O.co2      1 MOL1        -0.6749
       4    C2      19.948342   18.830829   20.072974 C.3        1 MOL1        -0.1955
       5    H1      19.228370   19.485770   19.568534 H          1 MOL1         0.0733
       6    H2      20.753554   18.654845   19.350213 H          1 MOL1         0.0733
       7    C3      20.508715   19.537482   21.299147 C.2        1 MOL1        -0.1395
       8    H3      20.995949   20.488227   21.086467 H          1 MOL1         0.0816
       9    C4      20.445415   19.093971   22.560213 C.2        1 MOL1        -0.1394
      10    H4      19.963106   18.147139   22.800252 H          1 MOL1         0.0816
      11    C5      21.021061   19.835988   23.745955 C.3        1 MOL1        -0.1826
      12    H5      21.614879   19.146786   24.361504 H          1 MOL1         0.0736
      13    H6      21.705107   20.627416   23.409982 H          1 MOL1         0.0736
      14    C6      19.903393   20.458841   24.604971 C.3        1 MOL1        -0.2882
      15    H7      20.326654   20.994693   25.464490 H          1 MOL1         0.0749
      16    H8      19.311180   21.172021   24.016539 H          1 MOL1         0.0749
      17    H9      19.225192   19.684284   24.986499 H          1 MOL1         0.0749
@<TRIPOS>BOND
    1     1     2    1
    2     1     3    2
    3     1     4    1
    4     4     5    1
    5     4     6    1
    6     4     7    1
    7     7     8    1
    8     7     9    2
    9     9    10    1
   10     9    11    1
   11    11    12    1
   12    11    13    1
   13    11    14    1
   14    14    15    1
   15    14    16    1
   16    14    17    1
@<TRIPOS>SUBSTRUCTURE
       1 MOL1            1 RESIDUE      1      MOL     
@<SCITEGIC>MOL_PROPERTY
VConf Rank
SciTegic.value.IntegerValue
505

@<SCITEGIC>MOL_PROPERTY
Conf_Id
SciTegic.value.IntegerValue
39

@<SCITEGIC>MOL_PROPERTY
Delta U+W
SciTegic.value.DoubleValue
-0.422

@<SCITEGIC>MOL_PROPERTY
U+W
SciTegic.value.DoubleValue
-49.849

@<SCITEGIC>MOL_PROPERTY
Grad RMS
SciTegic.value.DoubleValue
0.000000

@<SCITEGIC>MOL_PROPERTY
U
SciTegic.value.DoubleValue
14.465

@<SCITEGIC>MOL_PROPERTY
W
SciTegic.value.DoubleValue
-64.314

@<SCITEGIC>MOL_PROPERTY
W(PB)
SciTegic.value.DoubleValue
-66.406

@<SCITEGIC>MOL_PROPERTY
W(SA)
SciTegic.value.DoubleValue
2.093

@<SCITEGIC>MOL_PROPERTY
Valence
SciTegic.value.DoubleValue
14.072

@<SCITEGIC>MOL_PROPERTY
Coulomb
SciTegic.value.DoubleValue
-0.199

@<SCITEGIC>MOL_PROPERTY
VdW
SciTegic.value.DoubleValue
0.592

@<SCITEGIC>MOL_PROPERTY
VdW6
SciTegic.value.DoubleValue
-5.019

@<SCITEGIC>MOL_PROPERTY
VdW12
SciTegic.value.DoubleValue
5.611

@<SCITEGIC>MOL_PROPERTY
Bond
SciTegic.value.DoubleValue
0.085

@<SCITEGIC>MOL_PROPERTY
Angle
SciTegic.value.DoubleValue
2.748

@<SCITEGIC>MOL_PROPERTY
Pdih
SciTegic.value.DoubleValue
11.238

@<SCITEGIC>MOL_PROPERTY
Idih
SciTegic.value.DoubleValue
0.001

@<SCITEGIC>MOL_PROPERTY
Tether
SciTegic.value.DoubleValue
0.000

@<TRIPOS>MOLECULE
guest-s20_confgen4.mol2 : confsearch ligand conformer 506
          17          16           1
SMALL
USER_CHARGES
 
@<TRIPOS>ATOM
       1    C1      21.821286   20.476054   19.730540 C.2        1 MOL1         0.6132
       2    O1      21.275841   21.311716   19.036912 O.co2      1 MOL1        -0.6749
       3    O2      22.553093   19.611331   19.290619 O.co2      1 MOL1        -0.6749
       4    C2      21.577335   20.520069   21.233256 C.3        1 MOL1        -0.1955
       5    H1      21.592018   21.571033   21.544330 H          1 MOL1         0.0733
       6    H2      22.419736   20.026070   21.732220 H          1 MOL1         0.0733
       7    C3      20.260331   19.878773   21.626938 C.2        1 MOL1        -0.1395
       8    H3      19.367703   20.410857   21.299368 H          1 MOL1         0.0816
       9    C4      20.156602   18.742392   22.322716 C.2        1 MOL1        -0.1394
      10    H4      21.049595   18.209276   22.647390 H          1 MOL1         0.0816
      11    C5      18.842491   18.102410   22.711120 C.3        1 MOL1        -0.1826
      12    H5      18.015430   18.545138   22.139121 H          1 MOL1         0.0736
      13    H6      18.862415   17.033217   22.460192 H          1 MOL1         0.0736
      14    C6      18.568208   18.271404   24.218193 C.3        1 MOL1        -0.2882
      15    H7      18.518251   19.334418   24.488578 H          1 MOL1         0.0749
      16    H8      17.613761   17.804515   24.494113 H          1 MOL1         0.0749
      17    H9      19.361616   17.803434   24.815635 H          1 MOL1         0.0749
@<TRIPOS>BOND
    1     1     2    1
    2     1     3    2
    3     1     4    1
    4     4     5    1
    5     4     6    1
    6     4     7    1
    7     7     8    1
    8     7     9    2
    9     9    10    1
   10     9    11    1
   11    11    12    1
   12    11    13    1
   13    11    14    1
   14    14    15    1
   15    14    16    1
   16    14    17    1
@<TRIPOS>SUBSTRUCTURE
       1 MOL1            1 RESIDUE      1      MOL     
@<SCITEGIC>MOL_PROPERTY
VConf Rank
SciTegic.value.IntegerValue
506

@<SCITEGIC>MOL_PROPERTY
Conf_Id
SciTegic.value.IntegerValue
38

@<SCITEGIC>MOL_PROPERTY
Delta U+W
SciTegic.value.DoubleValue
0.000

@<SCITEGIC>MOL_PROPERTY
U+W
SciTegic.value.DoubleValue
-49.427

@<SCITEGIC>MOL_PROPERTY
Grad RMS
SciTegic.value.DoubleValue
0.000000

@<SCITEGIC>MOL_PROPERTY
U
SciTegic.value.DoubleValue
13.666

@<SCITEGIC>MOL_PROPERTY
W
SciTegic.value.DoubleValue
-63.093

@<SCITEGIC>MOL_PROPERTY
W(PB)
SciTegic.value.DoubleValue
-65.225

@<SCITEGIC>MOL_PROPERTY
W(SA)
SciTegic.value.DoubleValue
2.132

@<SCITEGIC>MOL_PROPERTY
Valence
SciTegic.value.DoubleValue
15.226

@<SCITEGIC>MOL_PROPERTY
Coulomb
SciTegic.value.DoubleValue
-1.822

@<SCITEGIC>MOL_PROPERTY
VdW
SciTegic.value.DoubleValue
0.261

@<SCITEGIC>MOL_PROPERTY
VdW6
SciTegic.value.DoubleValue
-4.165

@<SCITEGIC>MOL_PROPERTY
VdW12
SciTegic.value.DoubleValue
4.426

@<SCITEGIC>MOL_PROPERTY
Bond
SciTegic.value.DoubleValue
0.044

@<SCITEGIC>MOL_PROPERTY
Angle
SciTegic.value.DoubleValue
2.229

@<SCITEGIC>MOL_PROPERTY
Pdih
SciTegic.value.DoubleValue
12.953

@<SCITEGIC>MOL_PROPERTY
Idih
SciTegic.value.DoubleValue
0.000

@<SCITEGIC>MOL_PROPERTY
Tether
SciTegic.value.DoubleValue
0.000

@<TRIPOS>MOLECULE
guest-s20_confgen4.mol2 : confsearch ligand conformer 507
          17          16           1
SMALL
USER_CHARGES
 
@<TRIPOS>ATOM
       1    C1      17.670510   17.313677   21.501795 C.2        1 MOL1         0.6132
       2    O1      17.976861   16.187032   21.838899 O.co2      1 MOL1        -0.6749
       3    O2      17.004198   17.562481   20.516359 O.co2      1 MOL1        -0.6749
       4    C2      18.141610   18.478368   22.362702 C.3        1 MOL1        -0.1955
       5    H1      18.333144   18.101578   23.374624 H          1 MOL1         0.0733
       6    H2      17.315341   19.194651   22.438362 H          1 MOL1         0.0733
       7    C3      19.371645   19.160320   21.794636 C.2        1 MOL1        -0.1395
       8    H3      19.215142   19.698807   20.860430 H          1 MOL1         0.0816
       9    C4      20.580004   19.126262   22.364668 C.2        1 MOL1        -0.1394
      10    H4      20.736500   18.584954   23.297167 H          1 MOL1         0.0816
      11    C5      21.806280   19.803554   21.794715 C.3        1 MOL1        -0.1826
      12    H5      22.649023   19.099097   21.787159 H          1 MOL1         0.0736
      13    H6      21.632323   20.098256   20.750632 H          1 MOL1         0.0736
      14    C6      22.185043   21.048862   22.619826 C.3        1 MOL1        -0.2882
      15    H7      22.402119   20.777540   23.661311 H          1 MOL1         0.0749
      16    H8      23.075848   21.535597   22.201924 H          1 MOL1         0.0749
      17    H9      21.365934   21.780067   22.620447 H          1 MOL1         0.0749
@<TRIPOS>BOND
    1     1     2    1
    2     1     3    2
    3     1     4    1
    4     4     5    1
    5     4     6    1
    6     4     7    1
    7     7     8    1
    8     7     9    2
    9     9    10    1
   10     9    11    1
   11    11    12    1
   12    11    13    1
   13    11    14    1
   14    14    15    1
   15    14    16    1
   16    14    17    1
@<TRIPOS>SUBSTRUCTURE
       1 MOL1            1 RESIDUE      1      MOL     
@<SCITEGIC>MOL_PROPERTY
VConf Rank
SciTegic.value.IntegerValue
507

@<SCITEGIC>MOL_PROPERTY
Conf_Id
SciTegic.value.IntegerValue
35

@<SCITEGIC>MOL_PROPERTY
Delta U+W
SciTegic.value.DoubleValue
-0.102

@<SCITEGIC>MOL_PROPERTY
U+W
SciTegic.value.DoubleValue
-49.529

@<SCITEGIC>MOL_PROPERTY
Grad RMS
SciTegic.value.DoubleValue
0.000000

@<SCITEGIC>MOL_PROPERTY
U
SciTegic.value.DoubleValue
13.666

@<SCITEGIC>MOL_PROPERTY
W
SciTegic.value.DoubleValue
-63.195

@<SCITEGIC>MOL_PROPERTY
W(PB)
SciTegic.value.DoubleValue
-65.299

@<SCITEGIC>MOL_PROPERTY
W(SA)
SciTegic.value.DoubleValue
2.103

@<SCITEGIC>MOL_PROPERTY
Valence
SciTegic.value.DoubleValue
15.226

@<SCITEGIC>MOL_PROPERTY
Coulomb
SciTegic.value.DoubleValue
-1.822

@<SCITEGIC>MOL_PROPERTY
VdW
SciTegic.value.DoubleValue
0.261

@<SCITEGIC>MOL_PROPERTY
VdW6
SciTegic.value.DoubleValue
-4.165

@<SCITEGIC>MOL_PROPERTY
VdW12
SciTegic.value.DoubleValue
4.426

@<SCITEGIC>MOL_PROPERTY
Bond
SciTegic.value.DoubleValue
0.044

@<SCITEGIC>MOL_PROPERTY
Angle
SciTegic.value.DoubleValue
2.229

@<SCITEGIC>MOL_PROPERTY
Pdih
SciTegic.value.DoubleValue
12.953

@<SCITEGIC>MOL_PROPERTY
Idih
SciTegic.value.DoubleValue
0.000

@<SCITEGIC>MOL_PROPERTY
Tether
SciTegic.value.DoubleValue
0.000

@<TRIPOS>MOLECULE
guest-s20_confgen4.mol2 : confsearch ligand conformer 508
          17          16           1
SMALL
USER_CHARGES
 
@<TRIPOS>ATOM
       1    C1      19.051610   16.764627   23.576425 C.2        1 MOL1         0.6132
       2    O1      17.881896   16.647983   23.267986 O.co2      1 MOL1        -0.6749
       3    O2      19.832702   15.834386   23.613776 O.co2      1 MOL1        -0.6749
       4    C2      19.562075   18.151444   23.945014 C.3        1 MOL1        -0.1955
       5    H1      20.444772   18.033084   24.584874 H          1 MOL1         0.0733
       6    H2      18.791054   18.641970   24.550342 H          1 MOL1         0.0733
       7    C3      19.881628   18.995421   22.725590 C.2        1 MOL1        -0.1395
       8    H3      19.015404   19.281984   22.131765 H          1 MOL1         0.0816
       9    C4      21.119889   19.368588   22.378938 C.2        1 MOL1        -0.1394
      10    H4      21.963037   19.058914   22.995612 H          1 MOL1         0.0816
      11    C5      21.511154   20.207014   21.173723 C.3        1 MOL1        -0.1826
      12    H5      22.055089   21.096498   21.519353 H          1 MOL1         0.0736
      13    H6      22.228258   19.641188   20.563702 H          1 MOL1         0.0736
      14    C6      20.333185   20.653471   20.279803 C.3        1 MOL1        -0.2882
      15    H7      19.621105   21.269198   20.844803 H          1 MOL1         0.0749
      16    H8      20.696941   21.251183   19.433959 H          1 MOL1         0.0749
      17    H9      19.797066   19.786168   19.872553 H          1 MOL1         0.0749
@<TRIPOS>BOND
    1     1     2    1
    2     1     3    2
    3     1     4    1
    4     4     5    1
    5     4     6    1
    6     4     7    1
    7     7     8    1
    8     7     9    2
    9     9    10    1
   10     9    11    1
   11    11    12    1
   12    11    13    1
   13    11    14    1
   14    14    15    1
   15    14    16    1
   16    14    17    1
@<TRIPOS>SUBSTRUCTURE
       1 MOL1            1 RESIDUE      1      MOL     
@<SCITEGIC>MOL_PROPERTY
VConf Rank
SciTegic.value.IntegerValue
508

@<SCITEGIC>MOL_PROPERTY
Conf_Id
SciTegic.value.IntegerValue
19

@<SCITEGIC>MOL_PROPERTY
Delta U+W
SciTegic.value.DoubleValue
-0.496

@<SCITEGIC>MOL_PROPERTY
U+W
SciTegic.value.DoubleValue
-49.923

@<SCITEGIC>MOL_PROPERTY
Grad RMS
SciTegic.value.DoubleValue
0.000000

@<SCITEGIC>MOL_PROPERTY
U
SciTegic.value.DoubleValue
13.863

@<SCITEGIC>MOL_PROPERTY
W
SciTegic.value.DoubleValue
-63.786

@<SCITEGIC>MOL_PROPERTY
W(PB)
SciTegic.value.DoubleValue
-65.856

@<SCITEGIC>MOL_PROPERTY
W(SA)
SciTegic.value.DoubleValue
2.070

@<SCITEGIC>MOL_PROPERTY
Valence
SciTegic.value.DoubleValue
14.117

@<SCITEGIC>MOL_PROPERTY
Coulomb
SciTegic.value.DoubleValue
-1.228

@<SCITEGIC>MOL_PROPERTY
VdW
SciTegic.value.DoubleValue
0.974

@<SCITEGIC>MOL_PROPERTY
VdW6
SciTegic.value.DoubleValue
-4.885

@<SCITEGIC>MOL_PROPERTY
VdW12
SciTegic.value.DoubleValue
5.859

@<SCITEGIC>MOL_PROPERTY
Bond
SciTegic.value.DoubleValue
0.094

@<SCITEGIC>MOL_PROPERTY
Angle
SciTegic.value.DoubleValue
2.818

@<SCITEGIC>MOL_PROPERTY
Pdih
SciTegic.value.DoubleValue
11.205

@<SCITEGIC>MOL_PROPERTY
Idih
SciTegic.value.DoubleValue
0.000

@<SCITEGIC>MOL_PROPERTY
Tether
SciTegic.value.DoubleValue
0.000

@<TRIPOS>MOLECULE
guest-s20_confgen4.mol2 : confsearch ligand conformer 509
          17          16           1
SMALL
USER_CHARGES
 
@<TRIPOS>ATOM
       1    C1      19.918139   21.672405   20.884809 C.2        1 MOL1         0.6132
       2    O1      20.311334   22.436503   21.744090 O.co2      1 MOL1        -0.6749
       3    O2      20.275564   21.724667   19.724414 O.co2      1 MOL1        -0.6749
       4    C2      18.914563   20.596627   21.278972 C.3        1 MOL1        -0.1955
       5    H1      18.159198   20.537348   20.486890 H          1 MOL1         0.0733
       6    H2      18.399464   20.924965   22.189753 H          1 MOL1         0.0733
       7    C3      19.565122   19.241350   21.480864 C.2        1 MOL1        -0.1395
       8    H3      19.964886   18.778464   20.579120 H          1 MOL1         0.0816
       9    C4      19.669270   18.626708   22.663058 C.2        1 MOL1        -0.1394
      10    H4      19.273932   19.092372   23.565236 H          1 MOL1         0.0816
      11    C5      20.320972   17.276604   22.862657 C.3        1 MOL1        -0.1826
      12    H5      19.665864   16.634037   23.466366 H          1 MOL1         0.0736
      13    H6      20.457978   16.769470   21.897643 H          1 MOL1         0.0736
      14    C6      21.686869   17.419454   23.561879 C.3        1 MOL1        -0.2882
      15    H7      21.574891   17.889241   24.547875 H          1 MOL1         0.0749
      16    H8      22.155506   16.436955   23.703803 H          1 MOL1         0.0749
      17    H9      22.368025   18.038840   22.963492 H          1 MOL1         0.0749
@<TRIPOS>BOND
    1     1     2    1
    2     1     3    2
    3     1     4    1
    4     4     5    1
    5     4     6    1
    6     4     7    1
    7     7     8    1
    8     7     9    2
    9     9    10    1
   10     9    11    1
   11    11    12    1
   12    11    13    1
   13    11    14    1
   14    14    15    1
   15    14    16    1
   16    14    17    1
@<TRIPOS>SUBSTRUCTURE
       1 MOL1            1 RESIDUE      1      MOL     
@<SCITEGIC>MOL_PROPERTY
VConf Rank
SciTegic.value.IntegerValue
509

@<SCITEGIC>MOL_PROPERTY
Conf_Id
SciTegic.value.IntegerValue
7

@<SCITEGIC>MOL_PROPERTY
Delta U+W
SciTegic.value.DoubleValue
-0.041

@<SCITEGIC>MOL_PROPERTY
U+W
SciTegic.value.DoubleValue
-49.468

@<SCITEGIC>MOL_PROPERTY
Grad RMS
SciTegic.value.DoubleValue
0.000000

@<SCITEGIC>MOL_PROPERTY
U
SciTegic.value.DoubleValue
14.121

@<SCITEGIC>MOL_PROPERTY
W
SciTegic.value.DoubleValue
-63.589

@<SCITEGIC>MOL_PROPERTY
W(PB)
SciTegic.value.DoubleValue
-65.660

@<SCITEGIC>MOL_PROPERTY
W(SA)
SciTegic.value.DoubleValue
2.071

@<SCITEGIC>MOL_PROPERTY
Valence
SciTegic.value.DoubleValue
15.230

@<SCITEGIC>MOL_PROPERTY
Coulomb
SciTegic.value.DoubleValue
-1.333

@<SCITEGIC>MOL_PROPERTY
VdW
SciTegic.value.DoubleValue
0.224

@<SCITEGIC>MOL_PROPERTY
VdW6
SciTegic.value.DoubleValue
-4.212

@<SCITEGIC>MOL_PROPERTY
VdW12
SciTegic.value.DoubleValue
4.436

@<SCITEGIC>MOL_PROPERTY
Bond
SciTegic.value.DoubleValue
0.044

@<SCITEGIC>MOL_PROPERTY
Angle
SciTegic.value.DoubleValue
2.230

@<SCITEGIC>MOL_PROPERTY
Pdih
SciTegic.value.DoubleValue
12.956

@<SCITEGIC>MOL_PROPERTY
Idih
SciTegic.value.DoubleValue
0.000

@<SCITEGIC>MOL_PROPERTY
Tether
SciTegic.value.DoubleValue
0.000

@<TRIPOS>MOLECULE
guest-s20_confgen4.mol2 : confsearch ligand conformer 510
          17          16           1
SMALL
USER_CHARGES
 
@<TRIPOS>ATOM
       1    C1      17.903806   17.741759   21.693861 C.2        1 MOL1         0.6132
       2    O1      17.302482   17.806518   22.748000 O.co2      1 MOL1        -0.6749
       3    O2      18.195062   16.694409   21.150437 O.co2      1 MOL1        -0.6749
       4    C2      18.289388   19.045416   21.001487 C.3        1 MOL1        -0.1955
       5    H1      17.520931   19.791082   21.236485 H          1 MOL1         0.0733
       6    H2      18.229175   18.881328   19.919281 H          1 MOL1         0.0733
       7    C3      19.662147   19.597813   21.358232 C.2        1 MOL1        -0.1395
       8    H3      19.917288   20.528487   20.852965 H          1 MOL1         0.0816
       9    C4      20.534646   19.046877   22.210412 C.2        1 MOL1        -0.1394
      10    H4      20.303973   18.117267   22.729400 H          1 MOL1         0.0816
      11    C5      21.890248   19.637041   22.529769 C.3        1 MOL1        -0.1826
      12    H5      22.659495   18.855843   22.462614 H          1 MOL1         0.0736
      13    H6      22.158226   20.407209   21.793438 H          1 MOL1         0.0736
      14    C6      21.906667   20.254036   23.941890 C.3        1 MOL1        -0.2882
      15    H7      22.892890   20.679417   24.168769 H          1 MOL1         0.0749
      16    H8      21.161871   21.056481   24.025278 H          1 MOL1         0.0749
      17    H9      21.679109   19.496090   24.702938 H          1 MOL1         0.0749
@<TRIPOS>BOND
    1     1     2    1
    2     1     3    2
    3     1     4    1
    4     4     5    1
    5     4     6    1
    6     4     7    1
    7     7     8    1
    8     7     9    2
    9     9    10    1
   10     9    11    1
   11    11    12    1
   12    11    13    1
   13    11    14    1
   14    14    15    1
   15    14    16    1
   16    14    17    1
@<TRIPOS>SUBSTRUCTURE
       1 MOL1            1 RESIDUE      1      MOL     
@<SCITEGIC>MOL_PROPERTY
VConf Rank
SciTegic.value.IntegerValue
510

@<SCITEGIC>MOL_PROPERTY
Conf_Id
SciTegic.value.IntegerValue
39

@<SCITEGIC>MOL_PROPERTY
Delta U+W
SciTegic.value.DoubleValue
-0.422

@<SCITEGIC>MOL_PROPERTY
U+W
SciTegic.value.DoubleValue
-49.849

@<SCITEGIC>MOL_PROPERTY
Grad RMS
SciTegic.value.DoubleValue
0.000000

@<SCITEGIC>MOL_PROPERTY
U
SciTegic.value.DoubleValue
14.465

@<SCITEGIC>MOL_PROPERTY
W
SciTegic.value.DoubleValue
-64.314

@<SCITEGIC>MOL_PROPERTY
W(PB)
SciTegic.value.DoubleValue
-66.406

@<SCITEGIC>MOL_PROPERTY
W(SA)
SciTegic.value.DoubleValue
2.093

@<SCITEGIC>MOL_PROPERTY
Valence
SciTegic.value.DoubleValue
14.072

@<SCITEGIC>MOL_PROPERTY
Coulomb
SciTegic.value.DoubleValue
-0.199

@<SCITEGIC>MOL_PROPERTY
VdW
SciTegic.value.DoubleValue
0.592

@<SCITEGIC>MOL_PROPERTY
VdW6
SciTegic.value.DoubleValue
-5.019

@<SCITEGIC>MOL_PROPERTY
VdW12
SciTegic.value.DoubleValue
5.611

@<SCITEGIC>MOL_PROPERTY
Bond
SciTegic.value.DoubleValue
0.085

@<SCITEGIC>MOL_PROPERTY
Angle
SciTegic.value.DoubleValue
2.748

@<SCITEGIC>MOL_PROPERTY
Pdih
SciTegic.value.DoubleValue
11.238

@<SCITEGIC>MOL_PROPERTY
Idih
SciTegic.value.DoubleValue
0.001

@<SCITEGIC>MOL_PROPERTY
Tether
SciTegic.value.DoubleValue
0.000

@<TRIPOS>MOLECULE
guest-s20_confgen4.mol2 : confsearch ligand conformer 511
          17          16           1
SMALL
USER_CHARGES
 
@<TRIPOS>ATOM
       1    C1      17.459403   19.323625   23.835465 C.2        1 MOL1         0.6132
       2    O1      17.207840   20.362766   24.413275 O.co2      1 MOL1        -0.6749
       3    O2      17.281479   18.224247   24.321808 O.co2      1 MOL1        -0.6749
       4    C2      18.023188   19.405872   22.423025 C.3        1 MOL1        -0.1955
       5    H1      17.484567   20.199962   21.893101 H          1 MOL1         0.0733
       6    H2      17.795927   18.464975   21.907559 H          1 MOL1         0.0733
       7    C3      19.513499   19.687813   22.407983 C.2        1 MOL1        -0.1395
       8    H3      19.803078   20.677839   22.758974 H          1 MOL1         0.0816
       9    C4      20.439412   18.812828   22.003864 C.2        1 MOL1        -0.1394
      10    H4      20.149378   17.821967   21.655819 H          1 MOL1         0.0816
      11    C5      21.925325   19.094378   21.993117 C.3        1 MOL1        -0.1826
      12    H5      22.151046   19.990590   22.587318 H          1 MOL1         0.0736
      13    H6      22.464010   18.260546   22.463308 H          1 MOL1         0.0736
      14    C6      22.440993   19.293061   20.554482 C.3        1 MOL1        -0.2882
      15    H7      21.934190   20.139230   20.072041 H          1 MOL1         0.0749
      16    H8      23.519769   19.496354   20.553066 H          1 MOL1         0.0749
      17    H9      22.262610   18.396056   19.947037 H          1 MOL1         0.0749
@<TRIPOS>BOND
    1     1     2    1
    2     1     3    2
    3     1     4    1
    4     4     5    1
    5     4     6    1
    6     4     7    1
    7     7     8    1
    8     7     9    2
    9     9    10    1
   10     9    11    1
   11    11    12    1
   12    11    13    1
   13    11    14    1
   14    14    15    1
   15    14    16    1
   16    14    17    1
@<TRIPOS>SUBSTRUCTURE
       1 MOL1            1 RESIDUE      1      MOL     
@<SCITEGIC>MOL_PROPERTY
VConf Rank
SciTegic.value.IntegerValue
511

@<SCITEGIC>MOL_PROPERTY
Conf_Id
SciTegic.value.IntegerValue
38

@<SCITEGIC>MOL_PROPERTY
Delta U+W
SciTegic.value.DoubleValue
0.000

@<SCITEGIC>MOL_PROPERTY
U+W
SciTegic.value.DoubleValue
-49.427

@<SCITEGIC>MOL_PROPERTY
Grad RMS
SciTegic.value.DoubleValue
0.000000

@<SCITEGIC>MOL_PROPERTY
U
SciTegic.value.DoubleValue
13.666

@<SCITEGIC>MOL_PROPERTY
W
SciTegic.value.DoubleValue
-63.093

@<SCITEGIC>MOL_PROPERTY
W(PB)
SciTegic.value.DoubleValue
-65.225

@<SCITEGIC>MOL_PROPERTY
W(SA)
SciTegic.value.DoubleValue
2.132

@<SCITEGIC>MOL_PROPERTY
Valence
SciTegic.value.DoubleValue
15.226

@<SCITEGIC>MOL_PROPERTY
Coulomb
SciTegic.value.DoubleValue
-1.822

@<SCITEGIC>MOL_PROPERTY
VdW
SciTegic.value.DoubleValue
0.261

@<SCITEGIC>MOL_PROPERTY
VdW6
SciTegic.value.DoubleValue
-4.165

@<SCITEGIC>MOL_PROPERTY
VdW12
SciTegic.value.DoubleValue
4.426

@<SCITEGIC>MOL_PROPERTY
Bond
SciTegic.value.DoubleValue
0.044

@<SCITEGIC>MOL_PROPERTY
Angle
SciTegic.value.DoubleValue
2.229

@<SCITEGIC>MOL_PROPERTY
Pdih
SciTegic.value.DoubleValue
12.953

@<SCITEGIC>MOL_PROPERTY
Idih
SciTegic.value.DoubleValue
0.000

@<SCITEGIC>MOL_PROPERTY
Tether
SciTegic.value.DoubleValue
0.000

@<TRIPOS>MOLECULE
guest-s20_confgen4.mol2 : confsearch ligand conformer 512
          17          16           1
SMALL
USER_CHARGES
 
@<TRIPOS>ATOM
       1    C1      18.581939   21.008607   24.278466 C.2        1 MOL1         0.6132
       2    O1      17.984812   20.269541   25.036119 O.co2      1 MOL1        -0.6749
       3    O2      18.151233   22.083544   23.909734 O.co2      1 MOL1        -0.6749
       4    C2      19.946932   20.568153   23.766218 C.3        1 MOL1        -0.1955
       5    H1      20.363949   19.845915   24.478334 H          1 MOL1         0.0733
       6    H2      20.606282   21.443766   23.774442 H          1 MOL1         0.0733
       7    C3      19.880995   19.978975   22.370057 C.2        1 MOL1        -0.1395
       8    H3      19.628022   20.684360   21.579084 H          1 MOL1         0.0816
       9    C4      20.106907   18.692655   22.086203 C.2        1 MOL1        -0.1394
      10    H4      20.356700   17.987209   22.878043 H          1 MOL1         0.0816
      11    C5      20.036825   18.106134   20.693938 C.3        1 MOL1        -0.1826
      12    H5      19.431339   17.189768   20.707788 H          1 MOL1         0.0736
      13    H6      19.537290   18.803751   20.007633 H          1 MOL1         0.0736
      14    C6      21.445017   17.783367   20.157395 C.3        1 MOL1        -0.2882
      15    H7      21.953956   17.057245   20.804818 H          1 MOL1         0.0749
      16    H8      21.387687   17.357476   19.147239 H          1 MOL1         0.0749
      17    H9      22.061642   18.690638   20.110148 H          1 MOL1         0.0749
@<TRIPOS>BOND
    1     1     2    1
    2     1     3    2
    3     1     4    1
    4     4     5    1
    5     4     6    1
    6     4     7    1
    7     7     8    1
    8     7     9    2
    9     9    10    1
   10     9    11    1
   11    11    12    1
   12    11    13    1
   13    11    14    1
   14    14    15    1
   15    14    16    1
   16    14    17    1
@<TRIPOS>SUBSTRUCTURE
       1 MOL1            1 RESIDUE      1      MOL     
@<SCITEGIC>MOL_PROPERTY
VConf Rank
SciTegic.value.IntegerValue
512

@<SCITEGIC>MOL_PROPERTY
Conf_Id
SciTegic.value.IntegerValue
35

@<SCITEGIC>MOL_PROPERTY
Delta U+W
SciTegic.value.DoubleValue
-0.102

@<SCITEGIC>MOL_PROPERTY
U+W
SciTegic.value.DoubleValue
-49.529

@<SCITEGIC>MOL_PROPERTY
Grad RMS
SciTegic.value.DoubleValue
0.000000

@<SCITEGIC>MOL_PROPERTY
U
SciTegic.value.DoubleValue
13.666

@<SCITEGIC>MOL_PROPERTY
W
SciTegic.value.DoubleValue
-63.195

@<SCITEGIC>MOL_PROPERTY
W(PB)
SciTegic.value.DoubleValue
-65.299

@<SCITEGIC>MOL_PROPERTY
W(SA)
SciTegic.value.DoubleValue
2.103

@<SCITEGIC>MOL_PROPERTY
Valence
SciTegic.value.DoubleValue
15.226

@<SCITEGIC>MOL_PROPERTY
Coulomb
SciTegic.value.DoubleValue
-1.822

@<SCITEGIC>MOL_PROPERTY
VdW
SciTegic.value.DoubleValue
0.261

@<SCITEGIC>MOL_PROPERTY
VdW6
SciTegic.value.DoubleValue
-4.165

@<SCITEGIC>MOL_PROPERTY
VdW12
SciTegic.value.DoubleValue
4.426

@<SCITEGIC>MOL_PROPERTY
Bond
SciTegic.value.DoubleValue
0.044

@<SCITEGIC>MOL_PROPERTY
Angle
SciTegic.value.DoubleValue
2.229

@<SCITEGIC>MOL_PROPERTY
Pdih
SciTegic.value.DoubleValue
12.953

@<SCITEGIC>MOL_PROPERTY
Idih
SciTegic.value.DoubleValue
0.000

@<SCITEGIC>MOL_PROPERTY
Tether
SciTegic.value.DoubleValue
0.000

@<TRIPOS>MOLECULE
guest-s20_confgen4.mol2 : confsearch ligand conformer 513
          17          16           1
SMALL
USER_CHARGES
 
@<TRIPOS>ATOM
       1    C1      19.554493   21.270456   24.086049 C.2        1 MOL1         0.6132
       2    O1      19.049679   20.806412   25.089442 O.co2      1 MOL1        -0.6749
       3    O2      20.418494   22.124913   24.101994 O.co2      1 MOL1        -0.6749
       4    C2      19.069779   20.758707   22.735916 C.3        1 MOL1        -0.1955
       5    H1      19.274206   21.529776   21.983421 H          1 MOL1         0.0733
       6    H2      17.980852   20.646363   22.791838 H          1 MOL1         0.0733
       7    C3      19.710225   19.438258   22.351665 C.2        1 MOL1        -0.1395
       8    H3      19.416946   18.593443   22.972443 H          1 MOL1         0.0816
       9    C4      20.574506   19.293738   21.339320 C.2        1 MOL1        -0.1394
      10    H4      20.847828   20.163350   20.742533 H          1 MOL1         0.0816
      11    C5      21.254198   18.006794   20.902988 C.3        1 MOL1        -0.1826
      12    H5      21.012150   17.815182   19.848852 H          1 MOL1         0.0736
      13    H6      22.342736   18.150387   20.934374 H          1 MOL1         0.0736
      14    C6      20.887444   16.760104   21.738024 C.3        1 MOL1        -0.2882
      15    H7      19.810419   16.553561   21.685500 H          1 MOL1         0.0749
      16    H8      21.417918   15.875540   21.362293 H          1 MOL1         0.0749
      17    H9      21.164992   16.896135   22.791567 H          1 MOL1         0.0749
@<TRIPOS>BOND
    1     1     2    1
    2     1     3    2
    3     1     4    1
    4     4     5    1
    5     4     6    1
    6     4     7    1
    7     7     8    1
    8     7     9    2
    9     9    10    1
   10     9    11    1
   11    11    12    1
   12    11    13    1
   13    11    14    1
   14    14    15    1
   15    14    16    1
   16    14    17    1
@<TRIPOS>SUBSTRUCTURE
       1 MOL1            1 RESIDUE      1      MOL     
@<SCITEGIC>MOL_PROPERTY
VConf Rank
SciTegic.value.IntegerValue
513

@<SCITEGIC>MOL_PROPERTY
Conf_Id
SciTegic.value.IntegerValue
19

@<SCITEGIC>MOL_PROPERTY
Delta U+W
SciTegic.value.DoubleValue
-0.496

@<SCITEGIC>MOL_PROPERTY
U+W
SciTegic.value.DoubleValue
-49.923

@<SCITEGIC>MOL_PROPERTY
Grad RMS
SciTegic.value.DoubleValue
0.000000

@<SCITEGIC>MOL_PROPERTY
U
SciTegic.value.DoubleValue
13.863

@<SCITEGIC>MOL_PROPERTY
W
SciTegic.value.DoubleValue
-63.786

@<SCITEGIC>MOL_PROPERTY
W(PB)
SciTegic.value.DoubleValue
-65.856

@<SCITEGIC>MOL_PROPERTY
W(SA)
SciTegic.value.DoubleValue
2.070

@<SCITEGIC>MOL_PROPERTY
Valence
SciTegic.value.DoubleValue
14.117

@<SCITEGIC>MOL_PROPERTY
Coulomb
SciTegic.value.DoubleValue
-1.228

@<SCITEGIC>MOL_PROPERTY
VdW
SciTegic.value.DoubleValue
0.974

@<SCITEGIC>MOL_PROPERTY
VdW6
SciTegic.value.DoubleValue
-4.885

@<SCITEGIC>MOL_PROPERTY
VdW12
SciTegic.value.DoubleValue
5.859

@<SCITEGIC>MOL_PROPERTY
Bond
SciTegic.value.DoubleValue
0.094

@<SCITEGIC>MOL_PROPERTY
Angle
SciTegic.value.DoubleValue
2.818

@<SCITEGIC>MOL_PROPERTY
Pdih
SciTegic.value.DoubleValue
11.205

@<SCITEGIC>MOL_PROPERTY
Idih
SciTegic.value.DoubleValue
0.000

@<SCITEGIC>MOL_PROPERTY
Tether
SciTegic.value.DoubleValue
0.000

@<TRIPOS>MOLECULE
guest-s20_confgen4.mol2 : confsearch ligand conformer 514
          17          16           1
SMALL
USER_CHARGES
 
@<TRIPOS>ATOM
       1    C1      17.864002   19.503507   23.991059 C.2        1 MOL1         0.6132
       2    O1      16.965608   18.939356   23.398241 O.co2      1 MOL1        -0.6749
       3    O2      18.069245   19.372972   25.181789 O.co2      1 MOL1        -0.6749
       4    C2      18.777115   20.433608   23.203047 C.3        1 MOL1        -0.1955
       5    H1      18.951864   21.327123   23.813440 H          1 MOL1         0.0733
       6    H2      18.241341   20.759317   22.303317 H          1 MOL1         0.0733
       7    C3      20.098721   19.782148   22.842877 C.2        1 MOL1        -0.1395
       8    H3      20.757462   19.570450   23.684577 H          1 MOL1         0.0816
       9    C4      20.465617   19.466103   21.597197 C.2        1 MOL1        -0.1394
      10    H4      19.804329   19.673322   20.756473 H          1 MOL1         0.0816
      11    C5      21.782697   18.813861   21.240525 C.3        1 MOL1        -0.1826
      12    H5      22.250116   19.353831   20.405975 H          1 MOL1         0.0736
      13    H6      22.482240   18.872950   22.085722 H          1 MOL1         0.0736
      14    C6      21.580642   17.337256   20.848345 C.3        1 MOL1        -0.2882
      15    H7      20.914803   17.250306   19.979712 H          1 MOL1         0.0749
      16    H8      22.539457   16.868756   20.590959 H          1 MOL1         0.0749
      17    H9      21.136317   16.771142   21.677665 H          1 MOL1         0.0749
@<TRIPOS>BOND
    1     1     2    1
    2     1     3    2
    3     1     4    1
    4     4     5    1
    5     4     6    1
    6     4     7    1
    7     7     8    1
    8     7     9    2
    9     9    10    1
   10     9    11    1
   11    11    12    1
   12    11    13    1
   13    11    14    1
   14    14    15    1
   15    14    16    1
   16    14    17    1
@<TRIPOS>SUBSTRUCTURE
       1 MOL1            1 RESIDUE      1      MOL     
@<SCITEGIC>MOL_PROPERTY
VConf Rank
SciTegic.value.IntegerValue
514

@<SCITEGIC>MOL_PROPERTY
Conf_Id
SciTegic.value.IntegerValue
7

@<SCITEGIC>MOL_PROPERTY
Delta U+W
SciTegic.value.DoubleValue
-0.041

@<SCITEGIC>MOL_PROPERTY
U+W
SciTegic.value.DoubleValue
-49.468

@<SCITEGIC>MOL_PROPERTY
Grad RMS
SciTegic.value.DoubleValue
0.000000

@<SCITEGIC>MOL_PROPERTY
U
SciTegic.value.DoubleValue
14.121

@<SCITEGIC>MOL_PROPERTY
W
SciTegic.value.DoubleValue
-63.589

@<SCITEGIC>MOL_PROPERTY
W(PB)
SciTegic.value.DoubleValue
-65.660

@<SCITEGIC>MOL_PROPERTY
W(SA)
SciTegic.value.DoubleValue
2.071

@<SCITEGIC>MOL_PROPERTY
Valence
SciTegic.value.DoubleValue
15.230

@<SCITEGIC>MOL_PROPERTY
Coulomb
SciTegic.value.DoubleValue
-1.333

@<SCITEGIC>MOL_PROPERTY
VdW
SciTegic.value.DoubleValue
0.224

@<SCITEGIC>MOL_PROPERTY
VdW6
SciTegic.value.DoubleValue
-4.212

@<SCITEGIC>MOL_PROPERTY
VdW12
SciTegic.value.DoubleValue
4.436

@<SCITEGIC>MOL_PROPERTY
Bond
SciTegic.value.DoubleValue
0.044

@<SCITEGIC>MOL_PROPERTY
Angle
SciTegic.value.DoubleValue
2.230

@<SCITEGIC>MOL_PROPERTY
Pdih
SciTegic.value.DoubleValue
12.956

@<SCITEGIC>MOL_PROPERTY
Idih
SciTegic.value.DoubleValue
0.000

@<SCITEGIC>MOL_PROPERTY
Tether
SciTegic.value.DoubleValue
0.000

@<TRIPOS>MOLECULE
guest-s20_confgen4.mol2 : confsearch ligand conformer 515
          17          16           1
SMALL
USER_CHARGES
 
@<TRIPOS>ATOM
       1    C1      22.286250   18.337909   20.816096 C.2        1 MOL1         0.6132
       2    O1      22.093768   17.138896   20.864184 O.co2      1 MOL1        -0.6749
       3    O2      23.328417   18.864527   21.153206 O.co2      1 MOL1        -0.6749
       4    C2      21.169745   19.227224   20.277474 C.3        1 MOL1        -0.1955
       5    H1      20.616404   18.653595   19.524791 H          1 MOL1         0.0733
       6    H2      21.634979   20.061050   19.738948 H          1 MOL1         0.0733
       7    C3      20.201299   19.769452   21.319097 C.2        1 MOL1        -0.1395
       8    H3      19.412521   20.401713   20.913362 H          1 MOL1         0.0816
       9    C4      20.248221   19.532829   22.635457 C.2        1 MOL1        -0.1394
      10    H4      21.025837   18.903537   23.066778 H          1 MOL1         0.0816
      11    C5      19.259610   20.098659   23.630658 C.3        1 MOL1        -0.1826
      12    H5      19.799448   20.533200   24.482872 H          1 MOL1         0.0736
      13    H6      18.679516   20.913727   23.176446 H          1 MOL1         0.0736
      14    C6      18.296099   19.006999   24.135596 C.3        1 MOL1        -0.2882
      15    H7      17.582045   19.422779   24.858308 H          1 MOL1         0.0749
      16    H8      17.725740   18.574978   23.302744 H          1 MOL1         0.0749
      17    H9      18.847509   18.195998   24.629239 H          1 MOL1         0.0749
@<TRIPOS>BOND
    1     1     2    1
    2     1     3    2
    3     1     4    1
    4     4     5    1
    5     4     6    1
    6     4     7    1
    7     7     8    1
    8     7     9    2
    9     9    10    1
   10     9    11    1
   11    11    12    1
   12    11    13    1
   13    11    14    1
   14    14    15    1
   15    14    16    1
   16    14    17    1
@<TRIPOS>SUBSTRUCTURE
       1 MOL1            1 RESIDUE      1      MOL     
@<SCITEGIC>MOL_PROPERTY
VConf Rank
SciTegic.value.IntegerValue
515

@<SCITEGIC>MOL_PROPERTY
Conf_Id
SciTegic.value.IntegerValue
39

@<SCITEGIC>MOL_PROPERTY
Delta U+W
SciTegic.value.DoubleValue
-0.422

@<SCITEGIC>MOL_PROPERTY
U+W
SciTegic.value.DoubleValue
-49.849

@<SCITEGIC>MOL_PROPERTY
Grad RMS
SciTegic.value.DoubleValue
0.000000

@<SCITEGIC>MOL_PROPERTY
U
SciTegic.value.DoubleValue
14.465

@<SCITEGIC>MOL_PROPERTY
W
SciTegic.value.DoubleValue
-64.314

@<SCITEGIC>MOL_PROPERTY
W(PB)
SciTegic.value.DoubleValue
-66.406

@<SCITEGIC>MOL_PROPERTY
W(SA)
SciTegic.value.DoubleValue
2.093

@<SCITEGIC>MOL_PROPERTY
Valence
SciTegic.value.DoubleValue
14.072

@<SCITEGIC>MOL_PROPERTY
Coulomb
SciTegic.value.DoubleValue
-0.199

@<SCITEGIC>MOL_PROPERTY
VdW
SciTegic.value.DoubleValue
0.592

@<SCITEGIC>MOL_PROPERTY
VdW6
SciTegic.value.DoubleValue
-5.019

@<SCITEGIC>MOL_PROPERTY
VdW12
SciTegic.value.DoubleValue
5.611

@<SCITEGIC>MOL_PROPERTY
Bond
SciTegic.value.DoubleValue
0.085

@<SCITEGIC>MOL_PROPERTY
Angle
SciTegic.value.DoubleValue
2.748

@<SCITEGIC>MOL_PROPERTY
Pdih
SciTegic.value.DoubleValue
11.238

@<SCITEGIC>MOL_PROPERTY
Idih
SciTegic.value.DoubleValue
0.001

@<SCITEGIC>MOL_PROPERTY
Tether
SciTegic.value.DoubleValue
0.000

@<TRIPOS>MOLECULE
guest-s20_confgen4.mol2 : confsearch ligand conformer 516
          17          16           1
SMALL
USER_CHARGES
 
@<TRIPOS>ATOM
       1    C1      19.911879   19.721410   18.978461 C.2        1 MOL1         0.6132
       2    O1      20.956112   19.684621   18.357830 O.co2      1 MOL1        -0.6749
       3    O2      19.019427   20.512746   18.745788 O.co2      1 MOL1        -0.6749
       4    C2      19.710634   18.716658   20.105217 C.3        1 MOL1        -0.1955
       5    H1      20.101888   17.750460   19.766261 H          1 MOL1         0.0733
       6    H2      18.632878   18.588916   20.262581 H          1 MOL1         0.0733
       7    C3      20.401391   19.136991   21.388540 C.2        1 MOL1        -0.1395
       8    H3      21.490418   19.130281   21.354239 H          1 MOL1         0.0816
       9    C4      19.759251   19.499576   22.503178 C.2        1 MOL1        -0.1394
      10    H4      18.670258   19.508920   22.535851 H          1 MOL1         0.0816
      11    C5      20.449698   19.922035   23.780727 C.3        1 MOL1        -0.1826
      12    H5      21.511331   20.133238   23.592178 H          1 MOL1         0.0736
      13    H6      20.003894   20.854720   24.152066 H          1 MOL1         0.0736
      14    C6      20.331086   18.829946   24.861622 C.3        1 MOL1        -0.2882
      15    H7      20.793622   17.893712   24.522317 H          1 MOL1         0.0749
      16    H8      20.833347   19.142438   25.786376 H          1 MOL1         0.0749
      17    H9      19.278599   18.625441   25.098009 H          1 MOL1         0.0749
@<TRIPOS>BOND
    1     1     2    1
    2     1     3    2
    3     1     4    1
    4     4     5    1
    5     4     6    1
    6     4     7    1
    7     7     8    1
    8     7     9    2
    9     9    10    1
   10     9    11    1
   11    11    12    1
   12    11    13    1
   13    11    14    1
   14    14    15    1
   15    14    16    1
   16    14    17    1
@<TRIPOS>SUBSTRUCTURE
       1 MOL1            1 RESIDUE      1      MOL     
@<SCITEGIC>MOL_PROPERTY
VConf Rank
SciTegic.value.IntegerValue
516

@<SCITEGIC>MOL_PROPERTY
Conf_Id
SciTegic.value.IntegerValue
38

@<SCITEGIC>MOL_PROPERTY
Delta U+W
SciTegic.value.DoubleValue
0.000

@<SCITEGIC>MOL_PROPERTY
U+W
SciTegic.value.DoubleValue
-49.427

@<SCITEGIC>MOL_PROPERTY
Grad RMS
SciTegic.value.DoubleValue
0.000000

@<SCITEGIC>MOL_PROPERTY
U
SciTegic.value.DoubleValue
13.666

@<SCITEGIC>MOL_PROPERTY
W
SciTegic.value.DoubleValue
-63.093

@<SCITEGIC>MOL_PROPERTY
W(PB)
SciTegic.value.DoubleValue
-65.225

@<SCITEGIC>MOL_PROPERTY
W(SA)
SciTegic.value.DoubleValue
2.132

@<SCITEGIC>MOL_PROPERTY
Valence
SciTegic.value.DoubleValue
15.226

@<SCITEGIC>MOL_PROPERTY
Coulomb
SciTegic.value.DoubleValue
-1.822

@<SCITEGIC>MOL_PROPERTY
VdW
SciTegic.value.DoubleValue
0.261

@<SCITEGIC>MOL_PROPERTY
VdW6
SciTegic.value.DoubleValue
-4.165

@<SCITEGIC>MOL_PROPERTY
VdW12
SciTegic.value.DoubleValue
4.426

@<SCITEGIC>MOL_PROPERTY
Bond
SciTegic.value.DoubleValue
0.044

@<SCITEGIC>MOL_PROPERTY
Angle
SciTegic.value.DoubleValue
2.229

@<SCITEGIC>MOL_PROPERTY
Pdih
SciTegic.value.DoubleValue
12.953

@<SCITEGIC>MOL_PROPERTY
Idih
SciTegic.value.DoubleValue
0.000

@<SCITEGIC>MOL_PROPERTY
Tether
SciTegic.value.DoubleValue
0.000

@<TRIPOS>MOLECULE
guest-s20_confgen4.mol2 : confsearch ligand conformer 517
          17          16           1
SMALL
USER_CHARGES
 
@<TRIPOS>ATOM
       1    C1      21.872245   21.869499   21.867230 C.2        1 MOL1         0.6132
       2    O1      21.924003   22.211049   20.702119 O.co2      1 MOL1        -0.6749
       3    O2      22.810223   21.955927   22.635140 O.co2      1 MOL1        -0.6749
       4    C2      20.559816   21.307317   22.397407 C.3        1 MOL1        -0.1955
       5    H1      19.746243   21.678398   21.762555 H          1 MOL1         0.0733
       6    H2      20.398705   21.721129   23.399560 H          1 MOL1         0.0733
       7    C3      20.557620   19.791530   22.453334 C.2        1 MOL1        -0.1395
       8    H3      21.233169   19.352235   23.186720 H          1 MOL1         0.0816
       9    C4      19.799798   19.012325   21.675661 C.2        1 MOL1        -0.1394
      10    H4      19.126846   19.452179   20.940322 H          1 MOL1         0.0816
      11    C5      19.801842   17.500916   21.730088 C.3        1 MOL1        -0.1826
      12    H5      19.893545   17.093530   20.714135 H          1 MOL1         0.0736
      13    H6      20.671416   17.137791   22.295066 H          1 MOL1         0.0736
      14    C6      18.511159   16.968460   22.382535 C.3        1 MOL1        -0.2882
      15    H7      17.626067   17.285040   21.815246 H          1 MOL1         0.0749
      16    H8      18.518109   15.871310   22.418568 H          1 MOL1         0.0749
      17    H9      18.410721   17.342471   23.409973 H          1 MOL1         0.0749
@<TRIPOS>BOND
    1     1     2    1
    2     1     3    2
    3     1     4    1
    4     4     5    1
    5     4     6    1
    6     4     7    1
    7     7     8    1
    8     7     9    2
    9     9    10    1
   10     9    11    1
   11    11    12    1
   12    11    13    1
   13    11    14    1
   14    14    15    1
   15    14    16    1
   16    14    17    1
@<TRIPOS>SUBSTRUCTURE
       1 MOL1            1 RESIDUE      1      MOL     
@<SCITEGIC>MOL_PROPERTY
VConf Rank
SciTegic.value.IntegerValue
517

@<SCITEGIC>MOL_PROPERTY
Conf_Id
SciTegic.value.IntegerValue
35

@<SCITEGIC>MOL_PROPERTY
Delta U+W
SciTegic.value.DoubleValue
-0.102

@<SCITEGIC>MOL_PROPERTY
U+W
SciTegic.value.DoubleValue
-49.529

@<SCITEGIC>MOL_PROPERTY
Grad RMS
SciTegic.value.DoubleValue
0.000000

@<SCITEGIC>MOL_PROPERTY
U
SciTegic.value.DoubleValue
13.666

@<SCITEGIC>MOL_PROPERTY
W
SciTegic.value.DoubleValue
-63.195

@<SCITEGIC>MOL_PROPERTY
W(PB)
SciTegic.value.DoubleValue
-65.299

@<SCITEGIC>MOL_PROPERTY
W(SA)
SciTegic.value.DoubleValue
2.103

@<SCITEGIC>MOL_PROPERTY
Valence
SciTegic.value.DoubleValue
15.226

@<SCITEGIC>MOL_PROPERTY
Coulomb
SciTegic.value.DoubleValue
-1.822

@<SCITEGIC>MOL_PROPERTY
VdW
SciTegic.value.DoubleValue
0.261

@<SCITEGIC>MOL_PROPERTY
VdW6
SciTegic.value.DoubleValue
-4.165

@<SCITEGIC>MOL_PROPERTY
VdW12
SciTegic.value.DoubleValue
4.426

@<SCITEGIC>MOL_PROPERTY
Bond
SciTegic.value.DoubleValue
0.044

@<SCITEGIC>MOL_PROPERTY
Angle
SciTegic.value.DoubleValue
2.229

@<SCITEGIC>MOL_PROPERTY
Pdih
SciTegic.value.DoubleValue
12.953

@<SCITEGIC>MOL_PROPERTY
Idih
SciTegic.value.DoubleValue
0.000

@<SCITEGIC>MOL_PROPERTY
Tether
SciTegic.value.DoubleValue
0.000

@<TRIPOS>MOLECULE
guest-s20_confgen4.mol2 : confsearch ligand conformer 518
          17          16           1
SMALL
USER_CHARGES
 
@<TRIPOS>ATOM
       1    C1      19.534711   18.306589   19.445760 C.2        1 MOL1         0.6132
       2    O1      20.545905   18.214809   18.777902 O.co2      1 MOL1        -0.6749
       3    O2      18.642521   17.481586   19.431099 O.co2      1 MOL1        -0.6749
       4    C2      19.374631   19.527516   20.342089 C.3        1 MOL1        -0.1955
       5    H1      18.303973   19.684056   20.520340 H          1 MOL1         0.0733
       6    H2      19.737945   20.400152   19.787093 H          1 MOL1         0.0733
       7    C3      20.130980   19.390625   21.649988 C.2        1 MOL1        -0.1395
       8    H3      21.214997   19.390225   21.549997 H          1 MOL1         0.0816
       9    C4      19.540299   19.272270   22.845731 C.2        1 MOL1        -0.1394
      10    H4      18.452436   19.272289   22.906051 H          1 MOL1         0.0816
      11    C5      20.233457   19.128271   24.190121 C.3        1 MOL1        -0.1826
      12    H5      19.905736   19.943278   24.849567 H          1 MOL1         0.0736
      13    H6      19.889060   18.202844   24.671262 H          1 MOL1         0.0736
      14    C6      21.776951   19.119289   24.130324 C.3        1 MOL1        -0.2882
      15    H7      22.160178   20.055312   23.703240 H          1 MOL1         0.0749
      16    H8      22.200482   19.011227   25.137287 H          1 MOL1         0.0749
      17    H9      22.142602   18.282784   23.520368 H          1 MOL1         0.0749
@<TRIPOS>BOND
    1     1     2    1
    2     1     3    2
    3     1     4    1
    4     4     5    1
    5     4     6    1
    6     4     7    1
    7     7     8    1
    8     7     9    2
    9     9    10    1
   10     9    11    1
   11    11    12    1
   12    11    13    1
   13    11    14    1
   14    14    15    1
   15    14    16    1
   16    14    17    1
@<TRIPOS>SUBSTRUCTURE
       1 MOL1            1 RESIDUE      1      MOL     
@<SCITEGIC>MOL_PROPERTY
VConf Rank
SciTegic.value.IntegerValue
518

@<SCITEGIC>MOL_PROPERTY
Conf_Id
SciTegic.value.IntegerValue
19

@<SCITEGIC>MOL_PROPERTY
Delta U+W
SciTegic.value.DoubleValue
-0.496

@<SCITEGIC>MOL_PROPERTY
U+W
SciTegic.value.DoubleValue
-49.923

@<SCITEGIC>MOL_PROPERTY
Grad RMS
SciTegic.value.DoubleValue
0.000000

@<SCITEGIC>MOL_PROPERTY
U
SciTegic.value.DoubleValue
13.863

@<SCITEGIC>MOL_PROPERTY
W
SciTegic.value.DoubleValue
-63.786

@<SCITEGIC>MOL_PROPERTY
W(PB)
SciTegic.value.DoubleValue
-65.856

@<SCITEGIC>MOL_PROPERTY
W(SA)
SciTegic.value.DoubleValue
2.070

@<SCITEGIC>MOL_PROPERTY
Valence
SciTegic.value.DoubleValue
14.117

@<SCITEGIC>MOL_PROPERTY
Coulomb
SciTegic.value.DoubleValue
-1.228

@<SCITEGIC>MOL_PROPERTY
VdW
SciTegic.value.DoubleValue
0.974

@<SCITEGIC>MOL_PROPERTY
VdW6
SciTegic.value.DoubleValue
-4.885

@<SCITEGIC>MOL_PROPERTY
VdW12
SciTegic.value.DoubleValue
5.859

@<SCITEGIC>MOL_PROPERTY
Bond
SciTegic.value.DoubleValue
0.094

@<SCITEGIC>MOL_PROPERTY
Angle
SciTegic.value.DoubleValue
2.818

@<SCITEGIC>MOL_PROPERTY
Pdih
SciTegic.value.DoubleValue
11.205

@<SCITEGIC>MOL_PROPERTY
Idih
SciTegic.value.DoubleValue
0.000

@<SCITEGIC>MOL_PROPERTY
Tether
SciTegic.value.DoubleValue
0.000

@<TRIPOS>MOLECULE
guest-s20_confgen4.mol2 : confsearch ligand conformer 519
          17          16           1
SMALL
USER_CHARGES
 
@<TRIPOS>ATOM
       1    C1      17.709395   18.022964   20.970628 C.2        1 MOL1         0.6132
       2    O1      16.963273   18.980469   21.028060 O.co2      1 MOL1        -0.6749
       3    O2      17.854367   17.342836   19.973928 O.co2      1 MOL1        -0.6749
       4    C2      18.498754   17.646400   22.217600 C.3        1 MOL1        -0.1955
       5    H1      18.475720   16.554519   22.311143 H          1 MOL1         0.0733
       6    H2      17.975913   18.054440   23.090981 H          1 MOL1         0.0733
       7    C3      19.933928   18.134640   22.166001 C.2        1 MOL1        -0.1395
       8    H3      20.561810   17.654423   21.416087 H          1 MOL1         0.0816
       9    C4      20.431927   19.088341   22.958885 C.2        1 MOL1        -0.1394
      10    H4      19.802250   19.571806   23.705094 H          1 MOL1         0.0816
      11    C5      21.862556   19.575788   22.903816 C.3        1 MOL1        -0.1826
      12    H5      22.284307   19.603606   23.917657 H          1 MOL1         0.0736
      13    H6      22.483588   18.880110   22.322817 H          1 MOL1         0.0736
      14    C6      21.944823   20.980042   22.274295 C.3        1 MOL1        -0.2882
      15    H7      21.363279   21.705629   22.858038 H          1 MOL1         0.0749
      16    H8      22.985058   21.328669   22.236396 H          1 MOL1         0.0749
      17    H9      21.550627   20.971326   21.249496 H          1 MOL1         0.0749
@<TRIPOS>BOND
    1     1     2    1
    2     1     3    2
    3     1     4    1
    4     4     5    1
    5     4     6    1
    6     4     7    1
    7     7     8    1
    8     7     9    2
    9     9    10    1
   10     9    11    1
   11    11    12    1
   12    11    13    1
   13    11    14    1
   14    14    15    1
   15    14    16    1
   16    14    17    1
@<TRIPOS>SUBSTRUCTURE
       1 MOL1            1 RESIDUE      1      MOL     
@<SCITEGIC>MOL_PROPERTY
VConf Rank
SciTegic.value.IntegerValue
519

@<SCITEGIC>MOL_PROPERTY
Conf_Id
SciTegic.value.IntegerValue
7

@<SCITEGIC>MOL_PROPERTY
Delta U+W
SciTegic.value.DoubleValue
-0.041

@<SCITEGIC>MOL_PROPERTY
U+W
SciTegic.value.DoubleValue
-49.468

@<SCITEGIC>MOL_PROPERTY
Grad RMS
SciTegic.value.DoubleValue
0.000000

@<SCITEGIC>MOL_PROPERTY
U
SciTegic.value.DoubleValue
14.121

@<SCITEGIC>MOL_PROPERTY
W
SciTegic.value.DoubleValue
-63.589

@<SCITEGIC>MOL_PROPERTY
W(PB)
SciTegic.value.DoubleValue
-65.660

@<SCITEGIC>MOL_PROPERTY
W(SA)
SciTegic.value.DoubleValue
2.071

@<SCITEGIC>MOL_PROPERTY
Valence
SciTegic.value.DoubleValue
15.230

@<SCITEGIC>MOL_PROPERTY
Coulomb
SciTegic.value.DoubleValue
-1.333

@<SCITEGIC>MOL_PROPERTY
VdW
SciTegic.value.DoubleValue
0.224

@<SCITEGIC>MOL_PROPERTY
VdW6
SciTegic.value.DoubleValue
-4.212

@<SCITEGIC>MOL_PROPERTY
VdW12
SciTegic.value.DoubleValue
4.436

@<SCITEGIC>MOL_PROPERTY
Bond
SciTegic.value.DoubleValue
0.044

@<SCITEGIC>MOL_PROPERTY
Angle
SciTegic.value.DoubleValue
2.230

@<SCITEGIC>MOL_PROPERTY
Pdih
SciTegic.value.DoubleValue
12.956

@<SCITEGIC>MOL_PROPERTY
Idih
SciTegic.value.DoubleValue
0.000

@<SCITEGIC>MOL_PROPERTY
Tether
SciTegic.value.DoubleValue
0.000

@<TRIPOS>MOLECULE
guest-s20_confgen4.mol2 : confsearch ligand conformer 520
          17          16           1
SMALL
USER_CHARGES
 
@<TRIPOS>ATOM
       1    C1      18.143462   17.355759   22.344690 C.2        1 MOL1         0.6132
       2    O1      18.151592   17.063818   23.524392 O.co2      1 MOL1        -0.6749
       3    O2      18.257514   16.540474   21.450607 O.co2      1 MOL1        -0.6749
       4    C2      17.951885   18.820907   21.964933 C.3        1 MOL1        -0.1955
       5    H1      17.315064   19.285320   22.726870 H          1 MOL1         0.0733
       6    H2      17.377793   18.853494   21.031618 H          1 MOL1         0.0733
       7    C3      19.230629   19.631109   21.805989 C.2        1 MOL1        -0.1395
       8    H3      19.071149   20.673951   21.534709 H          1 MOL1         0.0816
       9    C4      20.477419   19.173511   21.970654 C.2        1 MOL1        -0.1394
      10    H4      20.664557   18.135402   22.242762 H          1 MOL1         0.0816
      11    C5      21.717703   20.022118   21.798890 C.3        1 MOL1        -0.1826
      12    H5      22.444333   19.492655   21.167861 H          1 MOL1         0.0736
      13    H6      21.474203   20.959627   21.280297 H          1 MOL1         0.0736
      14    C6      22.360389   20.345400   23.161783 C.3        1 MOL1        -0.2882
      15    H7      23.260496   20.960038   23.031064 H          1 MOL1         0.0749
      16    H8      21.659993   20.898247   23.801627 H          1 MOL1         0.0749
      17    H9      22.649225   19.425241   23.686511 H          1 MOL1         0.0749
@<TRIPOS>BOND
    1     1     2    1
    2     1     3    2
    3     1     4    1
    4     4     5    1
    5     4     6    1
    6     4     7    1
    7     7     8    1
    8     7     9    2
    9     9    10    1
   10     9    11    1
   11    11    12    1
   12    11    13    1
   13    11    14    1
   14    14    15    1
   15    14    16    1
   16    14    17    1
@<TRIPOS>SUBSTRUCTURE
       1 MOL1            1 RESIDUE      1      MOL     
@<SCITEGIC>MOL_PROPERTY
VConf Rank
SciTegic.value.IntegerValue
520

@<SCITEGIC>MOL_PROPERTY
Conf_Id
SciTegic.value.IntegerValue
39

@<SCITEGIC>MOL_PROPERTY
Delta U+W
SciTegic.value.DoubleValue
-0.422

@<SCITEGIC>MOL_PROPERTY
U+W
SciTegic.value.DoubleValue
-49.849

@<SCITEGIC>MOL_PROPERTY
Grad RMS
SciTegic.value.DoubleValue
0.000000

@<SCITEGIC>MOL_PROPERTY
U
SciTegic.value.DoubleValue
14.465

@<SCITEGIC>MOL_PROPERTY
W
SciTegic.value.DoubleValue
-64.314

@<SCITEGIC>MOL_PROPERTY
W(PB)
SciTegic.value.DoubleValue
-66.406

@<SCITEGIC>MOL_PROPERTY
W(SA)
SciTegic.value.DoubleValue
2.093

@<SCITEGIC>MOL_PROPERTY
Valence
SciTegic.value.DoubleValue
14.072

@<SCITEGIC>MOL_PROPERTY
Coulomb
SciTegic.value.DoubleValue
-0.199

@<SCITEGIC>MOL_PROPERTY
VdW
SciTegic.value.DoubleValue
0.592

@<SCITEGIC>MOL_PROPERTY
VdW6
SciTegic.value.DoubleValue
-5.019

@<SCITEGIC>MOL_PROPERTY
VdW12
SciTegic.value.DoubleValue
5.611

@<SCITEGIC>MOL_PROPERTY
Bond
SciTegic.value.DoubleValue
0.085

@<SCITEGIC>MOL_PROPERTY
Angle
SciTegic.value.DoubleValue
2.748

@<SCITEGIC>MOL_PROPERTY
Pdih
SciTegic.value.DoubleValue
11.238

@<SCITEGIC>MOL_PROPERTY
Idih
SciTegic.value.DoubleValue
0.001

@<SCITEGIC>MOL_PROPERTY
Tether
SciTegic.value.DoubleValue
0.000

@<TRIPOS>MOLECULE
guest-s20_confgen4.mol2 : confsearch ligand conformer 521
          17          16           1
SMALL
USER_CHARGES
 
@<TRIPOS>ATOM
       1    C1      19.158193   22.127788   23.088488 C.2        1 MOL1         0.6132
       2    O1      18.849073   22.223277   24.259934 O.co2      1 MOL1        -0.6749
       3    O2      18.556273   22.678270   22.187665 O.co2      1 MOL1        -0.6749
       4    C2      20.369416   21.275728   22.732768 C.3        1 MOL1        -0.1955
       5    H1      21.146804   21.469821   23.480769 H          1 MOL1         0.0733
       6    H2      20.759784   21.620299   21.767613 H          1 MOL1         0.0733
       7    C3      20.045433   19.794510   22.690656 C.2        1 MOL1        -0.1395
       8    H3      19.803643   19.343806   23.652740 H          1 MOL1         0.0816
       9    C4      20.042459   19.057709   21.575604 C.2        1 MOL1        -0.1394
      10    H4      20.281425   19.509679   20.613482 H          1 MOL1         0.0816
      11    C5      19.715464   17.581651   21.534994 C.3        1 MOL1        -0.1826
      12    H5      19.243076   17.266571   22.475629 H          1 MOL1         0.0736
      13    H6      18.988167   17.384953   20.735692 H          1 MOL1         0.0736
      14    C6      20.983698   16.739837   21.294181 C.3        1 MOL1        -0.2882
      15    H7      21.716474   16.900718   22.095903 H          1 MOL1         0.0749
      16    H8      20.740038   15.669852   21.265074 H          1 MOL1         0.0749
      17    H9      21.456293   17.007642   20.340051 H          1 MOL1         0.0749
@<TRIPOS>BOND
    1     1     2    1
    2     1     3    2
    3     1     4    1
    4     4     5    1
    5     4     6    1
    6     4     7    1
    7     7     8    1
    8     7     9    2
    9     9    10    1
   10     9    11    1
   11    11    12    1
   12    11    13    1
   13    11    14    1
   14    14    15    1
   15    14    16    1
   16    14    17    1
@<TRIPOS>SUBSTRUCTURE
       1 MOL1            1 RESIDUE      1      MOL     
@<SCITEGIC>MOL_PROPERTY
VConf Rank
SciTegic.value.IntegerValue
521

@<SCITEGIC>MOL_PROPERTY
Conf_Id
SciTegic.value.IntegerValue
38

@<SCITEGIC>MOL_PROPERTY
Delta U+W
SciTegic.value.DoubleValue
0.000

@<SCITEGIC>MOL_PROPERTY
U+W
SciTegic.value.DoubleValue
-49.427

@<SCITEGIC>MOL_PROPERTY
Grad RMS
SciTegic.value.DoubleValue
0.000000

@<SCITEGIC>MOL_PROPERTY
U
SciTegic.value.DoubleValue
13.666

@<SCITEGIC>MOL_PROPERTY
W
SciTegic.value.DoubleValue
-63.093

@<SCITEGIC>MOL_PROPERTY
W(PB)
SciTegic.value.DoubleValue
-65.225

@<SCITEGIC>MOL_PROPERTY
W(SA)
SciTegic.value.DoubleValue
2.132

@<SCITEGIC>MOL_PROPERTY
Valence
SciTegic.value.DoubleValue
15.226

@<SCITEGIC>MOL_PROPERTY
Coulomb
SciTegic.value.DoubleValue
-1.822

@<SCITEGIC>MOL_PROPERTY
VdW
SciTegic.value.DoubleValue
0.261

@<SCITEGIC>MOL_PROPERTY
VdW6
SciTegic.value.DoubleValue
-4.165

@<SCITEGIC>MOL_PROPERTY
VdW12
SciTegic.value.DoubleValue
4.426

@<SCITEGIC>MOL_PROPERTY
Bond
SciTegic.value.DoubleValue
0.044

@<SCITEGIC>MOL_PROPERTY
Angle
SciTegic.value.DoubleValue
2.229

@<SCITEGIC>MOL_PROPERTY
Pdih
SciTegic.value.DoubleValue
12.953

@<SCITEGIC>MOL_PROPERTY
Idih
SciTegic.value.DoubleValue
0.000

@<SCITEGIC>MOL_PROPERTY
Tether
SciTegic.value.DoubleValue
0.000

@<TRIPOS>MOLECULE
guest-s20_confgen4.mol2 : confsearch ligand conformer 522
          17          16           1
SMALL
USER_CHARGES
 
@<TRIPOS>ATOM
       1    C1      20.271110   16.268091   23.097315 C.2        1 MOL1         0.6132
       2    O1      19.684832   15.551942   22.309769 O.co2      1 MOL1        -0.6749
       3    O2      20.262831   16.092735   24.299872 O.co2      1 MOL1        -0.6749
       4    C2      21.064495   17.446927   22.549146 C.3        1 MOL1        -0.1955
       5    H1      21.324451   17.230195   21.506030 H          1 MOL1         0.0733
       6    H2      22.005395   17.506437   23.108317 H          1 MOL1         0.0733
       7    C3      20.308953   18.757494   22.660109 C.2        1 MOL1        -0.1395
       8    H3      20.154673   19.120811   23.675688 H          1 MOL1         0.0816
       9    C4      19.845739   19.448330   21.613970 C.2        1 MOL1        -0.1394
      10    H4      19.997590   19.082836   20.598876 H          1 MOL1         0.0816
      11    C5      19.089107   20.752982   21.726728 C.3        1 MOL1        -0.1826
      12    H5      18.182663   20.710492   21.107788 H          1 MOL1         0.0736
      13    H6      18.757108   20.916633   22.761240 H          1 MOL1         0.0736
      14    C6      19.962696   21.940475   21.277548 C.3        1 MOL1        -0.2882
      15    H7      20.277812   21.821741   20.232545 H          1 MOL1         0.0749
      16    H8      19.408119   22.884180   21.360918 H          1 MOL1         0.0749
      17    H9      20.863954   22.018802   21.899800 H          1 MOL1         0.0749
@<TRIPOS>BOND
    1     1     2    1
    2     1     3    2
    3     1     4    1
    4     4     5    1
    5     4     6    1
    6     4     7    1
    7     7     8    1
    8     7     9    2
    9     9    10    1
   10     9    11    1
   11    11    12    1
   12    11    13    1
   13    11    14    1
   14    14    15    1
   15    14    16    1
   16    14    17    1
@<TRIPOS>SUBSTRUCTURE
       1 MOL1            1 RESIDUE      1      MOL     
@<SCITEGIC>MOL_PROPERTY
VConf Rank
SciTegic.value.IntegerValue
522

@<SCITEGIC>MOL_PROPERTY
Conf_Id
SciTegic.value.IntegerValue
35

@<SCITEGIC>MOL_PROPERTY
Delta U+W
SciTegic.value.DoubleValue
-0.102

@<SCITEGIC>MOL_PROPERTY
U+W
SciTegic.value.DoubleValue
-49.529

@<SCITEGIC>MOL_PROPERTY
Grad RMS
SciTegic.value.DoubleValue
0.000000

@<SCITEGIC>MOL_PROPERTY
U
SciTegic.value.DoubleValue
13.666

@<SCITEGIC>MOL_PROPERTY
W
SciTegic.value.DoubleValue
-63.195

@<SCITEGIC>MOL_PROPERTY
W(PB)
SciTegic.value.DoubleValue
-65.299

@<SCITEGIC>MOL_PROPERTY
W(SA)
SciTegic.value.DoubleValue
2.103

@<SCITEGIC>MOL_PROPERTY
Valence
SciTegic.value.DoubleValue
15.226

@<SCITEGIC>MOL_PROPERTY
Coulomb
SciTegic.value.DoubleValue
-1.822

@<SCITEGIC>MOL_PROPERTY
VdW
SciTegic.value.DoubleValue
0.261

@<SCITEGIC>MOL_PROPERTY
VdW6
SciTegic.value.DoubleValue
-4.165

@<SCITEGIC>MOL_PROPERTY
VdW12
SciTegic.value.DoubleValue
4.426

@<SCITEGIC>MOL_PROPERTY
Bond
SciTegic.value.DoubleValue
0.044

@<SCITEGIC>MOL_PROPERTY
Angle
SciTegic.value.DoubleValue
2.229

@<SCITEGIC>MOL_PROPERTY
Pdih
SciTegic.value.DoubleValue
12.953

@<SCITEGIC>MOL_PROPERTY
Idih
SciTegic.value.DoubleValue
0.000

@<SCITEGIC>MOL_PROPERTY
Tether
SciTegic.value.DoubleValue
0.000

@<TRIPOS>MOLECULE
guest-s20_confgen4.mol2 : confsearch ligand conformer 523
          17          16           1
SMALL
USER_CHARGES
 
@<TRIPOS>ATOM
       1    C1      22.192339   19.962042   20.183038 C.2        1 MOL1         0.6132
       2    O1      23.314353   19.674032   20.550605 O.co2      1 MOL1        -0.6749
       3    O2      21.784249   19.768029   19.054911 O.co2      1 MOL1        -0.6749
       4    C2      21.251112   20.609960   21.190008 C.3        1 MOL1        -0.1955
       5    H1      20.494853   21.178753   20.635813 H          1 MOL1         0.0733
       6    H2      21.831979   21.333389   21.773750 H          1 MOL1         0.0733
       7    C3      20.602616   19.596457   22.113950 C.2        1 MOL1        -0.1395
       8    H3      21.287356   19.109036   22.805790 H          1 MOL1         0.0816
       9    C4      19.297003   19.300038   22.099062 C.2        1 MOL1        -0.1394
      10    H4      18.642952   19.805405   21.389198 H          1 MOL1         0.0816
      11    C5      18.583897   18.296813   22.989910 C.3        1 MOL1        -0.1826
      12    H5      17.782416   18.811758   23.536686 H          1 MOL1         0.0736
      13    H6      18.079402   17.554000   22.357269 H          1 MOL1         0.0736
      14    C6      19.491387   17.562255   24.001302 C.3        1 MOL1        -0.2882
      15    H7      19.971799   18.271998   24.687502 H          1 MOL1         0.0749
      16    H8      18.904159   16.857292   24.603979 H          1 MOL1         0.0749
      17    H9      20.274992   16.991863   23.485447 H          1 MOL1         0.0749
@<TRIPOS>BOND
    1     1     2    1
    2     1     3    2
    3     1     4    1
    4     4     5    1
    5     4     6    1
    6     4     7    1
    7     7     8    1
    8     7     9    2
    9     9    10    1
   10     9    11    1
   11    11    12    1
   12    11    13    1
   13    11    14    1
   14    14    15    1
   15    14    16    1
   16    14    17    1
@<TRIPOS>SUBSTRUCTURE
       1 MOL1            1 RESIDUE      1      MOL     
@<SCITEGIC>MOL_PROPERTY
VConf Rank
SciTegic.value.IntegerValue
523

@<SCITEGIC>MOL_PROPERTY
Conf_Id
SciTegic.value.IntegerValue
19

@<SCITEGIC>MOL_PROPERTY
Delta U+W
SciTegic.value.DoubleValue
-0.496

@<SCITEGIC>MOL_PROPERTY
U+W
SciTegic.value.DoubleValue
-49.923

@<SCITEGIC>MOL_PROPERTY
Grad RMS
SciTegic.value.DoubleValue
0.000000

@<SCITEGIC>MOL_PROPERTY
U
SciTegic.value.DoubleValue
13.863

@<SCITEGIC>MOL_PROPERTY
W
SciTegic.value.DoubleValue
-63.786

@<SCITEGIC>MOL_PROPERTY
W(PB)
SciTegic.value.DoubleValue
-65.856

@<SCITEGIC>MOL_PROPERTY
W(SA)
SciTegic.value.DoubleValue
2.070

@<SCITEGIC>MOL_PROPERTY
Valence
SciTegic.value.DoubleValue
14.117

@<SCITEGIC>MOL_PROPERTY
Coulomb
SciTegic.value.DoubleValue
-1.228

@<SCITEGIC>MOL_PROPERTY
VdW
SciTegic.value.DoubleValue
0.974

@<SCITEGIC>MOL_PROPERTY
VdW6
SciTegic.value.DoubleValue
-4.885

@<SCITEGIC>MOL_PROPERTY
VdW12
SciTegic.value.DoubleValue
5.859

@<SCITEGIC>MOL_PROPERTY
Bond
SciTegic.value.DoubleValue
0.094

@<SCITEGIC>MOL_PROPERTY
Angle
SciTegic.value.DoubleValue
2.818

@<SCITEGIC>MOL_PROPERTY
Pdih
SciTegic.value.DoubleValue
11.205

@<SCITEGIC>MOL_PROPERTY
Idih
SciTegic.value.DoubleValue
0.000

@<SCITEGIC>MOL_PROPERTY
Tether
SciTegic.value.DoubleValue
0.000

@<TRIPOS>MOLECULE
guest-s20_confgen4.mol2 : confsearch ligand conformer 524
          17          16           1
SMALL
USER_CHARGES
 
@<TRIPOS>ATOM
       1    C1      18.735346   21.616819   21.925464 C.2        1 MOL1         0.6132
       2    O1      19.203286   22.276434   22.832521 O.co2      1 MOL1        -0.6749
       3    O2      18.595753   22.035124   20.792973 O.co2      1 MOL1        -0.6749
       4    C2      18.288898   20.191620   22.224331 C.3        1 MOL1        -0.1955
       5    H1      17.335564   20.024764   21.709746 H          1 MOL1         0.0733
       6    H2      18.091107   20.112399   23.300089 H          1 MOL1         0.0733
       7    C3      19.307692   19.158855   21.781367 C.2        1 MOL1        -0.1395
       8    H3      19.443331   19.071882   20.703753 H          1 MOL1         0.0816
       9    C4      20.015911   18.395038   22.618760 C.2        1 MOL1        -0.1394
      10    H4      19.883599   18.486064   23.696381 H          1 MOL1         0.0816
      11    C5      21.033444   17.367858   22.175067 C.3        1 MOL1        -0.1826
      12    H5      20.857679   16.420042   22.701635 H          1 MOL1         0.0736
      13    H6      20.924618   17.157526   21.102162 H          1 MOL1         0.0736
      14    C6      22.468740   17.853483   22.456292 C.3        1 MOL1        -0.2882
      15    H7      22.617787   18.034771   23.528833 H          1 MOL1         0.0749
      16    H8      23.202984   17.104611   22.132032 H          1 MOL1         0.0749
      17    H9      22.675837   18.788717   21.919515 H          1 MOL1         0.0749
@<TRIPOS>BOND
    1     1     2    1
    2     1     3    2
    3     1     4    1
    4     4     5    1
    5     4     6    1
    6     4     7    1
    7     7     8    1
    8     7     9    2
    9     9    10    1
   10     9    11    1
   11    11    12    1
   12    11    13    1
   13    11    14    1
   14    14    15    1
   15    14    16    1
   16    14    17    1
@<TRIPOS>SUBSTRUCTURE
       1 MOL1            1 RESIDUE      1      MOL     
@<SCITEGIC>MOL_PROPERTY
VConf Rank
SciTegic.value.IntegerValue
524

@<SCITEGIC>MOL_PROPERTY
Conf_Id
SciTegic.value.IntegerValue
7

@<SCITEGIC>MOL_PROPERTY
Delta U+W
SciTegic.value.DoubleValue
-0.041

@<SCITEGIC>MOL_PROPERTY
U+W
SciTegic.value.DoubleValue
-49.468

@<SCITEGIC>MOL_PROPERTY
Grad RMS
SciTegic.value.DoubleValue
0.000000

@<SCITEGIC>MOL_PROPERTY
U
SciTegic.value.DoubleValue
14.121

@<SCITEGIC>MOL_PROPERTY
W
SciTegic.value.DoubleValue
-63.589

@<SCITEGIC>MOL_PROPERTY
W(PB)
SciTegic.value.DoubleValue
-65.660

@<SCITEGIC>MOL_PROPERTY
W(SA)
SciTegic.value.DoubleValue
2.071

@<SCITEGIC>MOL_PROPERTY
Valence
SciTegic.value.DoubleValue
15.230

@<SCITEGIC>MOL_PROPERTY
Coulomb
SciTegic.value.DoubleValue
-1.333

@<SCITEGIC>MOL_PROPERTY
VdW
SciTegic.value.DoubleValue
0.224

@<SCITEGIC>MOL_PROPERTY
VdW6
SciTegic.value.DoubleValue
-4.212

@<SCITEGIC>MOL_PROPERTY
VdW12
SciTegic.value.DoubleValue
4.436

@<SCITEGIC>MOL_PROPERTY
Bond
SciTegic.value.DoubleValue
0.044

@<SCITEGIC>MOL_PROPERTY
Angle
SciTegic.value.DoubleValue
2.230

@<SCITEGIC>MOL_PROPERTY
Pdih
SciTegic.value.DoubleValue
12.956

@<SCITEGIC>MOL_PROPERTY
Idih
SciTegic.value.DoubleValue
0.000

@<SCITEGIC>MOL_PROPERTY
Tether
SciTegic.value.DoubleValue
0.000

@<TRIPOS>MOLECULE
guest-s20_confgen4.mol2 : confsearch ligand conformer 525
          17          16           1
SMALL
USER_CHARGES
 
@<TRIPOS>ATOM
       1    C1      18.813948   21.023206   23.948807 C.2        1 MOL1         0.6132
       2    O1      18.728922   20.352137   24.958476 O.co2      1 MOL1        -0.6749
       3    O2      17.859704   21.547906   23.409188 O.co2      1 MOL1        -0.6749
       4    C2      20.196390   21.241875   23.341669 C.3        1 MOL1        -0.1955
       5    H1      20.925523   21.251381   24.160230 H          1 MOL1         0.0733
       6    H2      20.217138   22.248404   22.907864 H          1 MOL1         0.0733
       7    C3      20.621323   20.224914   22.291860 C.2        1 MOL1        -0.1395
       8    H3      21.610945   20.399632   21.871541 H          1 MOL1         0.0816
       9    C4      19.898886   19.179870   21.871188 C.2        1 MOL1        -0.1394
      10    H4      18.906964   18.982025   22.275763 H          1 MOL1         0.0816
      11    C5      20.367986   18.197084   20.821418 C.3        1 MOL1        -0.1826
      12    H5      19.575934   18.045523   20.075628 H          1 MOL1         0.0736
      13    H6      21.237308   18.596376   20.281049 H          1 MOL1         0.0736
      14    C6      20.740525   16.843621   21.457333 C.3        1 MOL1        -0.2882
      15    H7      21.078795   16.134098   20.691037 H          1 MOL1         0.0749
      16    H8      21.549743   16.966460   22.189228 H          1 MOL1         0.0749
      17    H9      19.877370   16.402560   21.972977 H          1 MOL1         0.0749
@<TRIPOS>BOND
    1     1     2    1
    2     1     3    2
    3     1     4    1
    4     4     5    1
    5     4     6    1
    6     4     7    1
    7     7     8    1
    8     7     9    2
    9     9    10    1
   10     9    11    1
   11    11    12    1
   12    11    13    1
   13    11    14    1
   14    14    15    1
   15    14    16    1
   16    14    17    1
@<TRIPOS>SUBSTRUCTURE
       1 MOL1            1 RESIDUE      1      MOL     
@<SCITEGIC>MOL_PROPERTY
VConf Rank
SciTegic.value.IntegerValue
525

@<SCITEGIC>MOL_PROPERTY
Conf_Id
SciTegic.value.IntegerValue
39

@<SCITEGIC>MOL_PROPERTY
Delta U+W
SciTegic.value.DoubleValue
-0.422

@<SCITEGIC>MOL_PROPERTY
U+W
SciTegic.value.DoubleValue
-49.849

@<SCITEGIC>MOL_PROPERTY
Grad RMS
SciTegic.value.DoubleValue
0.000000

@<SCITEGIC>MOL_PROPERTY
U
SciTegic.value.DoubleValue
14.465

@<SCITEGIC>MOL_PROPERTY
W
SciTegic.value.DoubleValue
-64.314

@<SCITEGIC>MOL_PROPERTY
W(PB)
SciTegic.value.DoubleValue
-66.406

@<SCITEGIC>MOL_PROPERTY
W(SA)
SciTegic.value.DoubleValue
2.093

@<SCITEGIC>MOL_PROPERTY
Valence
SciTegic.value.DoubleValue
14.072

@<SCITEGIC>MOL_PROPERTY
Coulomb
SciTegic.value.DoubleValue
-0.199

@<SCITEGIC>MOL_PROPERTY
VdW
SciTegic.value.DoubleValue
0.592

@<SCITEGIC>MOL_PROPERTY
VdW6
SciTegic.value.DoubleValue
-5.019

@<SCITEGIC>MOL_PROPERTY
VdW12
SciTegic.value.DoubleValue
5.611

@<SCITEGIC>MOL_PROPERTY
Bond
SciTegic.value.DoubleValue
0.085

@<SCITEGIC>MOL_PROPERTY
Angle
SciTegic.value.DoubleValue
2.748

@<SCITEGIC>MOL_PROPERTY
Pdih
SciTegic.value.DoubleValue
11.238

@<SCITEGIC>MOL_PROPERTY
Idih
SciTegic.value.DoubleValue
0.001

@<SCITEGIC>MOL_PROPERTY
Tether
SciTegic.value.DoubleValue
0.000

@<TRIPOS>MOLECULE
guest-s20_confgen4.mol2 : confsearch ligand conformer 526
          17          16           1
SMALL
USER_CHARGES
 
@<TRIPOS>ATOM
       1    C1      20.284487   17.613692   24.794370 C.2        1 MOL1         0.6132
       2    O1      19.482681   17.899208   25.661866 O.co2      1 MOL1        -0.6749
       3    O2      21.447377   17.340538   25.017733 O.co2      1 MOL1        -0.6749
       4    C2      19.802211   17.592390   23.349877 C.3        1 MOL1        -0.1955
       5    H1      18.807086   17.133005   23.335739 H          1 MOL1         0.0733
       6    H2      20.466884   16.935585   22.775892 H          1 MOL1         0.0733
       7    C3      19.744781   18.978329   22.736183 C.2        1 MOL1        -0.1395
       8    H3      18.986755   19.640600   23.153310 H          1 MOL1         0.0816
       9    C4      20.548636   19.399147   21.754879 C.2        1 MOL1        -0.1394
      10    H4      21.308385   18.737373   21.340275 H          1 MOL1         0.0816
      11    C5      20.492426   20.782745   21.146751 C.3        1 MOL1        -0.1826
      12    H5      19.896076   21.456056   21.777814 H          1 MOL1         0.0736
      13    H6      21.503945   21.208367   21.099742 H          1 MOL1         0.0736
      14    C6      19.886268   20.741027   19.730456 C.3        1 MOL1        -0.2882
      15    H7      18.863567   20.342219   19.755678 H          1 MOL1         0.0749
      16    H8      19.848687   21.747662   19.294153 H          1 MOL1         0.0749
      17    H9      20.485461   20.104166   19.066525 H          1 MOL1         0.0749
@<TRIPOS>BOND
    1     1     2    1
    2     1     3    2
    3     1     4    1
    4     4     5    1
    5     4     6    1
    6     4     7    1
    7     7     8    1
    8     7     9    2
    9     9    10    1
   10     9    11    1
   11    11    12    1
   12    11    13    1
   13    11    14    1
   14    14    15    1
   15    14    16    1
   16    14    17    1
@<TRIPOS>SUBSTRUCTURE
       1 MOL1            1 RESIDUE      1      MOL     
@<SCITEGIC>MOL_PROPERTY
VConf Rank
SciTegic.value.IntegerValue
526

@<SCITEGIC>MOL_PROPERTY
Conf_Id
SciTegic.value.IntegerValue
38

@<SCITEGIC>MOL_PROPERTY
Delta U+W
SciTegic.value.DoubleValue
0.000

@<SCITEGIC>MOL_PROPERTY
U+W
SciTegic.value.DoubleValue
-49.427

@<SCITEGIC>MOL_PROPERTY
Grad RMS
SciTegic.value.DoubleValue
0.000000

@<SCITEGIC>MOL_PROPERTY
U
SciTegic.value.DoubleValue
13.666

@<SCITEGIC>MOL_PROPERTY
W
SciTegic.value.DoubleValue
-63.093

@<SCITEGIC>MOL_PROPERTY
W(PB)
SciTegic.value.DoubleValue
-65.225

@<SCITEGIC>MOL_PROPERTY
W(SA)
SciTegic.value.DoubleValue
2.132

@<SCITEGIC>MOL_PROPERTY
Valence
SciTegic.value.DoubleValue
15.226

@<SCITEGIC>MOL_PROPERTY
Coulomb
SciTegic.value.DoubleValue
-1.822

@<SCITEGIC>MOL_PROPERTY
VdW
SciTegic.value.DoubleValue
0.261

@<SCITEGIC>MOL_PROPERTY
VdW6
SciTegic.value.DoubleValue
-4.165

@<SCITEGIC>MOL_PROPERTY
VdW12
SciTegic.value.DoubleValue
4.426

@<SCITEGIC>MOL_PROPERTY
Bond
SciTegic.value.DoubleValue
0.044

@<SCITEGIC>MOL_PROPERTY
Angle
SciTegic.value.DoubleValue
2.229

@<SCITEGIC>MOL_PROPERTY
Pdih
SciTegic.value.DoubleValue
12.953

@<SCITEGIC>MOL_PROPERTY
Idih
SciTegic.value.DoubleValue
0.000

@<SCITEGIC>MOL_PROPERTY
Tether
SciTegic.value.DoubleValue
0.000

@<TRIPOS>MOLECULE
guest-s20_confgen4.mol2 : confsearch ligand conformer 527
          17          16           1
SMALL
USER_CHARGES
 
@<TRIPOS>ATOM
       1    C1      20.039598   16.509206   23.655881 C.2        1 MOL1         0.6132
       2    O1      18.885534   16.174022   23.836455 O.co2      1 MOL1        -0.6749
       3    O2      20.926880   16.327121   24.466151 O.co2      1 MOL1        -0.6749
       4    C2      20.396688   17.189787   22.341004 C.3        1 MOL1        -0.1955
       5    H1      19.648412   16.903472   21.592174 H          1 MOL1         0.0733
       6    H2      21.358143   16.784905   22.004580 H          1 MOL1         0.0733
       7    C3      20.484337   18.698326   22.472804 C.2        1 MOL1        -0.1395
       8    H3      21.312725   19.064907   23.078273 H          1 MOL1         0.0816
       9    C4      19.626985   19.552858   21.906278 C.2        1 MOL1        -0.1394
      10    H4      18.797007   19.185488   21.303587 H          1 MOL1         0.0816
      11    C5      19.713636   21.056646   22.042057 C.3        1 MOL1        -0.1826
      12    H5      18.728855   21.461880   22.311362 H          1 MOL1         0.0736
      13    H6      20.400225   21.330274   22.855040 H          1 MOL1         0.0736
      14    C6      20.194156   21.704538   20.728894 C.3        1 MOL1        -0.2882
      15    H7      19.504149   21.478744   19.905283 H          1 MOL1         0.0749
      16    H8      20.254364   22.795663   20.833328 H          1 MOL1         0.0749
      17    H9      21.189830   21.333265   20.452506 H          1 MOL1         0.0749
@<TRIPOS>BOND
    1     1     2    1
    2     1     3    2
    3     1     4    1
    4     4     5    1
    5     4     6    1
    6     4     7    1
    7     7     8    1
    8     7     9    2
    9     9    10    1
   10     9    11    1
   11    11    12    1
   12    11    13    1
   13    11    14    1
   14    14    15    1
   15    14    16    1
   16    14    17    1
@<TRIPOS>SUBSTRUCTURE
       1 MOL1            1 RESIDUE      1      MOL     
@<SCITEGIC>MOL_PROPERTY
VConf Rank
SciTegic.value.IntegerValue
527

@<SCITEGIC>MOL_PROPERTY
Conf_Id
SciTegic.value.IntegerValue
35

@<SCITEGIC>MOL_PROPERTY
Delta U+W
SciTegic.value.DoubleValue
-0.102

@<SCITEGIC>MOL_PROPERTY
U+W
SciTegic.value.DoubleValue
-49.529

@<SCITEGIC>MOL_PROPERTY
Grad RMS
SciTegic.value.DoubleValue
0.000000

@<SCITEGIC>MOL_PROPERTY
U
SciTegic.value.DoubleValue
13.666

@<SCITEGIC>MOL_PROPERTY
W
SciTegic.value.DoubleValue
-63.195

@<SCITEGIC>MOL_PROPERTY
W(PB)
SciTegic.value.DoubleValue
-65.299

@<SCITEGIC>MOL_PROPERTY
W(SA)
SciTegic.value.DoubleValue
2.103

@<SCITEGIC>MOL_PROPERTY
Valence
SciTegic.value.DoubleValue
15.226

@<SCITEGIC>MOL_PROPERTY
Coulomb
SciTegic.value.DoubleValue
-1.822

@<SCITEGIC>MOL_PROPERTY
VdW
SciTegic.value.DoubleValue
0.261

@<SCITEGIC>MOL_PROPERTY
VdW6
SciTegic.value.DoubleValue
-4.165

@<SCITEGIC>MOL_PROPERTY
VdW12
SciTegic.value.DoubleValue
4.426

@<SCITEGIC>MOL_PROPERTY
Bond
SciTegic.value.DoubleValue
0.044

@<SCITEGIC>MOL_PROPERTY
Angle
SciTegic.value.DoubleValue
2.229

@<SCITEGIC>MOL_PROPERTY
Pdih
SciTegic.value.DoubleValue
12.953

@<SCITEGIC>MOL_PROPERTY
Idih
SciTegic.value.DoubleValue
0.000

@<SCITEGIC>MOL_PROPERTY
Tether
SciTegic.value.DoubleValue
0.000

@<TRIPOS>MOLECULE
guest-s20_confgen4.mol2 : confsearch ligand conformer 528
          17          16           1
SMALL
USER_CHARGES
 
@<TRIPOS>ATOM
       1    C1      18.964165   20.761357   24.291147 C.2        1 MOL1         0.6132
       2    O1      19.321716   20.385107   25.390039 O.co2      1 MOL1        -0.6749
       3    O2      18.922570   21.930387   23.961772 O.co2      1 MOL1        -0.6749
       4    C2      18.536323   19.709467   23.276172 C.3        1 MOL1        -0.1955
       5    H1      17.865770   20.185631   22.550767 H          1 MOL1         0.0733
       6    H2      17.948144   18.951926   23.806915 H          1 MOL1         0.0733
       7    C3      19.717624   19.058754   22.581546 C.2        1 MOL1        -0.1395
       8    H3      20.336749   18.436393   23.225317 H          1 MOL1         0.0816
       9    C4      20.004368   19.222705   21.284006 C.2        1 MOL1        -0.1394
      10    H4      19.363989   19.856907   20.671808 H          1 MOL1         0.0816
      11    C5      21.168806   18.606596   20.526983 C.3        1 MOL1        -0.1826
      12    H5      20.776757   18.021786   19.683893 H          1 MOL1         0.0736
      13    H6      21.765946   19.410660   20.075956 H          1 MOL1         0.0736
      14    C6      22.095410   17.707634   21.375098 C.3        1 MOL1        -0.2882
      15    H7      21.541615   16.859675   21.798985 H          1 MOL1         0.0749
      16    H8      22.908852   17.303322   20.758761 H          1 MOL1         0.0749
      17    H9      22.548063   18.274813   22.199053 H          1 MOL1         0.0749
@<TRIPOS>BOND
    1     1     2    1
    2     1     3    2
    3     1     4    1
    4     4     5    1
    5     4     6    1
    6     4     7    1
    7     7     8    1
    8     7     9    2
    9     9    10    1
   10     9    11    1
   11    11    12    1
   12    11    13    1
   13    11    14    1
   14    14    15    1
   15    14    16    1
   16    14    17    1
@<TRIPOS>SUBSTRUCTURE
       1 MOL1            1 RESIDUE      1      MOL     
@<SCITEGIC>MOL_PROPERTY
VConf Rank
SciTegic.value.IntegerValue
528

@<SCITEGIC>MOL_PROPERTY
Conf_Id
SciTegic.value.IntegerValue
19

@<SCITEGIC>MOL_PROPERTY
Delta U+W
SciTegic.value.DoubleValue
-0.496

@<SCITEGIC>MOL_PROPERTY
U+W
SciTegic.value.DoubleValue
-49.923

@<SCITEGIC>MOL_PROPERTY
Grad RMS
SciTegic.value.DoubleValue
0.000000

@<SCITEGIC>MOL_PROPERTY
U
SciTegic.value.DoubleValue
13.863

@<SCITEGIC>MOL_PROPERTY
W
SciTegic.value.DoubleValue
-63.786

@<SCITEGIC>MOL_PROPERTY
W(PB)
SciTegic.value.DoubleValue
-65.856

@<SCITEGIC>MOL_PROPERTY
W(SA)
SciTegic.value.DoubleValue
2.070

@<SCITEGIC>MOL_PROPERTY
Valence
SciTegic.value.DoubleValue
14.117

@<SCITEGIC>MOL_PROPERTY
Coulomb
SciTegic.value.DoubleValue
-1.228

@<SCITEGIC>MOL_PROPERTY
VdW
SciTegic.value.DoubleValue
0.974

@<SCITEGIC>MOL_PROPERTY
VdW6
SciTegic.value.DoubleValue
-4.885

@<SCITEGIC>MOL_PROPERTY
VdW12
SciTegic.value.DoubleValue
5.859

@<SCITEGIC>MOL_PROPERTY
Bond
SciTegic.value.DoubleValue
0.094

@<SCITEGIC>MOL_PROPERTY
Angle
SciTegic.value.DoubleValue
2.818

@<SCITEGIC>MOL_PROPERTY
Pdih
SciTegic.value.DoubleValue
11.205

@<SCITEGIC>MOL_PROPERTY
Idih
SciTegic.value.DoubleValue
0.000

@<SCITEGIC>MOL_PROPERTY
Tether
SciTegic.value.DoubleValue
0.000

@<TRIPOS>MOLECULE
guest-s20_confgen4.mol2 : confsearch ligand conformer 529
          17          16           1
SMALL
USER_CHARGES
 
@<TRIPOS>ATOM
       1    C1      22.179174   16.936751   22.291139 C.2        1 MOL1         0.6132
       2    O1      23.139471   17.473472   21.774833 O.co2      1 MOL1        -0.6749
       3    O2      22.242851   16.287965   23.316821 O.co2      1 MOL1        -0.6749
       4    C2      20.822891   17.074288   21.611870 C.3        1 MOL1        -0.1955
       5    H1      20.326544   16.097934   21.654969 H          1 MOL1         0.0733
       6    H2      20.991192   17.302274   20.552459 H          1 MOL1         0.0733
       7    C3      19.951368   18.130925   22.263583 C.2        1 MOL1        -0.1395
       8    H3      19.613036   17.897085   23.272576 H          1 MOL1         0.0816
       9    C4      19.605745   19.283264   21.681453 C.2        1 MOL1        -0.1394
      10    H4      19.948600   19.518838   20.674470 H          1 MOL1         0.0816
      11    C5      18.739013   20.336848   22.334193 C.3        1 MOL1        -0.1826
      12    H5      17.949670   20.651323   21.638086 H          1 MOL1         0.0736
      13    H6      18.233829   19.925036   23.218731 H          1 MOL1         0.0736
      14    C6      19.576022   21.562344   22.749609 C.3        1 MOL1        -0.2882
      15    H7      20.062366   22.018391   21.877303 H          1 MOL1         0.0749
      16    H8      18.942301   22.323459   23.223072 H          1 MOL1         0.0749
      17    H9      20.357505   21.275813   23.465755 H          1 MOL1         0.0749
@<TRIPOS>BOND
    1     1     2    1
    2     1     3    2
    3     1     4    1
    4     4     5    1
    5     4     6    1
    6     4     7    1
    7     7     8    1
    8     7     9    2
    9     9    10    1
   10     9    11    1
   11    11    12    1
   12    11    13    1
   13    11    14    1
   14    14    15    1
   15    14    16    1
   16    14    17    1
@<TRIPOS>SUBSTRUCTURE
       1 MOL1            1 RESIDUE      1      MOL     
@<SCITEGIC>MOL_PROPERTY
VConf Rank
SciTegic.value.IntegerValue
529

@<SCITEGIC>MOL_PROPERTY
Conf_Id
SciTegic.value.IntegerValue
7

@<SCITEGIC>MOL_PROPERTY
Delta U+W
SciTegic.value.DoubleValue
-0.041

@<SCITEGIC>MOL_PROPERTY
U+W
SciTegic.value.DoubleValue
-49.468

@<SCITEGIC>MOL_PROPERTY
Grad RMS
SciTegic.value.DoubleValue
0.000000

@<SCITEGIC>MOL_PROPERTY
U
SciTegic.value.DoubleValue
14.121

@<SCITEGIC>MOL_PROPERTY
W
SciTegic.value.DoubleValue
-63.589

@<SCITEGIC>MOL_PROPERTY
W(PB)
SciTegic.value.DoubleValue
-65.660

@<SCITEGIC>MOL_PROPERTY
W(SA)
SciTegic.value.DoubleValue
2.071

@<SCITEGIC>MOL_PROPERTY
Valence
SciTegic.value.DoubleValue
15.230

@<SCITEGIC>MOL_PROPERTY
Coulomb
SciTegic.value.DoubleValue
-1.333

@<SCITEGIC>MOL_PROPERTY
VdW
SciTegic.value.DoubleValue
0.224

@<SCITEGIC>MOL_PROPERTY
VdW6
SciTegic.value.DoubleValue
-4.212

@<SCITEGIC>MOL_PROPERTY
VdW12
SciTegic.value.DoubleValue
4.436

@<SCITEGIC>MOL_PROPERTY
Bond
SciTegic.value.DoubleValue
0.044

@<SCITEGIC>MOL_PROPERTY
Angle
SciTegic.value.DoubleValue
2.230

@<SCITEGIC>MOL_PROPERTY
Pdih
SciTegic.value.DoubleValue
12.956

@<SCITEGIC>MOL_PROPERTY
Idih
SciTegic.value.DoubleValue
0.000

@<SCITEGIC>MOL_PROPERTY
Tether
SciTegic.value.DoubleValue
0.000

@<TRIPOS>MOLECULE
guest-s20_confgen4.mol2 : confsearch ligand conformer 530
          17          16           1
SMALL
USER_CHARGES
 
@<TRIPOS>ATOM
       1    C1      18.026332   21.058801   22.376310 C.2        1 MOL1         0.6132
       2    O1      17.077703   20.300855   22.325187 O.co2      1 MOL1        -0.6749
       3    O2      18.179383   21.994844   21.616388 O.co2      1 MOL1        -0.6749
       4    C2      19.066673   20.840384   23.470642 C.3        1 MOL1        -0.1955
       5    H1      18.552728   20.424443   24.345069 H          1 MOL1         0.0733
       6    H2      19.440056   21.823567   23.779925 H          1 MOL1         0.0733
       7    C3      20.238481   19.944922   23.093958 C.2        1 MOL1        -0.1395
       8    H3      20.969084   19.802491   23.889243 H          1 MOL1         0.0816
       9    C4      20.423384   19.347381   21.910847 C.2        1 MOL1        -0.1394
      10    H4      19.707657   19.472536   21.099180 H          1 MOL1         0.0816
      11    C5      21.609134   18.466110   21.586343 C.3        1 MOL1        -0.1826
      12    H5      22.038723   18.764038   20.620315 H          1 MOL1         0.0736
      13    H6      22.401435   18.594756   22.336585 H          1 MOL1         0.0736
      14    C6      21.196905   16.982242   21.529432 C.3        1 MOL1        -0.2882
      15    H7      22.060702   16.347672   21.292293 H          1 MOL1         0.0749
      16    H8      20.787446   16.654226   22.493975 H          1 MOL1         0.0749
      17    H9      20.431580   16.817805   20.759564 H          1 MOL1         0.0749
@<TRIPOS>BOND
    1     1     2    1
    2     1     3    2
    3     1     4    1
    4     4     5    1
    5     4     6    1
    6     4     7    1
    7     7     8    1
    8     7     9    2
    9     9    10    1
   10     9    11    1
   11    11    12    1
   12    11    13    1
   13    11    14    1
   14    14    15    1
   15    14    16    1
   16    14    17    1
@<TRIPOS>SUBSTRUCTURE
       1 MOL1            1 RESIDUE      1      MOL     
@<SCITEGIC>MOL_PROPERTY
VConf Rank
SciTegic.value.IntegerValue
530

@<SCITEGIC>MOL_PROPERTY
Conf_Id
SciTegic.value.IntegerValue
39

@<SCITEGIC>MOL_PROPERTY
Delta U+W
SciTegic.value.DoubleValue
-0.422

@<SCITEGIC>MOL_PROPERTY
U+W
SciTegic.value.DoubleValue
-49.849

@<SCITEGIC>MOL_PROPERTY
Grad RMS
SciTegic.value.DoubleValue
0.000000

@<SCITEGIC>MOL_PROPERTY
U
SciTegic.value.DoubleValue
14.465

@<SCITEGIC>MOL_PROPERTY
W
SciTegic.value.DoubleValue
-64.314

@<SCITEGIC>MOL_PROPERTY
W(PB)
SciTegic.value.DoubleValue
-66.406

@<SCITEGIC>MOL_PROPERTY
W(SA)
SciTegic.value.DoubleValue
2.093

@<SCITEGIC>MOL_PROPERTY
Valence
SciTegic.value.DoubleValue
14.072

@<SCITEGIC>MOL_PROPERTY
Coulomb
SciTegic.value.DoubleValue
-0.199

@<SCITEGIC>MOL_PROPERTY
VdW
SciTegic.value.DoubleValue
0.592

@<SCITEGIC>MOL_PROPERTY
VdW6
SciTegic.value.DoubleValue
-5.019

@<SCITEGIC>MOL_PROPERTY
VdW12
SciTegic.value.DoubleValue
5.611

@<SCITEGIC>MOL_PROPERTY
Bond
SciTegic.value.DoubleValue
0.085

@<SCITEGIC>MOL_PROPERTY
Angle
SciTegic.value.DoubleValue
2.748

@<SCITEGIC>MOL_PROPERTY
Pdih
SciTegic.value.DoubleValue
11.238

@<SCITEGIC>MOL_PROPERTY
Idih
SciTegic.value.DoubleValue
0.001

@<SCITEGIC>MOL_PROPERTY
Tether
SciTegic.value.DoubleValue
0.000

@<TRIPOS>MOLECULE
guest-s20_confgen4.mol2 : confsearch ligand conformer 531
          17          16           1
SMALL
USER_CHARGES
 
@<TRIPOS>ATOM
       1    C1      17.757809   18.188779   20.285713 C.2        1 MOL1         0.6132
       2    O1      17.161481   17.211908   20.694462 O.co2      1 MOL1        -0.6749
       3    O2      18.047985   18.358994   19.117961 O.co2      1 MOL1        -0.6749
       4    C2      18.157505   19.259256   21.292651 C.3        1 MOL1        -0.1955
       5    H1      17.322646   19.390978   21.990626 H          1 MOL1         0.0733
       6    H2      18.279014   20.207486   20.755309 H          1 MOL1         0.0733
       7    C3      19.419900   18.899408   22.052661 C.2        1 MOL1        -0.1395
       8    H3      19.326621   18.056358   22.736597 H          1 MOL1         0.0816
       9    C4      20.584545   19.541730   21.921320 C.2        1 MOL1        -0.1394
      10    H4      20.677910   20.382772   21.235031 H          1 MOL1         0.0816
      11    C5      21.843307   19.179113   22.677196 C.3        1 MOL1        -0.1826
      12    H5      21.742493   18.186862   23.138170 H          1 MOL1         0.0736
      13    H6      22.689841   19.118178   21.979914 H          1 MOL1         0.0736
      14    C6      22.152197   20.220411   23.770515 C.3        1 MOL1        -0.2882
      15    H7      21.329498   20.280588   24.495185 H          1 MOL1         0.0749
      16    H8      23.066886   19.952291   24.315071 H          1 MOL1         0.0749
      17    H9      22.296076   21.216997   23.332857 H          1 MOL1         0.0749
@<TRIPOS>BOND
    1     1     2    1
    2     1     3    2
    3     1     4    1
    4     4     5    1
    5     4     6    1
    6     4     7    1
    7     7     8    1
    8     7     9    2
    9     9    10    1
   10     9    11    1
   11    11    12    1
   12    11    13    1
   13    11    14    1
   14    14    15    1
   15    14    16    1
   16    14    17    1
@<TRIPOS>SUBSTRUCTURE
       1 MOL1            1 RESIDUE      1      MOL     
@<SCITEGIC>MOL_PROPERTY
VConf Rank
SciTegic.value.IntegerValue
531

@<SCITEGIC>MOL_PROPERTY
Conf_Id
SciTegic.value.IntegerValue
38

@<SCITEGIC>MOL_PROPERTY
Delta U+W
SciTegic.value.DoubleValue
0.000

@<SCITEGIC>MOL_PROPERTY
U+W
SciTegic.value.DoubleValue
-49.427

@<SCITEGIC>MOL_PROPERTY
Grad RMS
SciTegic.value.DoubleValue
0.000000

@<SCITEGIC>MOL_PROPERTY
U
SciTegic.value.DoubleValue
13.666

@<SCITEGIC>MOL_PROPERTY
W
SciTegic.value.DoubleValue
-63.093

@<SCITEGIC>MOL_PROPERTY
W(PB)
SciTegic.value.DoubleValue
-65.225

@<SCITEGIC>MOL_PROPERTY
W(SA)
SciTegic.value.DoubleValue
2.132

@<SCITEGIC>MOL_PROPERTY
Valence
SciTegic.value.DoubleValue
15.226

@<SCITEGIC>MOL_PROPERTY
Coulomb
SciTegic.value.DoubleValue
-1.822

@<SCITEGIC>MOL_PROPERTY
VdW
SciTegic.value.DoubleValue
0.261

@<SCITEGIC>MOL_PROPERTY
VdW6
SciTegic.value.DoubleValue
-4.165

@<SCITEGIC>MOL_PROPERTY
VdW12
SciTegic.value.DoubleValue
4.426

@<SCITEGIC>MOL_PROPERTY
Bond
SciTegic.value.DoubleValue
0.044

@<SCITEGIC>MOL_PROPERTY
Angle
SciTegic.value.DoubleValue
2.229

@<SCITEGIC>MOL_PROPERTY
Pdih
SciTegic.value.DoubleValue
12.953

@<SCITEGIC>MOL_PROPERTY
Idih
SciTegic.value.DoubleValue
0.000

@<SCITEGIC>MOL_PROPERTY
Tether
SciTegic.value.DoubleValue
0.000

@<TRIPOS>MOLECULE
guest-s20_confgen4.mol2 : confsearch ligand conformer 532
          17          16           1
SMALL
USER_CHARGES
 
@<TRIPOS>ATOM
       1    C1      17.293026   17.817022   21.771023 C.2        1 MOL1         0.6132
       2    O1      17.474007   16.707649   21.309118 O.co2      1 MOL1        -0.6749
       3    O2      16.347341   18.521359   21.476829 O.co2      1 MOL1        -0.6749
       4    C2      18.302141   18.353645   22.777664 C.3        1 MOL1        -0.1955
       5    H1      18.810506   17.500145   23.242146 H          1 MOL1         0.0733
       6    H2      17.744533   18.865070   23.570774 H          1 MOL1         0.0733
       7    C3      19.301764   19.304625   22.147478 C.2        1 MOL1        -0.1395
       8    H3      18.889354   20.253537   21.805886 H          1 MOL1         0.0816
       9    C4      20.602805   19.036993   21.999515 C.2        1 MOL1        -0.1394
      10    H4      21.013934   18.086640   22.338432 H          1 MOL1         0.0816
      11    C5      21.597363   19.984872   21.367296 C.3        1 MOL1        -0.1826
      12    H5      22.199948   19.447379   20.622631 H          1 MOL1         0.0736
      13    H6      21.074712   20.788030   20.829716 H          1 MOL1         0.0736
      14    C6      22.526138   20.603124   22.430405 C.3        1 MOL1        -0.2882
      15    H7      23.090824   19.823472   22.958326 H          1 MOL1         0.0749
      16    H8      23.245955   21.289374   21.965636 H          1 MOL1         0.0749
      17    H9      21.947173   21.168167   23.172783 H          1 MOL1         0.0749
@<TRIPOS>BOND
    1     1     2    1
    2     1     3    2
    3     1     4    1
    4     4     5    1
    5     4     6    1
    6     4     7    1
    7     7     8    1
    8     7     9    2
    9     9    10    1
   10     9    11    1
   11    11    12    1
   12    11    13    1
   13    11    14    1
   14    14    15    1
   15    14    16    1
   16    14    17    1
@<TRIPOS>SUBSTRUCTURE
       1 MOL1            1 RESIDUE      1      MOL     
@<SCITEGIC>MOL_PROPERTY
VConf Rank
SciTegic.value.IntegerValue
532

@<SCITEGIC>MOL_PROPERTY
Conf_Id
SciTegic.value.IntegerValue
35

@<SCITEGIC>MOL_PROPERTY
Delta U+W
SciTegic.value.DoubleValue
-0.102

@<SCITEGIC>MOL_PROPERTY
U+W
SciTegic.value.DoubleValue
-49.529

@<SCITEGIC>MOL_PROPERTY
Grad RMS
SciTegic.value.DoubleValue
0.000000

@<SCITEGIC>MOL_PROPERTY
U
SciTegic.value.DoubleValue
13.666

@<SCITEGIC>MOL_PROPERTY
W
SciTegic.value.DoubleValue
-63.195

@<SCITEGIC>MOL_PROPERTY
W(PB)
SciTegic.value.DoubleValue
-65.299

@<SCITEGIC>MOL_PROPERTY
W(SA)
SciTegic.value.DoubleValue
2.103

@<SCITEGIC>MOL_PROPERTY
Valence
SciTegic.value.DoubleValue
15.226

@<SCITEGIC>MOL_PROPERTY
Coulomb
SciTegic.value.DoubleValue
-1.822

@<SCITEGIC>MOL_PROPERTY
VdW
SciTegic.value.DoubleValue
0.261

@<SCITEGIC>MOL_PROPERTY
VdW6
SciTegic.value.DoubleValue
-4.165

@<SCITEGIC>MOL_PROPERTY
VdW12
SciTegic.value.DoubleValue
4.426

@<SCITEGIC>MOL_PROPERTY
Bond
SciTegic.value.DoubleValue
0.044

@<SCITEGIC>MOL_PROPERTY
Angle
SciTegic.value.DoubleValue
2.229

@<SCITEGIC>MOL_PROPERTY
Pdih
SciTegic.value.DoubleValue
12.953

@<SCITEGIC>MOL_PROPERTY
Idih
SciTegic.value.DoubleValue
0.000

@<SCITEGIC>MOL_PROPERTY
Tether
SciTegic.value.DoubleValue
0.000

@<TRIPOS>MOLECULE
guest-s20_confgen4.mol2 : confsearch ligand conformer 533
          17          16           1
SMALL
USER_CHARGES
 
@<TRIPOS>ATOM
       1    C1      17.596114   19.859748   21.095244 C.2        1 MOL1         0.6132
       2    O1      17.451491   21.064387   21.165251 O.co2      1 MOL1        -0.6749
       3    O2      17.326216   19.206874   20.106427 O.co2      1 MOL1        -0.6749
       4    C2      18.136241   19.129229   22.317659 C.3        1 MOL1        -0.1955
       5    H1      17.809841   18.083666   22.264306 H          1 MOL1         0.0733
       6    H2      17.664526   19.567217   23.204880 H          1 MOL1         0.0733
       7    C3      19.646097   19.224152   22.430488 C.2        1 MOL1        -0.1395
       8    H3      20.023788   20.222465   22.644525 H          1 MOL1         0.0816
       9    C4      20.473584   18.182602   22.278338 C.2        1 MOL1        -0.1394
      10    H4      20.059013   17.198885   22.060354 H          1 MOL1         0.0816
      11    C5      21.989792   18.206559   22.373885 C.3        1 MOL1        -0.1826
      12    H5      22.309643   17.497121   23.149061 H          1 MOL1         0.0736
      13    H6      22.412100   17.826559   21.433791 H          1 MOL1         0.0736
      14    C6      22.602312   19.591994   22.676238 C.3        1 MOL1        -0.2882
      15    H7      22.243161   19.980111   23.638411 H          1 MOL1         0.0749
      16    H8      23.696831   19.525871   22.728061 H          1 MOL1         0.0749
      17    H9      22.346114   20.315681   21.891299 H          1 MOL1         0.0749
@<TRIPOS>BOND
    1     1     2    1
    2     1     3    2
    3     1     4    1
    4     4     5    1
    5     4     6    1
    6     4     7    1
    7     7     8    1
    8     7     9    2
    9     9    10    1
   10     9    11    1
   11    11    12    1
   12    11    13    1
   13    11    14    1
   14    14    15    1
   15    14    16    1
   16    14    17    1
@<TRIPOS>SUBSTRUCTURE
       1 MOL1            1 RESIDUE      1      MOL     
@<SCITEGIC>MOL_PROPERTY
VConf Rank
SciTegic.value.IntegerValue
533

@<SCITEGIC>MOL_PROPERTY
Conf_Id
SciTegic.value.IntegerValue
19

@<SCITEGIC>MOL_PROPERTY
Delta U+W
SciTegic.value.DoubleValue
-0.496

@<SCITEGIC>MOL_PROPERTY
U+W
SciTegic.value.DoubleValue
-49.923

@<SCITEGIC>MOL_PROPERTY
Grad RMS
SciTegic.value.DoubleValue
0.000000

@<SCITEGIC>MOL_PROPERTY
U
SciTegic.value.DoubleValue
13.863

@<SCITEGIC>MOL_PROPERTY
W
SciTegic.value.DoubleValue
-63.786

@<SCITEGIC>MOL_PROPERTY
W(PB)
SciTegic.value.DoubleValue
-65.856

@<SCITEGIC>MOL_PROPERTY
W(SA)
SciTegic.value.DoubleValue
2.070

@<SCITEGIC>MOL_PROPERTY
Valence
SciTegic.value.DoubleValue
14.117

@<SCITEGIC>MOL_PROPERTY
Coulomb
SciTegic.value.DoubleValue
-1.228

@<SCITEGIC>MOL_PROPERTY
VdW
SciTegic.value.DoubleValue
0.974

@<SCITEGIC>MOL_PROPERTY
VdW6
SciTegic.value.DoubleValue
-4.885

@<SCITEGIC>MOL_PROPERTY
VdW12
SciTegic.value.DoubleValue
5.859

@<SCITEGIC>MOL_PROPERTY
Bond
SciTegic.value.DoubleValue
0.094

@<SCITEGIC>MOL_PROPERTY
Angle
SciTegic.value.DoubleValue
2.818

@<SCITEGIC>MOL_PROPERTY
Pdih
SciTegic.value.DoubleValue
11.205

@<SCITEGIC>MOL_PROPERTY
Idih
SciTegic.value.DoubleValue
0.000

@<SCITEGIC>MOL_PROPERTY
Tether
SciTegic.value.DoubleValue
0.000

@<TRIPOS>MOLECULE
guest-s20_confgen4.mol2 : confsearch ligand conformer 534
          17          16           1
SMALL
USER_CHARGES
 
@<TRIPOS>ATOM
       1    C1      20.187849   16.710748   23.966459 C.2        1 MOL1         0.6132
       2    O1      21.377764   16.502074   24.098250 O.co2      1 MOL1        -0.6749
       3    O2      19.399761   16.714600   24.891610 O.co2      1 MOL1        -0.6749
       4    C2      19.650953   16.971261   22.565137 C.3        1 MOL1        -0.1955
       5    H1      18.706824   16.424124   22.461474 H          1 MOL1         0.0733
       6    H2      20.353489   16.538844   21.842564 H          1 MOL1         0.0733
       7    C3      19.430412   18.447029   22.292677 C.2        1 MOL1        -0.1395
       8    H3      18.631747   18.912171   22.869732 H          1 MOL1         0.0816
       9    C4      20.146235   19.165387   21.422173 C.2        1 MOL1        -0.1394
      10    H4      20.948131   18.700939   20.849190 H          1 MOL1         0.0816
      11    C5      19.926617   20.637546   21.154123 C.3        1 MOL1        -0.1826
      12    H5      19.884602   20.815199   20.070981 H          1 MOL1         0.0736
      13    H6      18.960977   20.963179   21.564867 H          1 MOL1         0.0736
      14    C6      21.055237   21.486648   21.770755 C.3        1 MOL1        -0.2882
      15    H7      22.029890   21.208481   21.348734 H          1 MOL1         0.0749
      16    H8      20.890676   22.553955   21.573671 H          1 MOL1         0.0749
      17    H9      21.100412   21.343821   22.858524 H          1 MOL1         0.0749
@<TRIPOS>BOND
    1     1     2    1
    2     1     3    2
    3     1     4    1
    4     4     5    1
    5     4     6    1
    6     4     7    1
    7     7     8    1
    8     7     9    2
    9     9    10    1
   10     9    11    1
   11    11    12    1
   12    11    13    1
   13    11    14    1
   14    14    15    1
   15    14    16    1
   16    14    17    1
@<TRIPOS>SUBSTRUCTURE
       1 MOL1            1 RESIDUE      1      MOL     
@<SCITEGIC>MOL_PROPERTY
VConf Rank
SciTegic.value.IntegerValue
534

@<SCITEGIC>MOL_PROPERTY
Conf_Id
SciTegic.value.IntegerValue
7

@<SCITEGIC>MOL_PROPERTY
Delta U+W
SciTegic.value.DoubleValue
-0.041

@<SCITEGIC>MOL_PROPERTY
U+W
SciTegic.value.DoubleValue
-49.468

@<SCITEGIC>MOL_PROPERTY
Grad RMS
SciTegic.value.DoubleValue
0.000000

@<SCITEGIC>MOL_PROPERTY
U
SciTegic.value.DoubleValue
14.121

@<SCITEGIC>MOL_PROPERTY
W
SciTegic.value.DoubleValue
-63.589

@<SCITEGIC>MOL_PROPERTY
W(PB)
SciTegic.value.DoubleValue
-65.660

@<SCITEGIC>MOL_PROPERTY
W(SA)
SciTegic.value.DoubleValue
2.071

@<SCITEGIC>MOL_PROPERTY
Valence
SciTegic.value.DoubleValue
15.230

@<SCITEGIC>MOL_PROPERTY
Coulomb
SciTegic.value.DoubleValue
-1.333

@<SCITEGIC>MOL_PROPERTY
VdW
SciTegic.value.DoubleValue
0.224

@<SCITEGIC>MOL_PROPERTY
VdW6
SciTegic.value.DoubleValue
-4.212

@<SCITEGIC>MOL_PROPERTY
VdW12
SciTegic.value.DoubleValue
4.436

@<SCITEGIC>MOL_PROPERTY
Bond
SciTegic.value.DoubleValue
0.044

@<SCITEGIC>MOL_PROPERTY
Angle
SciTegic.value.DoubleValue
2.230

@<SCITEGIC>MOL_PROPERTY
Pdih
SciTegic.value.DoubleValue
12.956

@<SCITEGIC>MOL_PROPERTY
Idih
SciTegic.value.DoubleValue
0.000

@<SCITEGIC>MOL_PROPERTY
Tether
SciTegic.value.DoubleValue
0.000

@<TRIPOS>MOLECULE
guest-s20_confgen4.mol2 : confsearch ligand conformer 535
          17          16           1
SMALL
USER_CHARGES
 
@<TRIPOS>ATOM
       1    C1      19.006298   21.022120   24.083943 C.2        1 MOL1         0.6132
       2    O1      17.822754   20.813582   23.903031 O.co2      1 MOL1        -0.6749
       3    O2      19.509436   22.127028   24.028162 O.co2      1 MOL1        -0.6749
       4    C2      19.903904   19.837121   24.426958 C.3        1 MOL1        -0.1955
       5    H1      19.304512   19.113613   24.991789 H          1 MOL1         0.0733
       6    H2      20.678227   20.191304   25.117392 H          1 MOL1         0.0733
       7    C3      20.557142   19.142543   23.240485 C.2        1 MOL1        -0.1395
       8    H3      21.193525   18.299810   23.507627 H          1 MOL1         0.0816
       9    C4      20.409197   19.478036   21.953414 C.2        1 MOL1        -0.1394
      10    H4      19.778001   20.315730   21.659147 H          1 MOL1         0.0816
      11    C5      21.083655   18.754003   20.809376 C.3        1 MOL1        -0.1826
      12    H5      21.551792   19.483049   20.134202 H          1 MOL1         0.0736
      13    H6      21.889967   18.108488   21.183973 H          1 MOL1         0.0736
      14    C6      20.071459   17.900083   20.021138 C.3        1 MOL1        -0.2882
      15    H7      20.565943   17.378194   19.191574 H          1 MOL1         0.0749
      16    H8      19.608468   17.145731   20.670897 H          1 MOL1         0.0749
      17    H9      19.273126   18.526636   19.602147 H          1 MOL1         0.0749
@<TRIPOS>BOND
    1     1     2    1
    2     1     3    2
    3     1     4    1
    4     4     5    1
    5     4     6    1
    6     4     7    1
    7     7     8    1
    8     7     9    2
    9     9    10    1
   10     9    11    1
   11    11    12    1
   12    11    13    1
   13    11    14    1
   14    14    15    1
   15    14    16    1
   16    14    17    1
@<TRIPOS>SUBSTRUCTURE
       1 MOL1            1 RESIDUE      1      MOL     
@<SCITEGIC>MOL_PROPERTY
VConf Rank
SciTegic.value.IntegerValue
535

@<SCITEGIC>MOL_PROPERTY
Conf_Id
SciTegic.value.IntegerValue
39

@<SCITEGIC>MOL_PROPERTY
Delta U+W
SciTegic.value.DoubleValue
-0.422

@<SCITEGIC>MOL_PROPERTY
U+W
SciTegic.value.DoubleValue
-49.849

@<SCITEGIC>MOL_PROPERTY
Grad RMS
SciTegic.value.DoubleValue
0.000000

@<SCITEGIC>MOL_PROPERTY
U
SciTegic.value.DoubleValue
14.465

@<SCITEGIC>MOL_PROPERTY
W
SciTegic.value.DoubleValue
-64.314

@<SCITEGIC>MOL_PROPERTY
W(PB)
SciTegic.value.DoubleValue
-66.406

@<SCITEGIC>MOL_PROPERTY
W(SA)
SciTegic.value.DoubleValue
2.093

@<SCITEGIC>MOL_PROPERTY
Valence
SciTegic.value.DoubleValue
14.072

@<SCITEGIC>MOL_PROPERTY
Coulomb
SciTegic.value.DoubleValue
-0.199

@<SCITEGIC>MOL_PROPERTY
VdW
SciTegic.value.DoubleValue
0.592

@<SCITEGIC>MOL_PROPERTY
VdW6
SciTegic.value.DoubleValue
-5.019

@<SCITEGIC>MOL_PROPERTY
VdW12
SciTegic.value.DoubleValue
5.611

@<SCITEGIC>MOL_PROPERTY
Bond
SciTegic.value.DoubleValue
0.085

@<SCITEGIC>MOL_PROPERTY
Angle
SciTegic.value.DoubleValue
2.748

@<SCITEGIC>MOL_PROPERTY
Pdih
SciTegic.value.DoubleValue
11.238

@<SCITEGIC>MOL_PROPERTY
Idih
SciTegic.value.DoubleValue
0.001

@<SCITEGIC>MOL_PROPERTY
Tether
SciTegic.value.DoubleValue
0.000

@<TRIPOS>MOLECULE
guest-s20_confgen4.mol2 : confsearch ligand conformer 536
          17          16           1
SMALL
USER_CHARGES
 
@<TRIPOS>ATOM
       1    C1      22.106962   18.458401   19.789963 C.2        1 MOL1         0.6132
       2    O1      21.648382   17.782134   18.890337 O.co2      1 MOL1        -0.6749
       3    O2      23.213806   18.287773   20.261770 O.co2      1 MOL1        -0.6749
       4    C2      21.248167   19.583905   20.351493 C.3        1 MOL1        -0.1955
       5    H1      20.748028   20.075761   19.509205 H          1 MOL1         0.0733
       6    H2      21.912554   20.327161   20.808439 H          1 MOL1         0.0733
       7    C3      20.219846   19.087204   21.349787 C.2        1 MOL1        -0.1395
       8    H3      19.426982   18.467830   20.931524 H          1 MOL1         0.0816
       9    C4      20.247795   19.363272   22.657163 C.2        1 MOL1        -0.1394
      10    H4      21.042568   19.980217   23.075224 H          1 MOL1         0.0816
      11    C5      19.223648   18.863992   23.651731 C.3        1 MOL1        -0.1826
      12    H5      18.621640   18.057231   23.211341 H          1 MOL1         0.0736
      13    H6      19.733433   18.435904   24.525456 H          1 MOL1         0.0736
      14    C6      18.292686   20.004346   24.107761 C.3        1 MOL1        -0.2882
      15    H7      17.751933   20.431597   23.252984 H          1 MOL1         0.0749
      16    H8      17.552224   19.636159   24.829730 H          1 MOL1         0.0749
      17    H9      18.865060   20.809223   24.587334 H          1 MOL1         0.0749
@<TRIPOS>BOND
    1     1     2    1
    2     1     3    2
    3     1     4    1
    4     4     5    1
    5     4     6    1
    6     4     7    1
    7     7     8    1
    8     7     9    2
    9     9    10    1
   10     9    11    1
   11    11    12    1
   12    11    13    1
   13    11    14    1
   14    14    15    1
   15    14    16    1
   16    14    17    1
@<TRIPOS>SUBSTRUCTURE
       1 MOL1            1 RESIDUE      1      MOL     
@<SCITEGIC>MOL_PROPERTY
VConf Rank
SciTegic.value.IntegerValue
536

@<SCITEGIC>MOL_PROPERTY
Conf_Id
SciTegic.value.IntegerValue
38

@<SCITEGIC>MOL_PROPERTY
Delta U+W
SciTegic.value.DoubleValue
0.000

@<SCITEGIC>MOL_PROPERTY
U+W
SciTegic.value.DoubleValue
-49.427

@<SCITEGIC>MOL_PROPERTY
Grad RMS
SciTegic.value.DoubleValue
0.000000

@<SCITEGIC>MOL_PROPERTY
U
SciTegic.value.DoubleValue
13.666

@<SCITEGIC>MOL_PROPERTY
W
SciTegic.value.DoubleValue
-63.093

@<SCITEGIC>MOL_PROPERTY
W(PB)
SciTegic.value.DoubleValue
-65.225

@<SCITEGIC>MOL_PROPERTY
W(SA)
SciTegic.value.DoubleValue
2.132

@<SCITEGIC>MOL_PROPERTY
Valence
SciTegic.value.DoubleValue
15.226

@<SCITEGIC>MOL_PROPERTY
Coulomb
SciTegic.value.DoubleValue
-1.822

@<SCITEGIC>MOL_PROPERTY
VdW
SciTegic.value.DoubleValue
0.261

@<SCITEGIC>MOL_PROPERTY
VdW6
SciTegic.value.DoubleValue
-4.165

@<SCITEGIC>MOL_PROPERTY
VdW12
SciTegic.value.DoubleValue
4.426

@<SCITEGIC>MOL_PROPERTY
Bond
SciTegic.value.DoubleValue
0.044

@<SCITEGIC>MOL_PROPERTY
Angle
SciTegic.value.DoubleValue
2.229

@<SCITEGIC>MOL_PROPERTY
Pdih
SciTegic.value.DoubleValue
12.953

@<SCITEGIC>MOL_PROPERTY
Idih
SciTegic.value.DoubleValue
0.000

@<SCITEGIC>MOL_PROPERTY
Tether
SciTegic.value.DoubleValue
0.000

@<TRIPOS>MOLECULE
guest-s20_confgen4.mol2 : confsearch ligand conformer 537
          17          16           1
SMALL
USER_CHARGES
 
@<TRIPOS>ATOM
       1    C1      18.474314   16.586925   22.587278 C.2        1 MOL1         0.6132
       2    O1      18.526055   15.905700   21.582253 O.co2      1 MOL1        -0.6749
       3    O2      17.490205   16.665299   23.296041 O.co2      1 MOL1        -0.6749
       4    C2      19.710730   17.382312   22.985071 C.3        1 MOL1        -0.1955
       5    H1      20.587788   16.900059   22.536918 H          1 MOL1         0.0733
       6    H2      19.823111   17.305033   24.072686 H          1 MOL1         0.0733
       7    C3      19.621531   18.839345   22.572952 C.2        1 MOL1        -0.1395
       8    H3      18.870911   19.426835   23.100802 H          1 MOL1         0.0816
       9    C4      20.387016   19.402285   21.633079 C.2        1 MOL1        -0.1394
      10    H4      21.135223   18.813472   21.103413 H          1 MOL1         0.0816
      11    C5      20.293955   20.854378   21.220664 C.3        1 MOL1        -0.1826
      12    H5      20.252049   20.926706   20.125426 H          1 MOL1         0.0736
      13    H6      19.366606   21.303615   21.602015 H          1 MOL1         0.0736
      14    C6      21.501659   21.656881   21.742681 C.3        1 MOL1        -0.2882
      15    H7      22.441944   21.252352   21.345628 H          1 MOL1         0.0749
      16    H8      21.428912   22.709501   21.439722 H          1 MOL1         0.0749
      17    H9      21.549516   21.620407   22.839029 H          1 MOL1         0.0749
@<TRIPOS>BOND
    1     1     2    1
    2     1     3    2
    3     1     4    1
    4     4     5    1
    5     4     6    1
    6     4     7    1
    7     7     8    1
    8     7     9    2
    9     9    10    1
   10     9    11    1
   11    11    12    1
   12    11    13    1
   13    11    14    1
   14    14    15    1
   15    14    16    1
   16    14    17    1
@<TRIPOS>SUBSTRUCTURE
       1 MOL1            1 RESIDUE      1      MOL     
@<SCITEGIC>MOL_PROPERTY
VConf Rank
SciTegic.value.IntegerValue
537

@<SCITEGIC>MOL_PROPERTY
Conf_Id
SciTegic.value.IntegerValue
35

@<SCITEGIC>MOL_PROPERTY
Delta U+W
SciTegic.value.DoubleValue
-0.102

@<SCITEGIC>MOL_PROPERTY
U+W
SciTegic.value.DoubleValue
-49.529

@<SCITEGIC>MOL_PROPERTY
Grad RMS
SciTegic.value.DoubleValue
0.000000

@<SCITEGIC>MOL_PROPERTY
U
SciTegic.value.DoubleValue
13.666

@<SCITEGIC>MOL_PROPERTY
W
SciTegic.value.DoubleValue
-63.195

@<SCITEGIC>MOL_PROPERTY
W(PB)
SciTegic.value.DoubleValue
-65.299

@<SCITEGIC>MOL_PROPERTY
W(SA)
SciTegic.value.DoubleValue
2.103

@<SCITEGIC>MOL_PROPERTY
Valence
SciTegic.value.DoubleValue
15.226

@<SCITEGIC>MOL_PROPERTY
Coulomb
SciTegic.value.DoubleValue
-1.822

@<SCITEGIC>MOL_PROPERTY
VdW
SciTegic.value.DoubleValue
0.261

@<SCITEGIC>MOL_PROPERTY
VdW6
SciTegic.value.DoubleValue
-4.165

@<SCITEGIC>MOL_PROPERTY
VdW12
SciTegic.value.DoubleValue
4.426

@<SCITEGIC>MOL_PROPERTY
Bond
SciTegic.value.DoubleValue
0.044

@<SCITEGIC>MOL_PROPERTY
Angle
SciTegic.value.DoubleValue
2.229

@<SCITEGIC>MOL_PROPERTY
Pdih
SciTegic.value.DoubleValue
12.953

@<SCITEGIC>MOL_PROPERTY
Idih
SciTegic.value.DoubleValue
0.000

@<SCITEGIC>MOL_PROPERTY
Tether
SciTegic.value.DoubleValue
0.000

@<TRIPOS>MOLECULE
guest-s20_confgen4.mol2 : confsearch ligand conformer 538
          17          16           1
SMALL
USER_CHARGES
 
@<TRIPOS>ATOM
       1    C1      22.784401   18.673870   23.604596 C.2        1 MOL1         0.6132
       2    O1      23.590652   19.513381   23.255095 O.co2      1 MOL1        -0.6749
       3    O2      22.607949   18.352952   24.763356 O.co2      1 MOL1        -0.6749
       4    C2      21.957867   17.980688   22.529406 C.3        1 MOL1        -0.1955
       5    H1      21.629703   17.010512   22.921393 H          1 MOL1         0.0733
       6    H2      22.618792   17.775762   21.679292 H          1 MOL1         0.0733
       7    C3      20.774047   18.815576   22.078920 C.2        1 MOL1        -0.1395
       8    H3      21.037517   19.722247   21.537051 H          1 MOL1         0.0816
       9    C4      19.497160   18.491942   22.318782 C.2        1 MOL1        -0.1394
      10    H4      19.272199   17.578468   22.868366 H          1 MOL1         0.0816
      11    C5      18.267269   19.280632   21.901739 C.3        1 MOL1        -0.1826
      12    H5      17.621666   18.637081   21.288922 H          1 MOL1         0.0736
      13    H6      17.678517   19.522345   22.796986 H          1 MOL1         0.0736
      14    C6      18.560423   20.583851   21.126040 C.3        1 MOL1        -0.2882
      15    H7      19.102485   20.374485   20.194516 H          1 MOL1         0.0749
      16    H8      17.624658   21.093878   20.862893 H          1 MOL1         0.0749
      17    H9      19.161557   21.275452   21.730868 H          1 MOL1         0.0749
@<TRIPOS>BOND
    1     1     2    1
    2     1     3    2
    3     1     4    1
    4     4     5    1
    5     4     6    1
    6     4     7    1
    7     7     8    1
    8     7     9    2
    9     9    10    1
   10     9    11    1
   11    11    12    1
   12    11    13    1
   13    11    14    1
   14    14    15    1
   15    14    16    1
   16    14    17    1
@<TRIPOS>SUBSTRUCTURE
       1 MOL1            1 RESIDUE      1      MOL     
@<SCITEGIC>MOL_PROPERTY
VConf Rank
SciTegic.value.IntegerValue
538

@<SCITEGIC>MOL_PROPERTY
Conf_Id
SciTegic.value.IntegerValue
19

@<SCITEGIC>MOL_PROPERTY
Delta U+W
SciTegic.value.DoubleValue
-0.496

@<SCITEGIC>MOL_PROPERTY
U+W
SciTegic.value.DoubleValue
-49.923

@<SCITEGIC>MOL_PROPERTY
Grad RMS
SciTegic.value.DoubleValue
0.000000

@<SCITEGIC>MOL_PROPERTY
U
SciTegic.value.DoubleValue
13.863

@<SCITEGIC>MOL_PROPERTY
W
SciTegic.value.DoubleValue
-63.786

@<SCITEGIC>MOL_PROPERTY
W(PB)
SciTegic.value.DoubleValue
-65.856

@<SCITEGIC>MOL_PROPERTY
W(SA)
SciTegic.value.DoubleValue
2.070

@<SCITEGIC>MOL_PROPERTY
Valence
SciTegic.value.DoubleValue
14.117

@<SCITEGIC>MOL_PROPERTY
Coulomb
SciTegic.value.DoubleValue
-1.228

@<SCITEGIC>MOL_PROPERTY
VdW
SciTegic.value.DoubleValue
0.974

@<SCITEGIC>MOL_PROPERTY
VdW6
SciTegic.value.DoubleValue
-4.885

@<SCITEGIC>MOL_PROPERTY
VdW12
SciTegic.value.DoubleValue
5.859

@<SCITEGIC>MOL_PROPERTY
Bond
SciTegic.value.DoubleValue
0.094

@<SCITEGIC>MOL_PROPERTY
Angle
SciTegic.value.DoubleValue
2.818

@<SCITEGIC>MOL_PROPERTY
Pdih
SciTegic.value.DoubleValue
11.205

@<SCITEGIC>MOL_PROPERTY
Idih
SciTegic.value.DoubleValue
0.000

@<SCITEGIC>MOL_PROPERTY
Tether
SciTegic.value.DoubleValue
0.000

@<TRIPOS>MOLECULE
guest-s20_confgen4.mol2 : confsearch ligand conformer 539
          17          16           1
SMALL
USER_CHARGES
 
@<TRIPOS>ATOM
       1    C1      21.785410   17.186240   23.774707 C.2        1 MOL1         0.6132
       2    O1      22.893118   17.349379   23.302288 O.co2      1 MOL1        -0.6749
       3    O2      21.564087   17.141288   24.968858 O.co2      1 MOL1        -0.6749
       4    C2      20.610541   17.017983   22.820138 C.3        1 MOL1        -0.1955
       5    H1      19.972351   16.217949   23.212748 H          1 MOL1         0.0733
       6    H2      20.999592   16.673443   21.854434 H          1 MOL1         0.0733
       7    C3      19.806297   18.293826   22.658329 C.2        1 MOL1        -0.1395
       8    H3      19.260196   18.614870   23.544850 H          1 MOL1         0.0816
       9    C4      19.750023   19.008377   21.530293 C.2        1 MOL1        -0.1394
      10    H4      20.300421   18.689656   20.645681 H          1 MOL1         0.0816
      11    C5      18.949788   20.281909   21.371936 C.3        1 MOL1        -0.1826
      12    H5      18.355774   20.234502   20.449211 H          1 MOL1         0.0736
      13    H6      18.236970   20.393530   22.200574 H          1 MOL1         0.0736
      14    C6      19.874204   21.514089   21.325276 C.3        1 MOL1        -0.2882
      15    H7      20.573213   21.447565   20.481246 H          1 MOL1         0.0749
      16    H8      19.288387   22.435375   21.210739 H          1 MOL1         0.0749
      17    H9      20.461203   21.596027   22.249613 H          1 MOL1         0.0749
@<TRIPOS>BOND
    1     1     2    1
    2     1     3    2
    3     1     4    1
    4     4     5    1
    5     4     6    1
    6     4     7    1
    7     7     8    1
    8     7     9    2
    9     9    10    1
   10     9    11    1
   11    11    12    1
   12    11    13    1
   13    11    14    1
   14    14    15    1
   15    14    16    1
   16    14    17    1
@<TRIPOS>SUBSTRUCTURE
       1 MOL1            1 RESIDUE      1      MOL     
@<SCITEGIC>MOL_PROPERTY
VConf Rank
SciTegic.value.IntegerValue
539

@<SCITEGIC>MOL_PROPERTY
Conf_Id
SciTegic.value.IntegerValue
7

@<SCITEGIC>MOL_PROPERTY
Delta U+W
SciTegic.value.DoubleValue
-0.041

@<SCITEGIC>MOL_PROPERTY
U+W
SciTegic.value.DoubleValue
-49.468

@<SCITEGIC>MOL_PROPERTY
Grad RMS
SciTegic.value.DoubleValue
0.000000

@<SCITEGIC>MOL_PROPERTY
U
SciTegic.value.DoubleValue
14.121

@<SCITEGIC>MOL_PROPERTY
W
SciTegic.value.DoubleValue
-63.589

@<SCITEGIC>MOL_PROPERTY
W(PB)
SciTegic.value.DoubleValue
-65.660

@<SCITEGIC>MOL_PROPERTY
W(SA)
SciTegic.value.DoubleValue
2.071

@<SCITEGIC>MOL_PROPERTY
Valence
SciTegic.value.DoubleValue
15.230

@<SCITEGIC>MOL_PROPERTY
Coulomb
SciTegic.value.DoubleValue
-1.333

@<SCITEGIC>MOL_PROPERTY
VdW
SciTegic.value.DoubleValue
0.224

@<SCITEGIC>MOL_PROPERTY
VdW6
SciTegic.value.DoubleValue
-4.212

@<SCITEGIC>MOL_PROPERTY
VdW12
SciTegic.value.DoubleValue
4.436

@<SCITEGIC>MOL_PROPERTY
Bond
SciTegic.value.DoubleValue
0.044

@<SCITEGIC>MOL_PROPERTY
Angle
SciTegic.value.DoubleValue
2.230

@<SCITEGIC>MOL_PROPERTY
Pdih
SciTegic.value.DoubleValue
12.956

@<SCITEGIC>MOL_PROPERTY
Idih
SciTegic.value.DoubleValue
0.000

@<SCITEGIC>MOL_PROPERTY
Tether
SciTegic.value.DoubleValue
0.000

@<TRIPOS>MOLECULE
guest-s20_confgen4.mol2 : confsearch ligand conformer 540
          17          16           1
SMALL
USER_CHARGES
 
@<TRIPOS>ATOM
       1    C1      22.129984   17.381340   22.487011 C.2        1 MOL1         0.6132
       2    O1      21.619676   16.438555   21.914530 O.co2      1 MOL1        -0.6749
       3    O2      22.579389   17.318776   23.614488 O.co2      1 MOL1        -0.6749
       4    C2      22.237423   18.707279   21.740072 C.3        1 MOL1        -0.1955
       5    H1      22.360908   18.483680   20.673994 H          1 MOL1         0.0733
       6    H2      23.166839   19.195750   22.055195 H          1 MOL1         0.0733
       7    C3      21.068772   19.664159   21.928519 C.2        1 MOL1        -0.1395
       8    H3      21.165810   20.604261   21.386913 H          1 MOL1         0.0816
       9    C4      19.981446   19.440360   22.675936 C.2        1 MOL1        -0.1394
      10    H4      19.859204   18.508492   23.226764 H          1 MOL1         0.0816
      11    C5      18.846029   20.427590   22.831325 C.3        1 MOL1        -0.1826
      12    H5      18.593862   20.537754   23.894714 H          1 MOL1         0.0736
      13    H6      19.148499   21.421788   22.474622 H          1 MOL1         0.0736
      14    C6      17.599158   19.964242   22.053085 C.3        1 MOL1        -0.2882
      15    H7      16.778182   20.683459   22.170494 H          1 MOL1         0.0749
      16    H8      17.820625   19.871563   20.981658 H          1 MOL1         0.0749
      17    H9      17.251599   18.988024   22.415934 H          1 MOL1         0.0749
@<TRIPOS>BOND
    1     1     2    1
    2     1     3    2
    3     1     4    1
    4     4     5    1
    5     4     6    1
    6     4     7    1
    7     7     8    1
    8     7     9    2
    9     9    10    1
   10     9    11    1
   11    11    12    1
   12    11    13    1
   13    11    14    1
   14    14    15    1
   15    14    16    1
   16    14    17    1
@<TRIPOS>SUBSTRUCTURE
       1 MOL1            1 RESIDUE      1      MOL     
@<SCITEGIC>MOL_PROPERTY
VConf Rank
SciTegic.value.IntegerValue
540

@<SCITEGIC>MOL_PROPERTY
Conf_Id
SciTegic.value.IntegerValue
39

@<SCITEGIC>MOL_PROPERTY
Delta U+W
SciTegic.value.DoubleValue
-0.422

@<SCITEGIC>MOL_PROPERTY
U+W
SciTegic.value.DoubleValue
-49.849

@<SCITEGIC>MOL_PROPERTY
Grad RMS
SciTegic.value.DoubleValue
0.000000

@<SCITEGIC>MOL_PROPERTY
U
SciTegic.value.DoubleValue
14.465

@<SCITEGIC>MOL_PROPERTY
W
SciTegic.value.DoubleValue
-64.314

@<SCITEGIC>MOL_PROPERTY
W(PB)
SciTegic.value.DoubleValue
-66.406

@<SCITEGIC>MOL_PROPERTY
W(SA)
SciTegic.value.DoubleValue
2.093

@<SCITEGIC>MOL_PROPERTY
Valence
SciTegic.value.DoubleValue
14.072

@<SCITEGIC>MOL_PROPERTY
Coulomb
SciTegic.value.DoubleValue
-0.199

@<SCITEGIC>MOL_PROPERTY
VdW
SciTegic.value.DoubleValue
0.592

@<SCITEGIC>MOL_PROPERTY
VdW6
SciTegic.value.DoubleValue
-5.019

@<SCITEGIC>MOL_PROPERTY
VdW12
SciTegic.value.DoubleValue
5.611

@<SCITEGIC>MOL_PROPERTY
Bond
SciTegic.value.DoubleValue
0.085

@<SCITEGIC>MOL_PROPERTY
Angle
SciTegic.value.DoubleValue
2.748

@<SCITEGIC>MOL_PROPERTY
Pdih
SciTegic.value.DoubleValue
11.238

@<SCITEGIC>MOL_PROPERTY
Idih
SciTegic.value.DoubleValue
0.001

@<SCITEGIC>MOL_PROPERTY
Tether
SciTegic.value.DoubleValue
0.000

@<TRIPOS>MOLECULE
guest-s20_confgen4.mol2 : confsearch ligand conformer 541
          17          16           1
SMALL
USER_CHARGES
 
@<TRIPOS>ATOM
       1    C1      19.532887   20.102683   19.105773 C.2        1 MOL1         0.6132
       2    O1      20.106628   19.463405   18.246061 O.co2      1 MOL1        -0.6749
       3    O2      19.366921   21.305279   19.050663 O.co2      1 MOL1        -0.6749
       4    C2      18.988287   19.353113   20.314557 C.3        1 MOL1        -0.1955
       5    H1      18.547799   18.415369   19.956626 H          1 MOL1         0.0733
       6    H2      18.173267   19.945763   20.747163 H          1 MOL1         0.0733
       7    C3      20.058871   19.063968   21.349444 C.2        1 MOL1        -0.1395
       8    H3      20.821721   18.349216   21.042213 H          1 MOL1         0.0816
       9    C4      20.102772   19.625046   22.561670 C.2        1 MOL1        -0.1394
      10    H4      19.341309   20.341931   22.867137 H          1 MOL1         0.0816
      11    C5      21.173191   19.338366   23.590912 C.3        1 MOL1        -0.1826
      12    H5      22.024684   18.822206   23.126414 H          1 MOL1         0.0736
      13    H6      21.560238   20.283070   23.996207 H          1 MOL1         0.0736
      14    C6      20.618861   18.474833   24.740734 C.3        1 MOL1        -0.2882
      15    H7      20.248878   17.512769   24.362387 H          1 MOL1         0.0749
      16    H8      21.399881   18.270688   25.484655 H          1 MOL1         0.0749
      17    H9      19.789516   18.984403   25.248626 H          1 MOL1         0.0749
@<TRIPOS>BOND
    1     1     2    1
    2     1     3    2
    3     1     4    1
    4     4     5    1
    5     4     6    1
    6     4     7    1
    7     7     8    1
    8     7     9    2
    9     9    10    1
   10     9    11    1
   11    11    12    1
   12    11    13    1
   13    11    14    1
   14    14    15    1
   15    14    16    1
   16    14    17    1
@<TRIPOS>SUBSTRUCTURE
       1 MOL1            1 RESIDUE      1      MOL     
@<SCITEGIC>MOL_PROPERTY
VConf Rank
SciTegic.value.IntegerValue
541

@<SCITEGIC>MOL_PROPERTY
Conf_Id
SciTegic.value.IntegerValue
38

@<SCITEGIC>MOL_PROPERTY
Delta U+W
SciTegic.value.DoubleValue
0.000

@<SCITEGIC>MOL_PROPERTY
U+W
SciTegic.value.DoubleValue
-49.427

@<SCITEGIC>MOL_PROPERTY
Grad RMS
SciTegic.value.DoubleValue
0.000000

@<SCITEGIC>MOL_PROPERTY
U
SciTegic.value.DoubleValue
13.666

@<SCITEGIC>MOL_PROPERTY
W
SciTegic.value.DoubleValue
-63.093

@<SCITEGIC>MOL_PROPERTY
W(PB)
SciTegic.value.DoubleValue
-65.225

@<SCITEGIC>MOL_PROPERTY
W(SA)
SciTegic.value.DoubleValue
2.132

@<SCITEGIC>MOL_PROPERTY
Valence
SciTegic.value.DoubleValue
15.226

@<SCITEGIC>MOL_PROPERTY
Coulomb
SciTegic.value.DoubleValue
-1.822

@<SCITEGIC>MOL_PROPERTY
VdW
SciTegic.value.DoubleValue
0.261

@<SCITEGIC>MOL_PROPERTY
VdW6
SciTegic.value.DoubleValue
-4.165

@<SCITEGIC>MOL_PROPERTY
VdW12
SciTegic.value.DoubleValue
4.426

@<SCITEGIC>MOL_PROPERTY
Bond
SciTegic.value.DoubleValue
0.044

@<SCITEGIC>MOL_PROPERTY
Angle
SciTegic.value.DoubleValue
2.229

@<SCITEGIC>MOL_PROPERTY
Pdih
SciTegic.value.DoubleValue
12.953

@<SCITEGIC>MOL_PROPERTY
Idih
SciTegic.value.DoubleValue
0.000

@<SCITEGIC>MOL_PROPERTY
Tether
SciTegic.value.DoubleValue
0.000

@<TRIPOS>MOLECULE
guest-s20_confgen4.mol2 : confsearch ligand conformer 542
          17          16           1
SMALL
USER_CHARGES
 
@<TRIPOS>ATOM
       1    C1      20.825521   21.659893   20.169282 C.2        1 MOL1         0.6132
       2    O1      19.825987   22.313926   19.945696 O.co2      1 MOL1        -0.6749
       3    O2      21.684478   21.439871   19.338172 O.co2      1 MOL1        -0.6749
       4    C2      21.016800   21.088475   21.568030 C.3        1 MOL1        -0.1955
       5    H1      20.432706   21.696041   22.269698 H          1 MOL1         0.0733
       6    H2      22.071841   21.211479   21.838707 H          1 MOL1         0.0733
       7    C3      20.623390   19.626263   21.656966 C.2        1 MOL1        -0.1395
       8    H3      21.265526   18.937713   21.108548 H          1 MOL1         0.0816
       9    C4      19.571315   19.172008   22.344729 C.2        1 MOL1        -0.1394
      10    H4      18.927780   19.861420   22.890289 H          1 MOL1         0.0816
      11    C5      19.178243   17.714027   22.429040 C.3        1 MOL1        -0.1826
      12    H5      18.104251   17.607253   22.224898 H          1 MOL1         0.0736
      13    H6      19.704606   17.129037   21.662262 H          1 MOL1         0.0736
      14    C6      19.496752   17.134131   23.820921 C.3        1 MOL1        -0.2882
      15    H7      18.952760   17.676742   24.605188 H          1 MOL1         0.0749
      16    H8      19.208727   16.076272   23.876252 H          1 MOL1         0.0749
      17    H9      20.570844   17.206552   24.036979 H          1 MOL1         0.0749
@<TRIPOS>BOND
    1     1     2    1
    2     1     3    2
    3     1     4    1
    4     4     5    1
    5     4     6    1
    6     4     7    1
    7     7     8    1
    8     7     9    2
    9     9    10    1
   10     9    11    1
   11    11    12    1
   12    11    13    1
   13    11    14    1
   14    14    15    1
   15    14    16    1
   16    14    17    1
@<TRIPOS>SUBSTRUCTURE
       1 MOL1            1 RESIDUE      1      MOL     
@<SCITEGIC>MOL_PROPERTY
VConf Rank
SciTegic.value.IntegerValue
542

@<SCITEGIC>MOL_PROPERTY
Conf_Id
SciTegic.value.IntegerValue
35

@<SCITEGIC>MOL_PROPERTY
Delta U+W
SciTegic.value.DoubleValue
-0.102

@<SCITEGIC>MOL_PROPERTY
U+W
SciTegic.value.DoubleValue
-49.529

@<SCITEGIC>MOL_PROPERTY
Grad RMS
SciTegic.value.DoubleValue
0.000000

@<SCITEGIC>MOL_PROPERTY
U
SciTegic.value.DoubleValue
13.666

@<SCITEGIC>MOL_PROPERTY
W
SciTegic.value.DoubleValue
-63.195

@<SCITEGIC>MOL_PROPERTY
W(PB)
SciTegic.value.DoubleValue
-65.299

@<SCITEGIC>MOL_PROPERTY
W(SA)
SciTegic.value.DoubleValue
2.103

@<SCITEGIC>MOL_PROPERTY
Valence
SciTegic.value.DoubleValue
15.226

@<SCITEGIC>MOL_PROPERTY
Coulomb
SciTegic.value.DoubleValue
-1.822

@<SCITEGIC>MOL_PROPERTY
VdW
SciTegic.value.DoubleValue
0.261

@<SCITEGIC>MOL_PROPERTY
VdW6
SciTegic.value.DoubleValue
-4.165

@<SCITEGIC>MOL_PROPERTY
VdW12
SciTegic.value.DoubleValue
4.426

@<SCITEGIC>MOL_PROPERTY
Bond
SciTegic.value.DoubleValue
0.044

@<SCITEGIC>MOL_PROPERTY
Angle
SciTegic.value.DoubleValue
2.229

@<SCITEGIC>MOL_PROPERTY
Pdih
SciTegic.value.DoubleValue
12.953

@<SCITEGIC>MOL_PROPERTY
Idih
SciTegic.value.DoubleValue
0.000

@<SCITEGIC>MOL_PROPERTY
Tether
SciTegic.value.DoubleValue
0.000

@<TRIPOS>MOLECULE
guest-s20_confgen4.mol2 : confsearch ligand conformer 543
          17          16           1
SMALL
USER_CHARGES
 
@<TRIPOS>ATOM
       1    C1      19.500850   20.011120   19.491793 C.2        1 MOL1         0.6132
       2    O1      18.975453   19.103903   18.877068 O.co2      1 MOL1        -0.6749
       3    O2      19.074224   21.148945   19.505719 O.co2      1 MOL1        -0.6749
       4    C2      20.768165   19.705374   20.279273 C.3        1 MOL1        -0.1955
       5    H1      21.331275   20.638774   20.398683 H          1 MOL1         0.0733
       6    H2      21.385969   19.034002   19.671747 H          1 MOL1         0.0733
       7    C3      20.476036   19.068706   21.624903 C.2        1 MOL1        -0.1395
       8    H3      20.058982   18.064567   21.571422 H          1 MOL1         0.0816
       9    C4      20.697363   19.670882   22.800110 C.2        1 MOL1        -0.1394
      10    H4      21.111918   20.678372   22.813952 H          1 MOL1         0.0816
      11    C5      20.425749   19.095719   24.179966 C.3        1 MOL1        -0.1826
      12    H5      21.360311   19.096606   24.757113 H          1 MOL1         0.0736
      13    H6      19.745457   19.768895   24.719000 H          1 MOL1         0.0736
      14    C6      19.831645   17.669878   24.186728 C.3        1 MOL1        -0.2882
      15    H7      20.512006   16.957232   23.702324 H          1 MOL1         0.0749
      16    H8      19.663982   17.327691   25.216207 H          1 MOL1         0.0749
      17    H9      18.867480   17.642456   23.662208 H          1 MOL1         0.0749
@<TRIPOS>BOND
    1     1     2    1
    2     1     3    2
    3     1     4    1
    4     4     5    1
    5     4     6    1
    6     4     7    1
    7     7     8    1
    8     7     9    2
    9     9    10    1
   10     9    11    1
   11    11    12    1
   12    11    13    1
   13    11    14    1
   14    14    15    1
   15    14    16    1
   16    14    17    1
@<TRIPOS>SUBSTRUCTURE
       1 MOL1            1 RESIDUE      1      MOL     
@<SCITEGIC>MOL_PROPERTY
VConf Rank
SciTegic.value.IntegerValue
543

@<SCITEGIC>MOL_PROPERTY
Conf_Id
SciTegic.value.IntegerValue
19

@<SCITEGIC>MOL_PROPERTY
Delta U+W
SciTegic.value.DoubleValue
-0.496

@<SCITEGIC>MOL_PROPERTY
U+W
SciTegic.value.DoubleValue
-49.923

@<SCITEGIC>MOL_PROPERTY
Grad RMS
SciTegic.value.DoubleValue
0.000000

@<SCITEGIC>MOL_PROPERTY
U
SciTegic.value.DoubleValue
13.863

@<SCITEGIC>MOL_PROPERTY
W
SciTegic.value.DoubleValue
-63.786

@<SCITEGIC>MOL_PROPERTY
W(PB)
SciTegic.value.DoubleValue
-65.856

@<SCITEGIC>MOL_PROPERTY
W(SA)
SciTegic.value.DoubleValue
2.070

@<SCITEGIC>MOL_PROPERTY
Valence
SciTegic.value.DoubleValue
14.117

@<SCITEGIC>MOL_PROPERTY
Coulomb
SciTegic.value.DoubleValue
-1.228

@<SCITEGIC>MOL_PROPERTY
VdW
SciTegic.value.DoubleValue
0.974

@<SCITEGIC>MOL_PROPERTY
VdW6
SciTegic.value.DoubleValue
-4.885

@<SCITEGIC>MOL_PROPERTY
VdW12
SciTegic.value.DoubleValue
5.859

@<SCITEGIC>MOL_PROPERTY
Bond
SciTegic.value.DoubleValue
0.094

@<SCITEGIC>MOL_PROPERTY
Angle
SciTegic.value.DoubleValue
2.818

@<SCITEGIC>MOL_PROPERTY
Pdih
SciTegic.value.DoubleValue
11.205

@<SCITEGIC>MOL_PROPERTY
Idih
SciTegic.value.DoubleValue
0.000

@<SCITEGIC>MOL_PROPERTY
Tether
SciTegic.value.DoubleValue
0.000

@<TRIPOS>MOLECULE
guest-s20_confgen4.mol2 : confsearch ligand conformer 544
          17          16           1
SMALL
USER_CHARGES
 
@<TRIPOS>ATOM
       1    C1      22.965118   19.822675   21.807545 C.2        1 MOL1         0.6132
       2    O1      22.912511   20.469738   20.780240 O.co2      1 MOL1        -0.6749
       3    O2      23.577844   20.178223   22.795044 O.co2      1 MOL1        -0.6749
       4    C2      22.232951   18.488092   21.859003 C.3        1 MOL1        -0.1955
       5    H1      22.884428   17.768453   22.368101 H          1 MOL1         0.0733
       6    H2      22.100210   18.129612   20.831129 H          1 MOL1         0.0733
       7    C3      20.900639   18.583844   22.577710 C.2        1 MOL1        -0.1395
       8    H3      20.962384   18.785008   23.646792 H          1 MOL1         0.0816
       9    C4      19.713148   18.445986   21.980151 C.2        1 MOL1        -0.1394
      10    H4      19.651882   18.249963   20.910160 H          1 MOL1         0.0816
      11    C5      18.385712   18.544740   22.698132 C.3        1 MOL1        -0.1826
      12    H5      17.748758   17.694527   22.418937 H          1 MOL1         0.0736
      13    H6      18.531543   18.485912   23.785551 H          1 MOL1         0.0736
      14    C6      17.665509   19.862223   22.350948 C.3        1 MOL1        -0.2882
      15    H7      17.471734   19.930216   21.272406 H          1 MOL1         0.0749
      16    H8      16.703175   19.928891   22.874911 H          1 MOL1         0.0749
      17    H9      18.274032   20.727906   22.644163 H          1 MOL1         0.0749
@<TRIPOS>BOND
    1     1     2    1
    2     1     3    2
    3     1     4    1
    4     4     5    1
    5     4     6    1
    6     4     7    1
    7     7     8    1
    8     7     9    2
    9     9    10    1
   10     9    11    1
   11    11    12    1
   12    11    13    1
   13    11    14    1
   14    14    15    1
   15    14    16    1
   16    14    17    1
@<TRIPOS>SUBSTRUCTURE
       1 MOL1            1 RESIDUE      1      MOL     
@<SCITEGIC>MOL_PROPERTY
VConf Rank
SciTegic.value.IntegerValue
544

@<SCITEGIC>MOL_PROPERTY
Conf_Id
SciTegic.value.IntegerValue
7

@<SCITEGIC>MOL_PROPERTY
Delta U+W
SciTegic.value.DoubleValue
-0.041

@<SCITEGIC>MOL_PROPERTY
U+W
SciTegic.value.DoubleValue
-49.468

@<SCITEGIC>MOL_PROPERTY
Grad RMS
SciTegic.value.DoubleValue
0.000000

@<SCITEGIC>MOL_PROPERTY
U
SciTegic.value.DoubleValue
14.121

@<SCITEGIC>MOL_PROPERTY
W
SciTegic.value.DoubleValue
-63.589

@<SCITEGIC>MOL_PROPERTY
W(PB)
SciTegic.value.DoubleValue
-65.660

@<SCITEGIC>MOL_PROPERTY
W(SA)
SciTegic.value.DoubleValue
2.071

@<SCITEGIC>MOL_PROPERTY
Valence
SciTegic.value.DoubleValue
15.230

@<SCITEGIC>MOL_PROPERTY
Coulomb
SciTegic.value.DoubleValue
-1.333

@<SCITEGIC>MOL_PROPERTY
VdW
SciTegic.value.DoubleValue
0.224

@<SCITEGIC>MOL_PROPERTY
VdW6
SciTegic.value.DoubleValue
-4.212

@<SCITEGIC>MOL_PROPERTY
VdW12
SciTegic.value.DoubleValue
4.436

@<SCITEGIC>MOL_PROPERTY
Bond
SciTegic.value.DoubleValue
0.044

@<SCITEGIC>MOL_PROPERTY
Angle
SciTegic.value.DoubleValue
2.230

@<SCITEGIC>MOL_PROPERTY
Pdih
SciTegic.value.DoubleValue
12.956

@<SCITEGIC>MOL_PROPERTY
Idih
SciTegic.value.DoubleValue
0.000

@<SCITEGIC>MOL_PROPERTY
Tether
SciTegic.value.DoubleValue
0.000

@<TRIPOS>MOLECULE
guest-s20_confgen4.mol2 : confsearch ligand conformer 545
          17          16           1
SMALL
USER_CHARGES
 
@<TRIPOS>ATOM
       1    C1      21.371308   17.133497   21.037735 C.2        1 MOL1         0.6132
       2    O1      22.528544   17.325164   21.355635 O.co2      1 MOL1        -0.6749
       3    O2      21.006066   16.990207   19.887453 O.co2      1 MOL1        -0.6749
       4    C2      20.324825   17.039946   22.143944 C.3        1 MOL1        -0.1955
       5    H1      20.808211   16.609333   23.028636 H          1 MOL1         0.0733
       6    H2      19.568122   16.311766   21.829503 H          1 MOL1         0.0733
       7    C3      19.647142   18.350031   22.519843 C.2        1 MOL1        -0.1395
       8    H3      18.903834   18.260682   23.311080 H          1 MOL1         0.0816
       9    C4      19.891087   19.547024   21.973313 C.2        1 MOL1        -0.1394
      10    H4      20.629859   19.664067   21.181322 H          1 MOL1         0.0816
      11    C5      19.186964   20.821471   22.383115 C.3        1 MOL1        -0.1826
      12    H5      18.839343   21.356555   21.489043 H          1 MOL1         0.0736
      13    H6      18.293759   20.592993   22.980724 H          1 MOL1         0.0736
      14    C6      20.124566   21.735026   23.196353 C.3        1 MOL1        -0.2882
      15    H7      19.608987   22.658678   23.489788 H          1 MOL1         0.0749
      16    H8      20.465207   21.229787   24.109749 H          1 MOL1         0.0749
      17    H9      21.009579   22.010842   22.608020 H          1 MOL1         0.0749
@<TRIPOS>BOND
    1     1     2    1
    2     1     3    2
    3     1     4    1
    4     4     5    1
    5     4     6    1
    6     4     7    1
    7     7     8    1
    8     7     9    2
    9     9    10    1
   10     9    11    1
   11    11    12    1
   12    11    13    1
   13    11    14    1
   14    14    15    1
   15    14    16    1
   16    14    17    1
@<TRIPOS>SUBSTRUCTURE
       1 MOL1            1 RESIDUE      1      MOL     
@<SCITEGIC>MOL_PROPERTY
VConf Rank
SciTegic.value.IntegerValue
545

@<SCITEGIC>MOL_PROPERTY
Conf_Id
SciTegic.value.IntegerValue
39

@<SCITEGIC>MOL_PROPERTY
Delta U+W
SciTegic.value.DoubleValue
-0.422

@<SCITEGIC>MOL_PROPERTY
U+W
SciTegic.value.DoubleValue
-49.849

@<SCITEGIC>MOL_PROPERTY
Grad RMS
SciTegic.value.DoubleValue
0.000000

@<SCITEGIC>MOL_PROPERTY
U
SciTegic.value.DoubleValue
14.465

@<SCITEGIC>MOL_PROPERTY
W
SciTegic.value.DoubleValue
-64.314

@<SCITEGIC>MOL_PROPERTY
W(PB)
SciTegic.value.DoubleValue
-66.406

@<SCITEGIC>MOL_PROPERTY
W(SA)
SciTegic.value.DoubleValue
2.093

@<SCITEGIC>MOL_PROPERTY
Valence
SciTegic.value.DoubleValue
14.072

@<SCITEGIC>MOL_PROPERTY
Coulomb
SciTegic.value.DoubleValue
-0.199

@<SCITEGIC>MOL_PROPERTY
VdW
SciTegic.value.DoubleValue
0.592

@<SCITEGIC>MOL_PROPERTY
VdW6
SciTegic.value.DoubleValue
-5.019

@<SCITEGIC>MOL_PROPERTY
VdW12
SciTegic.value.DoubleValue
5.611

@<SCITEGIC>MOL_PROPERTY
Bond
SciTegic.value.DoubleValue
0.085

@<SCITEGIC>MOL_PROPERTY
Angle
SciTegic.value.DoubleValue
2.748

@<SCITEGIC>MOL_PROPERTY
Pdih
SciTegic.value.DoubleValue
11.238

@<SCITEGIC>MOL_PROPERTY
Idih
SciTegic.value.DoubleValue
0.001

@<SCITEGIC>MOL_PROPERTY
Tether
SciTegic.value.DoubleValue
0.000

@<TRIPOS>MOLECULE
guest-s20_confgen4.mol2 : confsearch ligand conformer 546
          17          16           1
SMALL
USER_CHARGES
 
@<TRIPOS>ATOM
       1    C1      17.798956   20.273861   24.023567 C.2        1 MOL1         0.6132
       2    O1      18.089594   20.416487   25.194954 O.co2      1 MOL1        -0.6749
       3    O2      16.740422   19.812103   23.645275 O.co2      1 MOL1        -0.6749
       4    C2      18.815985   20.702833   22.974167 C.3        1 MOL1        -0.1955
       5    H1      19.262942   21.646719   23.307060 H          1 MOL1         0.0733
       6    H2      18.278707   20.913629   22.041677 H          1 MOL1         0.0733
       7    C3      19.898214   19.662904   22.754907 C.2        1 MOL1        -0.1395
       8    H3      20.578452   19.515727   23.593248 H          1 MOL1         0.0816
       9    C4      20.041730   18.953628   21.631271 C.2        1 MOL1        -0.1394
      10    H4      19.359354   19.099178   20.794468 H          1 MOL1         0.0816
      11    C5      21.119175   17.914387   21.415831 C.3        1 MOL1        -0.1826
      12    H5      21.590659   17.645753   22.371215 H          1 MOL1         0.0736
      13    H6      20.672111   16.994467   21.015312 H          1 MOL1         0.0736
      14    C6      22.197253   18.428034   20.441677 C.3        1 MOL1        -0.2882
      15    H7      22.676987   19.334518   20.833780 H          1 MOL1         0.0749
      16    H8      22.975900   17.669466   20.288814 H          1 MOL1         0.0749
      17    H9      21.759273   18.668416   19.464017 H          1 MOL1         0.0749
@<TRIPOS>BOND
    1     1     2    1
    2     1     3    2
    3     1     4    1
    4     4     5    1
    5     4     6    1
    6     4     7    1
    7     7     8    1
    8     7     9    2
    9     9    10    1
   10     9    11    1
   11    11    12    1
   12    11    13    1
   13    11    14    1
   14    14    15    1
   15    14    16    1
   16    14    17    1
@<TRIPOS>SUBSTRUCTURE
       1 MOL1            1 RESIDUE      1      MOL     
@<SCITEGIC>MOL_PROPERTY
VConf Rank
SciTegic.value.IntegerValue
546

@<SCITEGIC>MOL_PROPERTY
Conf_Id
SciTegic.value.IntegerValue
38

@<SCITEGIC>MOL_PROPERTY
Delta U+W
SciTegic.value.DoubleValue
0.000

@<SCITEGIC>MOL_PROPERTY
U+W
SciTegic.value.DoubleValue
-49.427

@<SCITEGIC>MOL_PROPERTY
Grad RMS
SciTegic.value.DoubleValue
0.000000

@<SCITEGIC>MOL_PROPERTY
U
SciTegic.value.DoubleValue
13.666

@<SCITEGIC>MOL_PROPERTY
W
SciTegic.value.DoubleValue
-63.093

@<SCITEGIC>MOL_PROPERTY
W(PB)
SciTegic.value.DoubleValue
-65.225

@<SCITEGIC>MOL_PROPERTY
W(SA)
SciTegic.value.DoubleValue
2.132

@<SCITEGIC>MOL_PROPERTY
Valence
SciTegic.value.DoubleValue
15.226

@<SCITEGIC>MOL_PROPERTY
Coulomb
SciTegic.value.DoubleValue
-1.822

@<SCITEGIC>MOL_PROPERTY
VdW
SciTegic.value.DoubleValue
0.261

@<SCITEGIC>MOL_PROPERTY
VdW6
SciTegic.value.DoubleValue
-4.165

@<SCITEGIC>MOL_PROPERTY
VdW12
SciTegic.value.DoubleValue
4.426

@<SCITEGIC>MOL_PROPERTY
Bond
SciTegic.value.DoubleValue
0.044

@<SCITEGIC>MOL_PROPERTY
Angle
SciTegic.value.DoubleValue
2.229

@<SCITEGIC>MOL_PROPERTY
Pdih
SciTegic.value.DoubleValue
12.953

@<SCITEGIC>MOL_PROPERTY
Idih
SciTegic.value.DoubleValue
0.000

@<SCITEGIC>MOL_PROPERTY
Tether
SciTegic.value.DoubleValue
0.000

@<TRIPOS>MOLECULE
guest-s20_confgen4.mol2 : confsearch ligand conformer 547
          17          16           1
SMALL
USER_CHARGES
 
@<TRIPOS>ATOM
       1    C1      19.189585   22.302754   22.145383 C.2        1 MOL1         0.6132
       2    O1      18.536490   22.537672   21.147837 O.co2      1 MOL1        -0.6749
       3    O2      19.970147   23.092696   22.639018 O.co2      1 MOL1        -0.6749
       4    C2      19.018060   20.947250   22.818280 C.3        1 MOL1        -0.1955
       5    H1      18.034081   20.549326   22.542449 H          1 MOL1         0.0733
       6    H2      19.005516   21.110532   23.902111 H          1 MOL1         0.0733
       7    C3      20.120956   19.972783   22.451155 C.2        1 MOL1        -0.1395
       8    H3      21.109528   20.223199   22.834844 H          1 MOL1         0.0816
       9    C4      19.937871   18.875502   21.710424 C.2        1 MOL1        -0.1394
      10    H4      18.949691   18.627395   21.324414 H          1 MOL1         0.0816
      11    C5      21.039570   17.907066   21.342032 C.3        1 MOL1        -0.1826
      12    H5      21.001424   17.694460   20.265056 H          1 MOL1         0.0736
      13    H6      22.024497   18.351546   21.540964 H          1 MOL1         0.0736
      14    C6      20.905742   16.589856   22.130770 C.3        1 MOL1        -0.2882
      15    H7      19.944059   16.103534   21.920807 H          1 MOL1         0.0749
      16    H8      21.707388   15.890971   21.858724 H          1 MOL1         0.0749
      17    H9      20.966923   16.774564   23.211390 H          1 MOL1         0.0749
@<TRIPOS>BOND
    1     1     2    1
    2     1     3    2
    3     1     4    1
    4     4     5    1
    5     4     6    1
    6     4     7    1
    7     7     8    1
    8     7     9    2
    9     9    10    1
   10     9    11    1
   11    11    12    1
   12    11    13    1
   13    11    14    1
   14    14    15    1
   15    14    16    1
   16    14    17    1
@<TRIPOS>SUBSTRUCTURE
       1 MOL1            1 RESIDUE      1      MOL     
@<SCITEGIC>MOL_PROPERTY
VConf Rank
SciTegic.value.IntegerValue
547

@<SCITEGIC>MOL_PROPERTY
Conf_Id
SciTegic.value.IntegerValue
35

@<SCITEGIC>MOL_PROPERTY
Delta U+W
SciTegic.value.DoubleValue
-0.102

@<SCITEGIC>MOL_PROPERTY
U+W
SciTegic.value.DoubleValue
-49.529

@<SCITEGIC>MOL_PROPERTY
Grad RMS
SciTegic.value.DoubleValue
0.000000

@<SCITEGIC>MOL_PROPERTY
U
SciTegic.value.DoubleValue
13.666

@<SCITEGIC>MOL_PROPERTY
W
SciTegic.value.DoubleValue
-63.195

@<SCITEGIC>MOL_PROPERTY
W(PB)
SciTegic.value.DoubleValue
-65.299

@<SCITEGIC>MOL_PROPERTY
W(SA)
SciTegic.value.DoubleValue
2.103

@<SCITEGIC>MOL_PROPERTY
Valence
SciTegic.value.DoubleValue
15.226

@<SCITEGIC>MOL_PROPERTY
Coulomb
SciTegic.value.DoubleValue
-1.822

@<SCITEGIC>MOL_PROPERTY
VdW
SciTegic.value.DoubleValue
0.261

@<SCITEGIC>MOL_PROPERTY
VdW6
SciTegic.value.DoubleValue
-4.165

@<SCITEGIC>MOL_PROPERTY
VdW12
SciTegic.value.DoubleValue
4.426

@<SCITEGIC>MOL_PROPERTY
Bond
SciTegic.value.DoubleValue
0.044

@<SCITEGIC>MOL_PROPERTY
Angle
SciTegic.value.DoubleValue
2.229

@<SCITEGIC>MOL_PROPERTY
Pdih
SciTegic.value.DoubleValue
12.953

@<SCITEGIC>MOL_PROPERTY
Idih
SciTegic.value.DoubleValue
0.000

@<SCITEGIC>MOL_PROPERTY
Tether
SciTegic.value.DoubleValue
0.000

@<TRIPOS>MOLECULE
guest-s20_confgen4.mol2 : confsearch ligand conformer 548
          17          16           1
SMALL
USER_CHARGES
 
@<TRIPOS>ATOM
       1    C1      18.423424   16.764596   22.065688 C.2        1 MOL1         0.6132
       2    O1      19.054758   15.774364   21.752910 O.co2      1 MOL1        -0.6749
       3    O2      17.603528   16.783314   22.962498 O.co2      1 MOL1        -0.6749
       4    C2      18.667740   18.048525   21.283686 C.3        1 MOL1        -0.1955
       5    H1      17.775177   18.679388   21.372726 H          1 MOL1         0.0733
       6    H2      18.767303   17.781919   20.225140 H          1 MOL1         0.0733
       7    C3      19.906796   18.787272   21.753152 C.2        1 MOL1        -0.1395
       8    H3      20.845794   18.276984   21.545840 H          1 MOL1         0.0816
       9    C4      19.878790   19.970153   22.379827 C.2        1 MOL1        -0.1394
      10    H4      18.919465   20.448754   22.574042 H          1 MOL1         0.0816
      11    C5      21.076074   20.761424   22.878815 C.3        1 MOL1        -0.1826
      12    H5      21.065144   21.756372   22.413557 H          1 MOL1         0.0736
      13    H6      20.961908   20.938549   23.956829 H          1 MOL1         0.0736
      14    C6      22.448078   20.100378   22.620646 C.3        1 MOL1        -0.2882
      15    H7      22.620425   19.957118   21.545855 H          1 MOL1         0.0749
      16    H8      23.258254   20.730630   23.009781 H          1 MOL1         0.0749
      17    H9      22.514206   19.123380   23.117226 H          1 MOL1         0.0749
@<TRIPOS>BOND
    1     1     2    1
    2     1     3    2
    3     1     4    1
    4     4     5    1
    5     4     6    1
    6     4     7    1
    7     7     8    1
    8     7     9    2
    9     9    10    1
   10     9    11    1
   11    11    12    1
   12    11    13    1
   13    11    14    1
   14    14    15    1
   15    14    16    1
   16    14    17    1
@<TRIPOS>SUBSTRUCTURE
       1 MOL1            1 RESIDUE      1      MOL     
@<SCITEGIC>MOL_PROPERTY
VConf Rank
SciTegic.value.IntegerValue
548

@<SCITEGIC>MOL_PROPERTY
Conf_Id
SciTegic.value.IntegerValue
19

@<SCITEGIC>MOL_PROPERTY
Delta U+W
SciTegic.value.DoubleValue
-0.496

@<SCITEGIC>MOL_PROPERTY
U+W
SciTegic.value.DoubleValue
-49.923

@<SCITEGIC>MOL_PROPERTY
Grad RMS
SciTegic.value.DoubleValue
0.000000

@<SCITEGIC>MOL_PROPERTY
U
SciTegic.value.DoubleValue
13.863

@<SCITEGIC>MOL_PROPERTY
W
SciTegic.value.DoubleValue
-63.786

@<SCITEGIC>MOL_PROPERTY
W(PB)
SciTegic.value.DoubleValue
-65.856

@<SCITEGIC>MOL_PROPERTY
W(SA)
SciTegic.value.DoubleValue
2.070

@<SCITEGIC>MOL_PROPERTY
Valence
SciTegic.value.DoubleValue
14.117

@<SCITEGIC>MOL_PROPERTY
Coulomb
SciTegic.value.DoubleValue
-1.228

@<SCITEGIC>MOL_PROPERTY
VdW
SciTegic.value.DoubleValue
0.974

@<SCITEGIC>MOL_PROPERTY
VdW6
SciTegic.value.DoubleValue
-4.885

@<SCITEGIC>MOL_PROPERTY
VdW12
SciTegic.value.DoubleValue
5.859

@<SCITEGIC>MOL_PROPERTY
Bond
SciTegic.value.DoubleValue
0.094

@<SCITEGIC>MOL_PROPERTY
Angle
SciTegic.value.DoubleValue
2.818

@<SCITEGIC>MOL_PROPERTY
Pdih
SciTegic.value.DoubleValue
11.205

@<SCITEGIC>MOL_PROPERTY
Idih
SciTegic.value.DoubleValue
0.000

@<SCITEGIC>MOL_PROPERTY
Tether
SciTegic.value.DoubleValue
0.000

@<TRIPOS>MOLECULE
guest-s20_confgen4.mol2 : confsearch ligand conformer 549
          17          16           1
SMALL
USER_CHARGES
 
@<TRIPOS>ATOM
       1    C1      20.140457   21.329248   20.343619 C.2        1 MOL1         0.6132
       2    O1      19.688184   20.827344   19.333494 O.co2      1 MOL1        -0.6749
       3    O2      19.766574   22.396300   20.789281 O.co2      1 MOL1        -0.6749
       4    C2      21.243478   20.587611   21.087358 C.3        1 MOL1        -0.1955
       5    H1      21.992042   21.325514   21.398221 H          1 MOL1         0.0733
       6    H2      21.736377   19.908153   20.381638 H          1 MOL1         0.0733
       7    C3      20.723155   19.832620   22.295670 C.2        1 MOL1        -0.1395
       8    H3      20.357615   20.455727   23.111349 H          1 MOL1         0.0816
       9    C4      20.689633   18.499993   22.391569 C.2        1 MOL1        -0.1394
      10    H4      21.050515   17.877384   21.573533 H          1 MOL1         0.0816
      11    C5      20.167669   17.749106   23.596168 C.3        1 MOL1        -0.1826
      12    H5      20.886118   16.971339   23.888453 H          1 MOL1         0.0736
      13    H6      20.067114   18.425019   24.456539 H          1 MOL1         0.0736
      14    C6      18.802449   17.100629   23.295097 C.3        1 MOL1        -0.2882
      15    H7      18.881771   16.389449   22.462416 H          1 MOL1         0.0749
      16    H8      18.428162   16.557509   24.172592 H          1 MOL1         0.0749
      17    H9      18.060265   17.863065   23.023925 H          1 MOL1         0.0749
@<TRIPOS>BOND
    1     1     2    1
    2     1     3    2
    3     1     4    1
    4     4     5    1
    5     4     6    1
    6     4     7    1
    7     7     8    1
    8     7     9    2
    9     9    10    1
   10     9    11    1
   11    11    12    1
   12    11    13    1
   13    11    14    1
   14    14    15    1
   15    14    16    1
   16    14    17    1
@<TRIPOS>SUBSTRUCTURE
       1 MOL1            1 RESIDUE      1      MOL     
@<SCITEGIC>MOL_PROPERTY
VConf Rank
SciTegic.value.IntegerValue
549

@<SCITEGIC>MOL_PROPERTY
Conf_Id
SciTegic.value.IntegerValue
7

@<SCITEGIC>MOL_PROPERTY
Delta U+W
SciTegic.value.DoubleValue
-0.041

@<SCITEGIC>MOL_PROPERTY
U+W
SciTegic.value.DoubleValue
-49.468

@<SCITEGIC>MOL_PROPERTY
Grad RMS
SciTegic.value.DoubleValue
0.000000

@<SCITEGIC>MOL_PROPERTY
U
SciTegic.value.DoubleValue
14.121

@<SCITEGIC>MOL_PROPERTY
W
SciTegic.value.DoubleValue
-63.589

@<SCITEGIC>MOL_PROPERTY
W(PB)
SciTegic.value.DoubleValue
-65.660

@<SCITEGIC>MOL_PROPERTY
W(SA)
SciTegic.value.DoubleValue
2.071

@<SCITEGIC>MOL_PROPERTY
Valence
SciTegic.value.DoubleValue
15.230

@<SCITEGIC>MOL_PROPERTY
Coulomb
SciTegic.value.DoubleValue
-1.333

@<SCITEGIC>MOL_PROPERTY
VdW
SciTegic.value.DoubleValue
0.224

@<SCITEGIC>MOL_PROPERTY
VdW6
SciTegic.value.DoubleValue
-4.212

@<SCITEGIC>MOL_PROPERTY
VdW12
SciTegic.value.DoubleValue
4.436

@<SCITEGIC>MOL_PROPERTY
Bond
SciTegic.value.DoubleValue
0.044

@<SCITEGIC>MOL_PROPERTY
Angle
SciTegic.value.DoubleValue
2.230

@<SCITEGIC>MOL_PROPERTY
Pdih
SciTegic.value.DoubleValue
12.956

@<SCITEGIC>MOL_PROPERTY
Idih
SciTegic.value.DoubleValue
0.000

@<SCITEGIC>MOL_PROPERTY
Tether
SciTegic.value.DoubleValue
0.000

@<TRIPOS>MOLECULE
guest-s20_confgen4.mol2 : confsearch ligand conformer 550
          17          16           1
SMALL
USER_CHARGES
 
@<TRIPOS>ATOM
       1    C1      19.683265   16.960704   20.823371 C.2        1 MOL1         0.6132
       2    O1      20.525599   17.065634   19.953626 O.co2      1 MOL1        -0.6749
       3    O2      18.502625   16.782716   20.596453 O.co2      1 MOL1        -0.6749
       4    C2      20.136054   17.028162   22.278709 C.3        1 MOL1        -0.1955
       5    H1      21.147432   16.609118   22.336022 H          1 MOL1         0.0733
       6    H2      19.497020   16.353889   22.860699 H          1 MOL1         0.0733
       7    C3      20.121798   18.414176   22.907706 C.2        1 MOL1        -0.1395
       8    H3      20.448387   18.439652   23.946569 H          1 MOL1         0.0816
       9    C4      19.755454   19.549534   22.301282 C.2        1 MOL1        -0.1394
      10    H4      19.425771   19.551953   21.262997 H          1 MOL1         0.0816
      11    C5      19.758088   20.904528   22.973535 C.3        1 MOL1        -0.1826
      12    H5      18.804199   21.414603   22.782646 H          1 MOL1         0.0736
      13    H6      19.843538   20.793699   24.063291 H          1 MOL1         0.0736
      14    C6      20.919153   21.776463   22.457110 C.3        1 MOL1        -0.2882
      15    H7      20.915371   22.758756   22.947158 H          1 MOL1         0.0749
      16    H8      21.886241   21.297839   22.660224 H          1 MOL1         0.0749
      17    H9      20.837411   21.935646   21.373857 H          1 MOL1         0.0749
@<TRIPOS>BOND
    1     1     2    1
    2     1     3    2
    3     1     4    1
    4     4     5    1
    5     4     6    1
    6     4     7    1
    7     7     8    1
    8     7     9    2
    9     9    10    1
   10     9    11    1
   11    11    12    1
   12    11    13    1
   13    11    14    1
   14    14    15    1
   15    14    16    1
   16    14    17    1
@<TRIPOS>SUBSTRUCTURE
       1 MOL1            1 RESIDUE      1      MOL     
@<SCITEGIC>MOL_PROPERTY
VConf Rank
SciTegic.value.IntegerValue
550

@<SCITEGIC>MOL_PROPERTY
Conf_Id
SciTegic.value.IntegerValue
39

@<SCITEGIC>MOL_PROPERTY
Delta U+W
SciTegic.value.DoubleValue
-0.422

@<SCITEGIC>MOL_PROPERTY
U+W
SciTegic.value.DoubleValue
-49.849

@<SCITEGIC>MOL_PROPERTY
Grad RMS
SciTegic.value.DoubleValue
0.000000

@<SCITEGIC>MOL_PROPERTY
U
SciTegic.value.DoubleValue
14.465

@<SCITEGIC>MOL_PROPERTY
W
SciTegic.value.DoubleValue
-64.314

@<SCITEGIC>MOL_PROPERTY
W(PB)
SciTegic.value.DoubleValue
-66.406

@<SCITEGIC>MOL_PROPERTY
W(SA)
SciTegic.value.DoubleValue
2.093

@<SCITEGIC>MOL_PROPERTY
Valence
SciTegic.value.DoubleValue
14.072

@<SCITEGIC>MOL_PROPERTY
Coulomb
SciTegic.value.DoubleValue
-0.199

@<SCITEGIC>MOL_PROPERTY
VdW
SciTegic.value.DoubleValue
0.592

@<SCITEGIC>MOL_PROPERTY
VdW6
SciTegic.value.DoubleValue
-5.019

@<SCITEGIC>MOL_PROPERTY
VdW12
SciTegic.value.DoubleValue
5.611

@<SCITEGIC>MOL_PROPERTY
Bond
SciTegic.value.DoubleValue
0.085

@<SCITEGIC>MOL_PROPERTY
Angle
SciTegic.value.DoubleValue
2.748

@<SCITEGIC>MOL_PROPERTY
Pdih
SciTegic.value.DoubleValue
11.238

@<SCITEGIC>MOL_PROPERTY
Idih
SciTegic.value.DoubleValue
0.001

@<SCITEGIC>MOL_PROPERTY
Tether
SciTegic.value.DoubleValue
0.000

@<TRIPOS>MOLECULE
guest-s20_confgen4.mol2 : confsearch ligand conformer 551
          17          16           1
SMALL
USER_CHARGES
 
@<TRIPOS>ATOM
       1    C1      17.267137   20.625484   21.770099 C.2        1 MOL1         0.6132
       2    O1      17.175341   21.788197   22.111616 O.co2      1 MOL1        -0.6749
       3    O2      16.404858   19.794416   21.976545 O.co2      1 MOL1        -0.6749
       4    C2      18.530068   20.189563   21.038949 C.3        1 MOL1        -0.1955
       5    H1      18.796977   20.981769   20.329951 H          1 MOL1         0.0733
       6    H2      18.293476   19.296573   20.447989 H          1 MOL1         0.0733
       7    C3      19.686547   19.925289   21.984180 C.2        1 MOL1        -0.1395
       8    H3      20.084093   20.804698   22.489944 H          1 MOL1         0.0816
       9    C4      20.209423   18.716563   22.211799 C.2        1 MOL1        -0.1394
      10    H4      19.809469   17.837208   21.707981 H          1 MOL1         0.0816
      11    C5      21.360144   18.454418   23.157549 C.3        1 MOL1        -0.1826
      12    H5      21.530612   19.324801   23.806082 H          1 MOL1         0.0736
      13    H6      21.112479   17.612671   23.818351 H          1 MOL1         0.0736
      14    C6      22.652996   18.135423   22.381768 C.3        1 MOL1        -0.2882
      15    H7      22.935068   18.974600   21.732292 H          1 MOL1         0.0749
      16    H8      23.484173   17.945515   23.073263 H          1 MOL1         0.0749
      17    H9      22.522852   17.244920   21.752884 H          1 MOL1         0.0749
@<TRIPOS>BOND
    1     1     2    1
    2     1     3    2
    3     1     4    1
    4     4     5    1
    5     4     6    1
    6     4     7    1
    7     7     8    1
    8     7     9    2
    9     9    10    1
   10     9    11    1
   11    11    12    1
   12    11    13    1
   13    11    14    1
   14    14    15    1
   15    14    16    1
   16    14    17    1
@<TRIPOS>SUBSTRUCTURE
       1 MOL1            1 RESIDUE      1      MOL     
@<SCITEGIC>MOL_PROPERTY
VConf Rank
SciTegic.value.IntegerValue
551

@<SCITEGIC>MOL_PROPERTY
Conf_Id
SciTegic.value.IntegerValue
38

@<SCITEGIC>MOL_PROPERTY
Delta U+W
SciTegic.value.DoubleValue
0.000

@<SCITEGIC>MOL_PROPERTY
U+W
SciTegic.value.DoubleValue
-49.427

@<SCITEGIC>MOL_PROPERTY
Grad RMS
SciTegic.value.DoubleValue
0.000000

@<SCITEGIC>MOL_PROPERTY
U
SciTegic.value.DoubleValue
13.666

@<SCITEGIC>MOL_PROPERTY
W
SciTegic.value.DoubleValue
-63.093

@<SCITEGIC>MOL_PROPERTY
W(PB)
SciTegic.value.DoubleValue
-65.225

@<SCITEGIC>MOL_PROPERTY
W(SA)
SciTegic.value.DoubleValue
2.132

@<SCITEGIC>MOL_PROPERTY
Valence
SciTegic.value.DoubleValue
15.226

@<SCITEGIC>MOL_PROPERTY
Coulomb
SciTegic.value.DoubleValue
-1.822

@<SCITEGIC>MOL_PROPERTY
VdW
SciTegic.value.DoubleValue
0.261

@<SCITEGIC>MOL_PROPERTY
VdW6
SciTegic.value.DoubleValue
-4.165

@<SCITEGIC>MOL_PROPERTY
VdW12
SciTegic.value.DoubleValue
4.426

@<SCITEGIC>MOL_PROPERTY
Bond
SciTegic.value.DoubleValue
0.044

@<SCITEGIC>MOL_PROPERTY
Angle
SciTegic.value.DoubleValue
2.229

@<SCITEGIC>MOL_PROPERTY
Pdih
SciTegic.value.DoubleValue
12.953

@<SCITEGIC>MOL_PROPERTY
Idih
SciTegic.value.DoubleValue
0.000

@<SCITEGIC>MOL_PROPERTY
Tether
SciTegic.value.DoubleValue
0.000

@<TRIPOS>MOLECULE
guest-s20_confgen4.mol2 : confsearch ligand conformer 552
          17          16           1
SMALL
USER_CHARGES
 
@<TRIPOS>ATOM
       1    C1      19.229227   17.898817   19.383140 C.2        1 MOL1         0.6132
       2    O1      19.255291   18.728400   18.495484 O.co2      1 MOL1        -0.6749
       3    O2      18.393109   17.019968   19.457227 O.co2      1 MOL1        -0.6749
       4    C2      20.305219   17.958630   20.459368 C.3        1 MOL1        -0.1955
       5    H1      21.175424   18.482402   20.045791 H          1 MOL1         0.0733
       6    H2      20.621586   16.931360   20.674159 H          1 MOL1         0.0733
       7    C3      19.819514   18.630347   21.729656 C.2        1 MOL1        -0.1395
       8    H3      19.060828   18.080410   22.285683 H          1 MOL1         0.0816
       9    C4      20.261209   19.812228   22.170442 C.2        1 MOL1        -0.1394
      10    H4      21.017560   20.363086   21.612276 H          1 MOL1         0.0816
      11    C5      19.772861   20.482353   23.435262 C.3        1 MOL1        -0.1826
      12    H5      19.523809   21.531590   23.226438 H          1 MOL1         0.0736
      13    H6      18.850137   20.004253   23.791941 H          1 MOL1         0.0736
      14    C6      20.841584   20.418838   24.543801 C.3        1 MOL1        -0.2882
      15    H7      21.763887   20.923956   24.228140 H          1 MOL1         0.0749
      16    H8      20.481810   20.907242   25.458738 H          1 MOL1         0.0749
      17    H9      21.088470   19.377224   24.788112 H          1 MOL1         0.0749
@<TRIPOS>BOND
    1     1     2    1
    2     1     3    2
    3     1     4    1
    4     4     5    1
    5     4     6    1
    6     4     7    1
    7     7     8    1
    8     7     9    2
    9     9    10    1
   10     9    11    1
   11    11    12    1
   12    11    13    1
   13    11    14    1
   14    14    15    1
   15    14    16    1
   16    14    17    1
@<TRIPOS>SUBSTRUCTURE
       1 MOL1            1 RESIDUE      1      MOL     
@<SCITEGIC>MOL_PROPERTY
VConf Rank
SciTegic.value.IntegerValue
552

@<SCITEGIC>MOL_PROPERTY
Conf_Id
SciTegic.value.IntegerValue
35

@<SCITEGIC>MOL_PROPERTY
Delta U+W
SciTegic.value.DoubleValue
-0.102

@<SCITEGIC>MOL_PROPERTY
U+W
SciTegic.value.DoubleValue
-49.529

@<SCITEGIC>MOL_PROPERTY
Grad RMS
SciTegic.value.DoubleValue
0.000000

@<SCITEGIC>MOL_PROPERTY
U
SciTegic.value.DoubleValue
13.666

@<SCITEGIC>MOL_PROPERTY
W
SciTegic.value.DoubleValue
-63.195

@<SCITEGIC>MOL_PROPERTY
W(PB)
SciTegic.value.DoubleValue
-65.299

@<SCITEGIC>MOL_PROPERTY
W(SA)
SciTegic.value.DoubleValue
2.103

@<SCITEGIC>MOL_PROPERTY
Valence
SciTegic.value.DoubleValue
15.226

@<SCITEGIC>MOL_PROPERTY
Coulomb
SciTegic.value.DoubleValue
-1.822

@<SCITEGIC>MOL_PROPERTY
VdW
SciTegic.value.DoubleValue
0.261

@<SCITEGIC>MOL_PROPERTY
VdW6
SciTegic.value.DoubleValue
-4.165

@<SCITEGIC>MOL_PROPERTY
VdW12
SciTegic.value.DoubleValue
4.426

@<SCITEGIC>MOL_PROPERTY
Bond
SciTegic.value.DoubleValue
0.044

@<SCITEGIC>MOL_PROPERTY
Angle
SciTegic.value.DoubleValue
2.229

@<SCITEGIC>MOL_PROPERTY
Pdih
SciTegic.value.DoubleValue
12.953

@<SCITEGIC>MOL_PROPERTY
Idih
SciTegic.value.DoubleValue
0.000

@<SCITEGIC>MOL_PROPERTY
Tether
SciTegic.value.DoubleValue
0.000

@<TRIPOS>MOLECULE
guest-s20_confgen4.mol2 : confsearch ligand conformer 553
          17          16           1
SMALL
USER_CHARGES
 
@<TRIPOS>ATOM
       1    C1      20.315722   21.790204   20.997248 C.2        1 MOL1         0.6132
       2    O1      21.469727   22.157306   20.894871 O.co2      1 MOL1        -0.6749
       3    O2      19.492084   21.907687   20.111434 O.co2      1 MOL1        -0.6749
       4    C2      19.877533   21.157322   22.311457 C.3        1 MOL1        -0.1955
       5    H1      18.792356   21.282834   22.407491 H          1 MOL1         0.0733
       6    H2      20.339197   21.725794   23.127065 H          1 MOL1         0.0733
       7    C3      20.268251   19.694787   22.410141 C.2        1 MOL1        -0.1395
       8    H3      21.339564   19.514479   22.479902 H          1 MOL1         0.0816
       9    C4      19.389158   18.684885   22.408218 C.2        1 MOL1        -0.1394
      10    H4      18.324580   18.904017   22.332458 H          1 MOL1         0.0816
      11    C5      19.709645   17.202498   22.499908 C.3        1 MOL1        -0.1826
      12    H5      19.188158   16.777823   23.368360 H          1 MOL1         0.0736
      13    H6      19.287719   16.691873   21.623688 H          1 MOL1         0.0736
      14    C6      21.213675   16.865606   22.602015 C.3        1 MOL1        -0.2882
      15    H7      21.658405   17.316290   23.498955 H          1 MOL1         0.0749
      16    H8      21.361522   15.779587   22.663114 H          1 MOL1         0.0749
      17    H9      21.759567   17.230129   21.721893 H          1 MOL1         0.0749
@<TRIPOS>BOND
    1     1     2    1
    2     1     3    2
    3     1     4    1
    4     4     5    1
    5     4     6    1
    6     4     7    1
    7     7     8    1
    8     7     9    2
    9     9    10    1
   10     9    11    1
   11    11    12    1
   12    11    13    1
   13    11    14    1
   14    14    15    1
   15    14    16    1
   16    14    17    1
@<TRIPOS>SUBSTRUCTURE
       1 MOL1            1 RESIDUE      1      MOL     
@<SCITEGIC>MOL_PROPERTY
VConf Rank
SciTegic.value.IntegerValue
553

@<SCITEGIC>MOL_PROPERTY
Conf_Id
SciTegic.value.IntegerValue
19

@<SCITEGIC>MOL_PROPERTY
Delta U+W
SciTegic.value.DoubleValue
-0.496

@<SCITEGIC>MOL_PROPERTY
U+W
SciTegic.value.DoubleValue
-49.923

@<SCITEGIC>MOL_PROPERTY
Grad RMS
SciTegic.value.DoubleValue
0.000000

@<SCITEGIC>MOL_PROPERTY
U
SciTegic.value.DoubleValue
13.863

@<SCITEGIC>MOL_PROPERTY
W
SciTegic.value.DoubleValue
-63.786

@<SCITEGIC>MOL_PROPERTY
W(PB)
SciTegic.value.DoubleValue
-65.856

@<SCITEGIC>MOL_PROPERTY
W(SA)
SciTegic.value.DoubleValue
2.070

@<SCITEGIC>MOL_PROPERTY
Valence
SciTegic.value.DoubleValue
14.117

@<SCITEGIC>MOL_PROPERTY
Coulomb
SciTegic.value.DoubleValue
-1.228

@<SCITEGIC>MOL_PROPERTY
VdW
SciTegic.value.DoubleValue
0.974

@<SCITEGIC>MOL_PROPERTY
VdW6
SciTegic.value.DoubleValue
-4.885

@<SCITEGIC>MOL_PROPERTY
VdW12
SciTegic.value.DoubleValue
5.859

@<SCITEGIC>MOL_PROPERTY
Bond
SciTegic.value.DoubleValue
0.094

@<SCITEGIC>MOL_PROPERTY
Angle
SciTegic.value.DoubleValue
2.818

@<SCITEGIC>MOL_PROPERTY
Pdih
SciTegic.value.DoubleValue
11.205

@<SCITEGIC>MOL_PROPERTY
Idih
SciTegic.value.DoubleValue
0.000

@<SCITEGIC>MOL_PROPERTY
Tether
SciTegic.value.DoubleValue
0.000

@<TRIPOS>MOLECULE
guest-s20_confgen4.mol2 : confsearch ligand conformer 554
          17          16           1
SMALL
USER_CHARGES
 
@<TRIPOS>ATOM
       1    C1      18.721752   20.331730   24.437055 C.2        1 MOL1         0.6132
       2    O1      17.677984   20.667502   23.913014 O.co2      1 MOL1        -0.6749
       3    O2      18.783144   19.768462   25.512212 O.co2      1 MOL1        -0.6749
       4    C2      20.025788   20.642256   23.713943 C.3        1 MOL1        -0.1955
       5    H1      20.745639   20.998002   24.460097 H          1 MOL1         0.0733
       6    H2      19.844688   21.472874   23.021172 H          1 MOL1         0.0733
       7    C3      20.585894   19.436946   22.983002 C.2        1 MOL1        -0.1395
       8    H3      20.934920   18.626388   23.622057 H          1 MOL1         0.0816
       9    C4      20.657462   19.331664   21.652585 C.2        1 MOL1        -0.1394
      10    H4      20.303556   20.140353   21.013968 H          1 MOL1         0.0816
      11    C5      21.213643   18.127676   20.925666 C.3        1 MOL1        -0.1826
      12    H5      21.925601   18.455214   20.156020 H          1 MOL1         0.0736
      13    H6      21.772612   17.484349   21.619130 H          1 MOL1         0.0736
      14    C6      20.085962   17.309024   20.267537 C.3        1 MOL1        -0.2882
      15    H7      19.533894   17.917606   19.539337 H          1 MOL1         0.0749
      16    H8      20.495031   16.436427   19.741890 H          1 MOL1         0.0749
      17    H9      19.374007   16.949537   21.022235 H          1 MOL1         0.0749
@<TRIPOS>BOND
    1     1     2    1
    2     1     3    2
    3     1     4    1
    4     4     5    1
    5     4     6    1
    6     4     7    1
    7     7     8    1
    8     7     9    2
    9     9    10    1
   10     9    11    1
   11    11    12    1
   12    11    13    1
   13    11    14    1
   14    14    15    1
   15    14    16    1
   16    14    17    1
@<TRIPOS>SUBSTRUCTURE
       1 MOL1            1 RESIDUE      1      MOL     
@<SCITEGIC>MOL_PROPERTY
VConf Rank
SciTegic.value.IntegerValue
554

@<SCITEGIC>MOL_PROPERTY
Conf_Id
SciTegic.value.IntegerValue
7

@<SCITEGIC>MOL_PROPERTY
Delta U+W
SciTegic.value.DoubleValue
-0.041

@<SCITEGIC>MOL_PROPERTY
U+W
SciTegic.value.DoubleValue
-49.468

@<SCITEGIC>MOL_PROPERTY
Grad RMS
SciTegic.value.DoubleValue
0.000000

@<SCITEGIC>MOL_PROPERTY
U
SciTegic.value.DoubleValue
14.121

@<SCITEGIC>MOL_PROPERTY
W
SciTegic.value.DoubleValue
-63.589

@<SCITEGIC>MOL_PROPERTY
W(PB)
SciTegic.value.DoubleValue
-65.660

@<SCITEGIC>MOL_PROPERTY
W(SA)
SciTegic.value.DoubleValue
2.071

@<SCITEGIC>MOL_PROPERTY
Valence
SciTegic.value.DoubleValue
15.230

@<SCITEGIC>MOL_PROPERTY
Coulomb
SciTegic.value.DoubleValue
-1.333

@<SCITEGIC>MOL_PROPERTY
VdW
SciTegic.value.DoubleValue
0.224

@<SCITEGIC>MOL_PROPERTY
VdW6
SciTegic.value.DoubleValue
-4.212

@<SCITEGIC>MOL_PROPERTY
VdW12
SciTegic.value.DoubleValue
4.436

@<SCITEGIC>MOL_PROPERTY
Bond
SciTegic.value.DoubleValue
0.044

@<SCITEGIC>MOL_PROPERTY
Angle
SciTegic.value.DoubleValue
2.230

@<SCITEGIC>MOL_PROPERTY
Pdih
SciTegic.value.DoubleValue
12.956

@<SCITEGIC>MOL_PROPERTY
Idih
SciTegic.value.DoubleValue
0.000

@<SCITEGIC>MOL_PROPERTY
Tether
SciTegic.value.DoubleValue
0.000

@<TRIPOS>MOLECULE
guest-s20_confgen4.mol2 : confsearch ligand conformer 555
          17          16           1
SMALL
USER_CHARGES
 
@<TRIPOS>ATOM
       1    C1      21.563807   18.902087   19.935276 C.2        1 MOL1         0.6132
       2    O1      20.861683   18.094803   19.358815 O.co2      1 MOL1        -0.6749
       3    O2      22.748101   18.730815   20.147871 O.co2      1 MOL1        -0.6749
       4    C2      20.931020   20.213018   20.392022 C.3        1 MOL1        -0.1955
       5    H1      20.140300   20.471477   19.678069 H          1 MOL1         0.0733
       6    H2      21.688069   21.000673   20.301487 H          1 MOL1         0.0733
       7    C3      20.362692   20.211392   21.804069 C.2        1 MOL1        -0.1395
       8    H3      19.916041   21.156666   22.109859 H          1 MOL1         0.0816
       9    C4      20.371378   19.177994   22.654368 C.2        1 MOL1        -0.1394
      10    H4      20.810762   18.221604   22.373311 H          1 MOL1         0.0816
      11    C5      19.792969   19.229107   24.051068 C.3        1 MOL1        -0.1826
      12    H5      20.515260   18.813330   24.766571 H          1 MOL1         0.0736
      13    H6      19.611495   20.269223   24.355009 H          1 MOL1         0.0736
      14    C6      18.473966   18.436330   24.133373 C.3        1 MOL1        -0.2882
      15    H7      18.059556   18.475659   25.149138 H          1 MOL1         0.0749
      16    H8      17.726557   18.850648   23.443943 H          1 MOL1         0.0749
      17    H9      18.633748   17.382247   23.871006 H          1 MOL1         0.0749
@<TRIPOS>BOND
    1     1     2    1
    2     1     3    2
    3     1     4    1
    4     4     5    1
    5     4     6    1
    6     4     7    1
    7     7     8    1
    8     7     9    2
    9     9    10    1
   10     9    11    1
   11    11    12    1
   12    11    13    1
   13    11    14    1
   14    14    15    1
   15    14    16    1
   16    14    17    1
@<TRIPOS>SUBSTRUCTURE
       1 MOL1            1 RESIDUE      1      MOL     
@<SCITEGIC>MOL_PROPERTY
VConf Rank
SciTegic.value.IntegerValue
555

@<SCITEGIC>MOL_PROPERTY
Conf_Id
SciTegic.value.IntegerValue
39

@<SCITEGIC>MOL_PROPERTY
Delta U+W
SciTegic.value.DoubleValue
-0.422

@<SCITEGIC>MOL_PROPERTY
U+W
SciTegic.value.DoubleValue
-49.849

@<SCITEGIC>MOL_PROPERTY
Grad RMS
SciTegic.value.DoubleValue
0.000000

@<SCITEGIC>MOL_PROPERTY
U
SciTegic.value.DoubleValue
14.465

@<SCITEGIC>MOL_PROPERTY
W
SciTegic.value.DoubleValue
-64.314

@<SCITEGIC>MOL_PROPERTY
W(PB)
SciTegic.value.DoubleValue
-66.406

@<SCITEGIC>MOL_PROPERTY
W(SA)
SciTegic.value.DoubleValue
2.093

@<SCITEGIC>MOL_PROPERTY
Valence
SciTegic.value.DoubleValue
14.072

@<SCITEGIC>MOL_PROPERTY
Coulomb
SciTegic.value.DoubleValue
-0.199

@<SCITEGIC>MOL_PROPERTY
VdW
SciTegic.value.DoubleValue
0.592

@<SCITEGIC>MOL_PROPERTY
VdW6
SciTegic.value.DoubleValue
-5.019

@<SCITEGIC>MOL_PROPERTY
VdW12
SciTegic.value.DoubleValue
5.611

@<SCITEGIC>MOL_PROPERTY
Bond
SciTegic.value.DoubleValue
0.085

@<SCITEGIC>MOL_PROPERTY
Angle
SciTegic.value.DoubleValue
2.748

@<SCITEGIC>MOL_PROPERTY
Pdih
SciTegic.value.DoubleValue
11.238

@<SCITEGIC>MOL_PROPERTY
Idih
SciTegic.value.DoubleValue
0.001

@<SCITEGIC>MOL_PROPERTY
Tether
SciTegic.value.DoubleValue
0.000

@<TRIPOS>MOLECULE
guest-s20_confgen4.mol2 : confsearch ligand conformer 556
          17          16           1
SMALL
USER_CHARGES
 
@<TRIPOS>ATOM
       1    C1      17.848262   21.402292   21.493659 C.2        1 MOL1         0.6132
       2    O1      18.209684   22.450117   20.995263 O.co2      1 MOL1        -0.6749
       3    O2      16.988899   21.326452   22.349556 O.co2      1 MOL1        -0.6749
       4    C2      18.505611   20.114823   21.014160 C.3        1 MOL1        -0.1955
       5    H1      18.620272   20.182356   19.926133 H          1 MOL1         0.0733
       6    H2      17.818258   19.283839   21.213290 H          1 MOL1         0.0733
       7    C3      19.853807   19.873316   21.665917 C.2        1 MOL1        -0.1395
       8    H3      20.638923   20.574216   21.383902 H          1 MOL1         0.0816
       9    C4      20.103693   18.885771   22.531098 C.2        1 MOL1        -0.1394
      10    H4      19.317375   18.187060   22.814942 H          1 MOL1         0.0816
      11    C5      21.447686   18.648768   23.182892 C.3        1 MOL1        -0.1826
      12    H5      22.097811   19.524921   23.052841 H          1 MOL1         0.0736
      13    H6      21.315994   18.511811   24.264759 H          1 MOL1         0.0736
      14    C6      22.140276   17.407018   22.588387 C.3        1 MOL1        -0.2882
      15    H7      22.305986   17.531798   21.510161 H          1 MOL1         0.0749
      16    H8      23.114610   17.239795   23.065666 H          1 MOL1         0.0749
      17    H9      21.528568   16.507755   22.738614 H          1 MOL1         0.0749
@<TRIPOS>BOND
    1     1     2    1
    2     1     3    2
    3     1     4    1
    4     4     5    1
    5     4     6    1
    6     4     7    1
    7     7     8    1
    8     7     9    2
    9     9    10    1
   10     9    11    1
   11    11    12    1
   12    11    13    1
   13    11    14    1
   14    14    15    1
   15    14    16    1
   16    14    17    1
@<TRIPOS>SUBSTRUCTURE
       1 MOL1            1 RESIDUE      1      MOL     
@<SCITEGIC>MOL_PROPERTY
VConf Rank
SciTegic.value.IntegerValue
556

@<SCITEGIC>MOL_PROPERTY
Conf_Id
SciTegic.value.IntegerValue
38

@<SCITEGIC>MOL_PROPERTY
Delta U+W
SciTegic.value.DoubleValue
0.000

@<SCITEGIC>MOL_PROPERTY
U+W
SciTegic.value.DoubleValue
-49.427

@<SCITEGIC>MOL_PROPERTY
Grad RMS
SciTegic.value.DoubleValue
0.000000

@<SCITEGIC>MOL_PROPERTY
U
SciTegic.value.DoubleValue
13.666

@<SCITEGIC>MOL_PROPERTY
W
SciTegic.value.DoubleValue
-63.093

@<SCITEGIC>MOL_PROPERTY
W(PB)
SciTegic.value.DoubleValue
-65.225

@<SCITEGIC>MOL_PROPERTY
W(SA)
SciTegic.value.DoubleValue
2.132

@<SCITEGIC>MOL_PROPERTY
Valence
SciTegic.value.DoubleValue
15.226

@<SCITEGIC>MOL_PROPERTY
Coulomb
SciTegic.value.DoubleValue
-1.822

@<SCITEGIC>MOL_PROPERTY
VdW
SciTegic.value.DoubleValue
0.261

@<SCITEGIC>MOL_PROPERTY
VdW6
SciTegic.value.DoubleValue
-4.165

@<SCITEGIC>MOL_PROPERTY
VdW12
SciTegic.value.DoubleValue
4.426

@<SCITEGIC>MOL_PROPERTY
Bond
SciTegic.value.DoubleValue
0.044

@<SCITEGIC>MOL_PROPERTY
Angle
SciTegic.value.DoubleValue
2.229

@<SCITEGIC>MOL_PROPERTY
Pdih
SciTegic.value.DoubleValue
12.953

@<SCITEGIC>MOL_PROPERTY
Idih
SciTegic.value.DoubleValue
0.000

@<SCITEGIC>MOL_PROPERTY
Tether
SciTegic.value.DoubleValue
0.000

@<TRIPOS>MOLECULE
guest-s20_confgen4.mol2 : confsearch ligand conformer 557
          17          16           1
SMALL
USER_CHARGES
 
@<TRIPOS>ATOM
       1    C1      17.754937   17.134932   22.289811 C.2        1 MOL1         0.6132
       2    O1      17.982743   16.375842   23.211064 O.co2      1 MOL1        -0.6749
       3    O2      17.254727   16.785196   21.238890 O.co2      1 MOL1        -0.6749
       4    C2      18.109839   18.606040   22.461530 C.3        1 MOL1        -0.1955
       5    H1      18.134458   18.830037   23.534778 H          1 MOL1         0.0733
       6    H2      17.296281   19.199595   22.028722 H          1 MOL1         0.0733
       7    C3      19.426477   18.966936   21.800497 C.2        1 MOL1        -0.1395
       8    H3      19.427618   18.923245   20.711787 H          1 MOL1         0.0816
       9    C4      20.530807   19.316265   22.467321 C.2        1 MOL1        -0.1394
      10    H4      20.529866   19.356666   23.556094 H          1 MOL1         0.0816
      11    C5      21.843931   19.671970   21.806638 C.3        1 MOL1        -0.1826
      12    H5      22.663426   19.125280   22.292529 H          1 MOL1         0.0736
      13    H6      21.840027   19.362578   20.752371 H          1 MOL1         0.0736
      14    C6      22.114795   21.186663   21.892657 C.3        1 MOL1        -0.2882
      15    H7      22.162156   21.517350   22.938521 H          1 MOL1         0.0749
      16    H8      23.069185   21.438553   21.412265 H          1 MOL1         0.0749
      17    H9      21.320252   21.753956   21.390183 H          1 MOL1         0.0749
@<TRIPOS>BOND
    1     1     2    1
    2     1     3    2
    3     1     4    1
    4     4     5    1
    5     4     6    1
    6     4     7    1
    7     7     8    1
    8     7     9    2
    9     9    10    1
   10     9    11    1
   11    11    12    1
   12    11    13    1
   13    11    14    1
   14    14    15    1
   15    14    16    1
   16    14    17    1
@<TRIPOS>SUBSTRUCTURE
       1 MOL1            1 RESIDUE      1      MOL     
@<SCITEGIC>MOL_PROPERTY
VConf Rank
SciTegic.value.IntegerValue
557

@<SCITEGIC>MOL_PROPERTY
Conf_Id
SciTegic.value.IntegerValue
35

@<SCITEGIC>MOL_PROPERTY
Delta U+W
SciTegic.value.DoubleValue
-0.102

@<SCITEGIC>MOL_PROPERTY
U+W
SciTegic.value.DoubleValue
-49.529

@<SCITEGIC>MOL_PROPERTY
Grad RMS
SciTegic.value.DoubleValue
0.000000

@<SCITEGIC>MOL_PROPERTY
U
SciTegic.value.DoubleValue
13.666

@<SCITEGIC>MOL_PROPERTY
W
SciTegic.value.DoubleValue
-63.195

@<SCITEGIC>MOL_PROPERTY
W(PB)
SciTegic.value.DoubleValue
-65.299

@<SCITEGIC>MOL_PROPERTY
W(SA)
SciTegic.value.DoubleValue
2.103

@<SCITEGIC>MOL_PROPERTY
Valence
SciTegic.value.DoubleValue
15.226

@<SCITEGIC>MOL_PROPERTY
Coulomb
SciTegic.value.DoubleValue
-1.822

@<SCITEGIC>MOL_PROPERTY
VdW
SciTegic.value.DoubleValue
0.261

@<SCITEGIC>MOL_PROPERTY
VdW6
SciTegic.value.DoubleValue
-4.165

@<SCITEGIC>MOL_PROPERTY
VdW12
SciTegic.value.DoubleValue
4.426

@<SCITEGIC>MOL_PROPERTY
Bond
SciTegic.value.DoubleValue
0.044

@<SCITEGIC>MOL_PROPERTY
Angle
SciTegic.value.DoubleValue
2.229

@<SCITEGIC>MOL_PROPERTY
Pdih
SciTegic.value.DoubleValue
12.953

@<SCITEGIC>MOL_PROPERTY
Idih
SciTegic.value.DoubleValue
0.000

@<SCITEGIC>MOL_PROPERTY
Tether
SciTegic.value.DoubleValue
0.000

@<TRIPOS>MOLECULE
guest-s20_confgen4.mol2 : confsearch ligand conformer 558
          17          16           1
SMALL
USER_CHARGES
 
@<TRIPOS>ATOM
       1    C1      17.675441   20.582465   22.074662 C.2        1 MOL1         0.6132
       2    O1      17.777580   21.512013   21.298467 O.co2      1 MOL1        -0.6749
       3    O2      16.722061   19.829268   22.099342 O.co2      1 MOL1        -0.6749
       4    C2      18.800237   20.356700   23.076439 C.3        1 MOL1        -0.1955
       5    H1      18.390822   19.809735   23.934224 H          1 MOL1         0.0733
       6    H2      19.121524   21.337504   23.445639 H          1 MOL1         0.0733
       7    C3      19.978008   19.617473   22.469970 C.2        1 MOL1        -0.1395
       8    H3      20.527495   20.178923   21.716361 H          1 MOL1         0.0816
       9    C4      20.333771   18.372247   22.809907 C.2        1 MOL1        -0.1394
      10    H4      19.756934   17.839731   23.565400 H          1 MOL1         0.0816
      11    C5      21.495009   17.573304   22.242628 C.3        1 MOL1        -0.1826
      12    H5      22.159496   17.276514   23.065355 H          1 MOL1         0.0736
      13    H6      21.109773   16.634885   21.821340 H          1 MOL1         0.0736
      14    C6      22.324901   18.304844   21.164595 C.3        1 MOL1        -0.2882
      15    H7      22.771761   19.223305   21.567271 H          1 MOL1         0.0749
      16    H8      23.140512   17.663634   20.805907 H          1 MOL1         0.0749
      17    H9      21.701540   18.570574   20.300710 H          1 MOL1         0.0749
@<TRIPOS>BOND
    1     1     2    1
    2     1     3    2
    3     1     4    1
    4     4     5    1
    5     4     6    1
    6     4     7    1
    7     7     8    1
    8     7     9    2
    9     9    10    1
   10     9    11    1
   11    11    12    1
   12    11    13    1
   13    11    14    1
   14    14    15    1
   15    14    16    1
   16    14    17    1
@<TRIPOS>SUBSTRUCTURE
       1 MOL1            1 RESIDUE      1      MOL     
@<SCITEGIC>MOL_PROPERTY
VConf Rank
SciTegic.value.IntegerValue
558

@<SCITEGIC>MOL_PROPERTY
Conf_Id
SciTegic.value.IntegerValue
19

@<SCITEGIC>MOL_PROPERTY
Delta U+W
SciTegic.value.DoubleValue
-0.496

@<SCITEGIC>MOL_PROPERTY
U+W
SciTegic.value.DoubleValue
-49.923

@<SCITEGIC>MOL_PROPERTY
Grad RMS
SciTegic.value.DoubleValue
0.000000

@<SCITEGIC>MOL_PROPERTY
U
SciTegic.value.DoubleValue
13.863

@<SCITEGIC>MOL_PROPERTY
W
SciTegic.value.DoubleValue
-63.786

@<SCITEGIC>MOL_PROPERTY
W(PB)
SciTegic.value.DoubleValue
-65.856

@<SCITEGIC>MOL_PROPERTY
W(SA)
SciTegic.value.DoubleValue
2.070

@<SCITEGIC>MOL_PROPERTY
Valence
SciTegic.value.DoubleValue
14.117

@<SCITEGIC>MOL_PROPERTY
Coulomb
SciTegic.value.DoubleValue
-1.228

@<SCITEGIC>MOL_PROPERTY
VdW
SciTegic.value.DoubleValue
0.974

@<SCITEGIC>MOL_PROPERTY
VdW6
SciTegic.value.DoubleValue
-4.885

@<SCITEGIC>MOL_PROPERTY
VdW12
SciTegic.value.DoubleValue
5.859

@<SCITEGIC>MOL_PROPERTY
Bond
SciTegic.value.DoubleValue
0.094

@<SCITEGIC>MOL_PROPERTY
Angle
SciTegic.value.DoubleValue
2.818

@<SCITEGIC>MOL_PROPERTY
Pdih
SciTegic.value.DoubleValue
11.205

@<SCITEGIC>MOL_PROPERTY
Idih
SciTegic.value.DoubleValue
0.000

@<SCITEGIC>MOL_PROPERTY
Tether
SciTegic.value.DoubleValue
0.000

@<TRIPOS>MOLECULE
guest-s20_confgen4.mol2 : confsearch ligand conformer 559
          17          16           1
SMALL
USER_CHARGES
 
@<TRIPOS>ATOM
       1    C1      22.917953   19.751104   21.484193 C.2        1 MOL1         0.6132
       2    O1      22.785509   20.845242   20.972204 O.co2      1 MOL1        -0.6749
       3    O2      23.775059   19.493175   22.306291 O.co2      1 MOL1        -0.6749
       4    C2      21.965916   18.638019   21.066468 C.3        1 MOL1        -0.1955
       5    H1      22.554157   17.720331   20.951108 H          1 MOL1         0.0733
       6    H2      21.560749   18.885906   20.078011 H          1 MOL1         0.0733
       7    C3      20.851262   18.419357   22.071702 C.2        1 MOL1        -0.1395
       8    H3      21.166010   18.020762   23.035689 H          1 MOL1         0.0816
       9    C4      19.563783   18.690059   21.836470 C.2        1 MOL1        -0.1394
      10    H4      19.250310   19.093459   20.874148 H          1 MOL1         0.0816
      11    C5      18.454245   18.474030   22.841255 C.3        1 MOL1        -0.1826
      12    H5      17.620948   17.940128   22.364720 H          1 MOL1         0.0736
      13    H6      18.802810   17.840546   23.668545 H          1 MOL1         0.0736
      14    C6      17.949159   19.816441   23.405004 C.3        1 MOL1        -0.2882
      15    H7      17.558158   20.455878   22.602718 H          1 MOL1         0.0749
      16    H8      17.144533   19.653831   24.133841 H          1 MOL1         0.0749
      17    H9      18.761016   20.357740   23.908555 H          1 MOL1         0.0749
@<TRIPOS>BOND
    1     1     2    1
    2     1     3    2
    3     1     4    1
    4     4     5    1
    5     4     6    1
    6     4     7    1
    7     7     8    1
    8     7     9    2
    9     9    10    1
   10     9    11    1
   11    11    12    1
   12    11    13    1
   13    11    14    1
   14    14    15    1
   15    14    16    1
   16    14    17    1
@<TRIPOS>SUBSTRUCTURE
       1 MOL1            1 RESIDUE      1      MOL     
@<SCITEGIC>MOL_PROPERTY
VConf Rank
SciTegic.value.IntegerValue
559

@<SCITEGIC>MOL_PROPERTY
Conf_Id
SciTegic.value.IntegerValue
7

@<SCITEGIC>MOL_PROPERTY
Delta U+W
SciTegic.value.DoubleValue
-0.041

@<SCITEGIC>MOL_PROPERTY
U+W
SciTegic.value.DoubleValue
-49.468

@<SCITEGIC>MOL_PROPERTY
Grad RMS
SciTegic.value.DoubleValue
0.000000

@<SCITEGIC>MOL_PROPERTY
U
SciTegic.value.DoubleValue
14.121

@<SCITEGIC>MOL_PROPERTY
W
SciTegic.value.DoubleValue
-63.589

@<SCITEGIC>MOL_PROPERTY
W(PB)
SciTegic.value.DoubleValue
-65.660

@<SCITEGIC>MOL_PROPERTY
W(SA)
SciTegic.value.DoubleValue
2.071

@<SCITEGIC>MOL_PROPERTY
Valence
SciTegic.value.DoubleValue
15.230

@<SCITEGIC>MOL_PROPERTY
Coulomb
SciTegic.value.DoubleValue
-1.333

@<SCITEGIC>MOL_PROPERTY
VdW
SciTegic.value.DoubleValue
0.224

@<SCITEGIC>MOL_PROPERTY
VdW6
SciTegic.value.DoubleValue
-4.212

@<SCITEGIC>MOL_PROPERTY
VdW12
SciTegic.value.DoubleValue
4.436

@<SCITEGIC>MOL_PROPERTY
Bond
SciTegic.value.DoubleValue
0.044

@<SCITEGIC>MOL_PROPERTY
Angle
SciTegic.value.DoubleValue
2.230

@<SCITEGIC>MOL_PROPERTY
Pdih
SciTegic.value.DoubleValue
12.956

@<SCITEGIC>MOL_PROPERTY
Idih
SciTegic.value.DoubleValue
0.000

@<SCITEGIC>MOL_PROPERTY
Tether
SciTegic.value.DoubleValue
0.000

@<TRIPOS>MOLECULE
guest-s20_confgen4.mol2 : confsearch ligand conformer 560
          17          16           1
SMALL
USER_CHARGES
 
@<TRIPOS>ATOM
       1    C1      21.769219   21.480586   22.011589 C.2        1 MOL1         0.6132
       2    O1      21.542686   22.057465   23.057000 O.co2      1 MOL1        -0.6749
       3    O2      21.666387   22.004535   20.919808 O.co2      1 MOL1        -0.6749
       4    C2      22.234543   20.028992   22.074255 C.3        1 MOL1        -0.1955
       5    H1      22.814678   19.901274   22.995612 H          1 MOL1         0.0733
       6    H2      22.938510   19.866240   21.249838 H          1 MOL1         0.0733
       7    C3      21.130999   18.982187   22.017101 C.2        1 MOL1        -0.1395
       8    H3      21.484943   17.953036   22.063113 H          1 MOL1         0.0816
       9    C4      19.818794   19.226896   21.921022 C.2        1 MOL1        -0.1394
      10    H4      19.438412   20.246632   21.874304 H          1 MOL1         0.0816
      11    C5      18.760551   18.147519   21.866168 C.3        1 MOL1        -0.1826
      12    H5      18.063439   18.353723   21.042740 H          1 MOL1         0.0736
      13    H6      19.217208   17.170728   21.655224 H          1 MOL1         0.0736
      14    C6      17.979963   18.069630   23.192687 C.3        1 MOL1        -0.2882
      15    H7      17.212680   17.285904   23.146744 H          1 MOL1         0.0749
      16    H8      18.653675   17.838618   24.028354 H          1 MOL1         0.0749
      17    H9      17.480719   19.023107   23.409697 H          1 MOL1         0.0749
@<TRIPOS>BOND
    1     1     2    1
    2     1     3    2
    3     1     4    1
    4     4     5    1
    5     4     6    1
    6     4     7    1
    7     7     8    1
    8     7     9    2
    9     9    10    1
   10     9    11    1
   11    11    12    1
   12    11    13    1
   13    11    14    1
   14    14    15    1
   15    14    16    1
   16    14    17    1
@<TRIPOS>SUBSTRUCTURE
       1 MOL1            1 RESIDUE      1      MOL     
@<SCITEGIC>MOL_PROPERTY
VConf Rank
SciTegic.value.IntegerValue
560

@<SCITEGIC>MOL_PROPERTY
Conf_Id
SciTegic.value.IntegerValue
39

@<SCITEGIC>MOL_PROPERTY
Delta U+W
SciTegic.value.DoubleValue
-0.422

@<SCITEGIC>MOL_PROPERTY
U+W
SciTegic.value.DoubleValue
-49.849

@<SCITEGIC>MOL_PROPERTY
Grad RMS
SciTegic.value.DoubleValue
0.000000

@<SCITEGIC>MOL_PROPERTY
U
SciTegic.value.DoubleValue
14.465

@<SCITEGIC>MOL_PROPERTY
W
SciTegic.value.DoubleValue
-64.314

@<SCITEGIC>MOL_PROPERTY
W(PB)
SciTegic.value.DoubleValue
-66.406

@<SCITEGIC>MOL_PROPERTY
W(SA)
SciTegic.value.DoubleValue
2.093

@<SCITEGIC>MOL_PROPERTY
Valence
SciTegic.value.DoubleValue
14.072

@<SCITEGIC>MOL_PROPERTY
Coulomb
SciTegic.value.DoubleValue
-0.199

@<SCITEGIC>MOL_PROPERTY
VdW
SciTegic.value.DoubleValue
0.592

@<SCITEGIC>MOL_PROPERTY
VdW6
SciTegic.value.DoubleValue
-5.019

@<SCITEGIC>MOL_PROPERTY
VdW12
SciTegic.value.DoubleValue
5.611

@<SCITEGIC>MOL_PROPERTY
Bond
SciTegic.value.DoubleValue
0.085

@<SCITEGIC>MOL_PROPERTY
Angle
SciTegic.value.DoubleValue
2.748

@<SCITEGIC>MOL_PROPERTY
Pdih
SciTegic.value.DoubleValue
11.238

@<SCITEGIC>MOL_PROPERTY
Idih
SciTegic.value.DoubleValue
0.001

@<SCITEGIC>MOL_PROPERTY
Tether
SciTegic.value.DoubleValue
0.000

@<TRIPOS>MOLECULE
guest-s20_confgen4.mol2 : confsearch ligand conformer 561
          17          16           1
SMALL
USER_CHARGES
 
@<TRIPOS>ATOM
       1    C1      20.926946   16.261503   22.629889 C.2        1 MOL1         0.6132
       2    O1      21.796543   15.802782   21.915510 O.co2      1 MOL1        -0.6749
       3    O2      19.943664   15.637350   22.976888 O.co2      1 MOL1        -0.6749
       4    C2      21.082626   17.695011   23.120217 C.3        1 MOL1        -0.1955
       5    H1      22.134774   17.844792   23.388655 H          1 MOL1         0.0733
       6    H2      20.497481   17.808210   24.040778 H          1 MOL1         0.0733
       7    C3      20.660638   18.714106   22.079008 C.2        1 MOL1        -0.1395
       8    H3      21.299467   18.770876   21.198170 H          1 MOL1         0.0816
       9    C4      19.588442   19.503898   22.192379 C.2        1 MOL1        -0.1394
      10    H4      18.948393   19.444520   23.072079 H          1 MOL1         0.0816
      11    C5      19.167063   20.516866   21.151390 C.3        1 MOL1        -0.1826
      12    H5      19.695590   20.337943   20.204887 H          1 MOL1         0.0736
      13    H6      18.094941   20.406528   20.939458 H          1 MOL1         0.0736
      14    C6      19.450862   21.953948   21.630254 C.3        1 MOL1        -0.2882
      15    H7      20.522240   22.095832   21.824213 H          1 MOL1         0.0749
      16    H8      19.142454   22.684446   20.871082 H          1 MOL1         0.0749
      17    H9      18.903588   22.173498   22.556385 H          1 MOL1         0.0749
@<TRIPOS>BOND
    1     1     2    1
    2     1     3    2
    3     1     4    1
    4     4     5    1
    5     4     6    1
    6     4     7    1
    7     7     8    1
    8     7     9    2
    9     9    10    1
   10     9    11    1
   11    11    12    1
   12    11    13    1
   13    11    14    1
   14    14    15    1
   15    14    16    1
   16    14    17    1
@<TRIPOS>SUBSTRUCTURE
       1 MOL1            1 RESIDUE      1      MOL     
@<SCITEGIC>MOL_PROPERTY
VConf Rank
SciTegic.value.IntegerValue
561

@<SCITEGIC>MOL_PROPERTY
Conf_Id
SciTegic.value.IntegerValue
38

@<SCITEGIC>MOL_PROPERTY
Delta U+W
SciTegic.value.DoubleValue
0.000

@<SCITEGIC>MOL_PROPERTY
U+W
SciTegic.value.DoubleValue
-49.427

@<SCITEGIC>MOL_PROPERTY
Grad RMS
SciTegic.value.DoubleValue
0.000000

@<SCITEGIC>MOL_PROPERTY
U
SciTegic.value.DoubleValue
13.666

@<SCITEGIC>MOL_PROPERTY
W
SciTegic.value.DoubleValue
-63.093

@<SCITEGIC>MOL_PROPERTY
W(PB)
SciTegic.value.DoubleValue
-65.225

@<SCITEGIC>MOL_PROPERTY
W(SA)
SciTegic.value.DoubleValue
2.132

@<SCITEGIC>MOL_PROPERTY
Valence
SciTegic.value.DoubleValue
15.226

@<SCITEGIC>MOL_PROPERTY
Coulomb
SciTegic.value.DoubleValue
-1.822

@<SCITEGIC>MOL_PROPERTY
VdW
SciTegic.value.DoubleValue
0.261

@<SCITEGIC>MOL_PROPERTY
VdW6
SciTegic.value.DoubleValue
-4.165

@<SCITEGIC>MOL_PROPERTY
VdW12
SciTegic.value.DoubleValue
4.426

@<SCITEGIC>MOL_PROPERTY
Bond
SciTegic.value.DoubleValue
0.044

@<SCITEGIC>MOL_PROPERTY
Angle
SciTegic.value.DoubleValue
2.229

@<SCITEGIC>MOL_PROPERTY
Pdih
SciTegic.value.DoubleValue
12.953

@<SCITEGIC>MOL_PROPERTY
Idih
SciTegic.value.DoubleValue
0.000

@<SCITEGIC>MOL_PROPERTY
Tether
SciTegic.value.DoubleValue
0.000

@<TRIPOS>MOLECULE
guest-s20_confgen4.mol2 : confsearch ligand conformer 562
          17          16           1
SMALL
USER_CHARGES
 
@<TRIPOS>ATOM
       1    C1      16.960658   19.759970   22.186946 C.2        1 MOL1         0.6132
       2    O1      16.694851   20.470297   23.136473 O.co2      1 MOL1        -0.6749
       3    O2      16.256595   18.840926   21.817334 O.co2      1 MOL1        -0.6749
       4    C2      18.242692   20.038307   21.413304 C.3        1 MOL1        -0.1955
       5    H1      18.519868   21.087038   21.574480 H          1 MOL1         0.0733
       6    H2      18.020832   19.925761   20.345775 H          1 MOL1         0.0733
       7    C3      19.374227   19.109663   21.810786 C.2        1 MOL1        -0.1395
       8    H3      19.237798   18.064938   21.533048 H          1 MOL1         0.0816
       9    C4      20.475630   19.502007   22.458247 C.2        1 MOL1        -0.1394
      10    H4      20.609952   20.546272   22.738479 H          1 MOL1         0.0816
      11    C5      21.601106   18.573893   22.857282 C.3        1 MOL1        -0.1826
      12    H5      21.864628   18.742135   23.910270 H          1 MOL1         0.0736
      13    H6      21.282144   17.525643   22.775703 H          1 MOL1         0.0736
      14    C6      22.844020   18.798997   21.974359 C.3        1 MOL1        -0.2882
      15    H7      23.208089   19.830719   22.066179 H          1 MOL1         0.0749
      16    H8      23.657451   18.123299   22.269062 H          1 MOL1         0.0749
      17    H9      22.610986   18.611240   20.917930 H          1 MOL1         0.0749
@<TRIPOS>BOND
    1     1     2    1
    2     1     3    2
    3     1     4    1
    4     4     5    1
    5     4     6    1
    6     4     7    1
    7     7     8    1
    8     7     9    2
    9     9    10    1
   10     9    11    1
   11    11    12    1
   12    11    13    1
   13    11    14    1
   14    14    15    1
   15    14    16    1
   16    14    17    1
@<TRIPOS>SUBSTRUCTURE
       1 MOL1            1 RESIDUE      1      MOL     
@<SCITEGIC>MOL_PROPERTY
VConf Rank
SciTegic.value.IntegerValue
562

@<SCITEGIC>MOL_PROPERTY
Conf_Id
SciTegic.value.IntegerValue
35

@<SCITEGIC>MOL_PROPERTY
Delta U+W
SciTegic.value.DoubleValue
-0.102

@<SCITEGIC>MOL_PROPERTY
U+W
SciTegic.value.DoubleValue
-49.529

@<SCITEGIC>MOL_PROPERTY
Grad RMS
SciTegic.value.DoubleValue
0.000000

@<SCITEGIC>MOL_PROPERTY
U
SciTegic.value.DoubleValue
13.666

@<SCITEGIC>MOL_PROPERTY
W
SciTegic.value.DoubleValue
-63.195

@<SCITEGIC>MOL_PROPERTY
W(PB)
SciTegic.value.DoubleValue
-65.299

@<SCITEGIC>MOL_PROPERTY
W(SA)
SciTegic.value.DoubleValue
2.103

@<SCITEGIC>MOL_PROPERTY
Valence
SciTegic.value.DoubleValue
15.226

@<SCITEGIC>MOL_PROPERTY
Coulomb
SciTegic.value.DoubleValue
-1.822

@<SCITEGIC>MOL_PROPERTY
VdW
SciTegic.value.DoubleValue
0.261

@<SCITEGIC>MOL_PROPERTY
VdW6
SciTegic.value.DoubleValue
-4.165

@<SCITEGIC>MOL_PROPERTY
VdW12
SciTegic.value.DoubleValue
4.426

@<SCITEGIC>MOL_PROPERTY
Bond
SciTegic.value.DoubleValue
0.044

@<SCITEGIC>MOL_PROPERTY
Angle
SciTegic.value.DoubleValue
2.229

@<SCITEGIC>MOL_PROPERTY
Pdih
SciTegic.value.DoubleValue
12.953

@<SCITEGIC>MOL_PROPERTY
Idih
SciTegic.value.DoubleValue
0.000

@<SCITEGIC>MOL_PROPERTY
Tether
SciTegic.value.DoubleValue
0.000

@<TRIPOS>MOLECULE
guest-s20_confgen4.mol2 : confsearch ligand conformer 563
          17          16           1
SMALL
USER_CHARGES
 
@<TRIPOS>ATOM
       1    C1      20.815376   18.883964   19.320960 C.2        1 MOL1         0.6132
       2    O1      20.567715   19.937794   18.768621 O.co2      1 MOL1        -0.6749
       3    O2      21.829226   18.243717   19.123372 O.co2      1 MOL1        -0.6749
       4    C2      19.793843   18.332732   20.307016 C.3        1 MOL1        -0.1955
       5    H1      19.933741   17.247179   20.374766 H          1 MOL1         0.0733
       6    H2      18.796374   18.501472   19.885007 H          1 MOL1         0.0733
       7    C3      19.897374   18.982340   21.674019 C.2        1 MOL1        -0.1395
       8    H3      19.613870   20.033065   21.700327 H          1 MOL1         0.0816
       9    C4      20.306675   18.342033   22.776376 C.2        1 MOL1        -0.1394
      10    H4      20.586609   17.291146   22.710370 H          1 MOL1         0.0816
      11    C5      20.437367   18.929603   24.171464 C.3        1 MOL1        -0.1826
      12    H5      19.818335   18.344052   24.864599 H          1 MOL1         0.0736
      13    H6      21.471666   18.799267   24.517526 H          1 MOL1         0.0736
      14    C6      20.051971   20.420747   24.289739 C.3        1 MOL1        -0.2882
      15    H7      19.004448   20.580951   24.002628 H          1 MOL1         0.0749
      16    H8      20.174018   20.768957   25.323608 H          1 MOL1         0.0749
      17    H9      20.688257   21.044102   23.647821 H          1 MOL1         0.0749
@<TRIPOS>BOND
    1     1     2    1
    2     1     3    2
    3     1     4    1
    4     4     5    1
    5     4     6    1
    6     4     7    1
    7     7     8    1
    8     7     9    2
    9     9    10    1
   10     9    11    1
   11    11    12    1
   12    11    13    1
   13    11    14    1
   14    14    15    1
   15    14    16    1
   16    14    17    1
@<TRIPOS>SUBSTRUCTURE
       1 MOL1            1 RESIDUE      1      MOL     
@<SCITEGIC>MOL_PROPERTY
VConf Rank
SciTegic.value.IntegerValue
563

@<SCITEGIC>MOL_PROPERTY
Conf_Id
SciTegic.value.IntegerValue
19

@<SCITEGIC>MOL_PROPERTY
Delta U+W
SciTegic.value.DoubleValue
-0.496

@<SCITEGIC>MOL_PROPERTY
U+W
SciTegic.value.DoubleValue
-49.923

@<SCITEGIC>MOL_PROPERTY
Grad RMS
SciTegic.value.DoubleValue
0.000000

@<SCITEGIC>MOL_PROPERTY
U
SciTegic.value.DoubleValue
13.863

@<SCITEGIC>MOL_PROPERTY
W
SciTegic.value.DoubleValue
-63.786

@<SCITEGIC>MOL_PROPERTY
W(PB)
SciTegic.value.DoubleValue
-65.856

@<SCITEGIC>MOL_PROPERTY
W(SA)
SciTegic.value.DoubleValue
2.070

@<SCITEGIC>MOL_PROPERTY
Valence
SciTegic.value.DoubleValue
14.117

@<SCITEGIC>MOL_PROPERTY
Coulomb
SciTegic.value.DoubleValue
-1.228

@<SCITEGIC>MOL_PROPERTY
VdW
SciTegic.value.DoubleValue
0.974

@<SCITEGIC>MOL_PROPERTY
VdW6
SciTegic.value.DoubleValue
-4.885

@<SCITEGIC>MOL_PROPERTY
VdW12
SciTegic.value.DoubleValue
5.859

@<SCITEGIC>MOL_PROPERTY
Bond
SciTegic.value.DoubleValue
0.094

@<SCITEGIC>MOL_PROPERTY
Angle
SciTegic.value.DoubleValue
2.818

@<SCITEGIC>MOL_PROPERTY
Pdih
SciTegic.value.DoubleValue
11.205

@<SCITEGIC>MOL_PROPERTY
Idih
SciTegic.value.DoubleValue
0.000

@<SCITEGIC>MOL_PROPERTY
Tether
SciTegic.value.DoubleValue
0.000

@<TRIPOS>MOLECULE
guest-s20_confgen4.mol2 : confsearch ligand conformer 564
          17          16           1
SMALL
USER_CHARGES
 
@<TRIPOS>ATOM
       1    C1      21.042317   16.272868   22.001678 C.2        1 MOL1         0.6132
       2    O1      21.725510   16.293378   20.996870 O.co2      1 MOL1        -0.6749
       3    O2      21.384087   15.733574   23.035775 O.co2      1 MOL1        -0.6749
       4    C2      19.678572   16.949959   21.961959 C.3        1 MOL1        -0.1955
       5    H1      18.966608   16.299188   22.482622 H          1 MOL1         0.0733
       6    H2      19.354581   17.008042   20.915867 H          1 MOL1         0.0733
       7    C3      19.693541   18.324320   22.603576 C.2        1 MOL1        -0.1395
       8    H3      19.856048   18.332805   23.680950 H          1 MOL1         0.0816
       9    C4      19.531291   19.468547   21.932281 C.2        1 MOL1        -0.1394
      10    H4      19.373972   19.459748   20.854212 H          1 MOL1         0.0816
      11    C5      19.549481   20.838129   22.573569 C.3        1 MOL1        -0.1826
      12    H5      18.685792   21.421584   22.226951 H          1 MOL1         0.0736
      13    H6      19.455050   20.752855   23.664908 H          1 MOL1         0.0736
      14    C6      20.849450   21.591944   22.231760 C.3        1 MOL1        -0.2882
      15    H7      20.950778   21.725937   21.146769 H          1 MOL1         0.0749
      16    H8      20.857586   22.584824   22.699938 H          1 MOL1         0.0749
      17    H9      21.726914   21.038307   22.591237 H          1 MOL1         0.0749
@<TRIPOS>BOND
    1     1     2    1
    2     1     3    2
    3     1     4    1
    4     4     5    1
    5     4     6    1
    6     4     7    1
    7     7     8    1
    8     7     9    2
    9     9    10    1
   10     9    11    1
   11    11    12    1
   12    11    13    1
   13    11    14    1
   14    14    15    1
   15    14    16    1
   16    14    17    1
@<TRIPOS>SUBSTRUCTURE
       1 MOL1            1 RESIDUE      1      MOL     
@<SCITEGIC>MOL_PROPERTY
VConf Rank
SciTegic.value.IntegerValue
564

@<SCITEGIC>MOL_PROPERTY
Conf_Id
SciTegic.value.IntegerValue
7

@<SCITEGIC>MOL_PROPERTY
Delta U+W
SciTegic.value.DoubleValue
-0.041

@<SCITEGIC>MOL_PROPERTY
U+W
SciTegic.value.DoubleValue
-49.468

@<SCITEGIC>MOL_PROPERTY
Grad RMS
SciTegic.value.DoubleValue
0.000000

@<SCITEGIC>MOL_PROPERTY
U
SciTegic.value.DoubleValue
14.121

@<SCITEGIC>MOL_PROPERTY
W
SciTegic.value.DoubleValue
-63.589

@<SCITEGIC>MOL_PROPERTY
W(PB)
SciTegic.value.DoubleValue
-65.660

@<SCITEGIC>MOL_PROPERTY
W(SA)
SciTegic.value.DoubleValue
2.071

@<SCITEGIC>MOL_PROPERTY
Valence
SciTegic.value.DoubleValue
15.230

@<SCITEGIC>MOL_PROPERTY
Coulomb
SciTegic.value.DoubleValue
-1.333

@<SCITEGIC>MOL_PROPERTY
VdW
SciTegic.value.DoubleValue
0.224

@<SCITEGIC>MOL_PROPERTY
VdW6
SciTegic.value.DoubleValue
-4.212

@<SCITEGIC>MOL_PROPERTY
VdW12
SciTegic.value.DoubleValue
4.436

@<SCITEGIC>MOL_PROPERTY
Bond
SciTegic.value.DoubleValue
0.044

@<SCITEGIC>MOL_PROPERTY
Angle
SciTegic.value.DoubleValue
2.230

@<SCITEGIC>MOL_PROPERTY
Pdih
SciTegic.value.DoubleValue
12.956

@<SCITEGIC>MOL_PROPERTY
Idih
SciTegic.value.DoubleValue
0.000

@<SCITEGIC>MOL_PROPERTY
Tether
SciTegic.value.DoubleValue
0.000

@<TRIPOS>MOLECULE
guest-s20_confgen4.mol2 : confsearch ligand conformer 565
          17          16           1
SMALL
USER_CHARGES
 
@<TRIPOS>ATOM
       1    C1      17.890262   20.887897   22.315538 C.2        1 MOL1         0.6132
       2    O1      17.194697   20.292824   23.114956 O.co2      1 MOL1        -0.6749
       3    O2      17.519525   21.191890   21.198746 O.co2      1 MOL1        -0.6749
       4    C2      19.294483   21.300018   22.746697 C.3        1 MOL1        -0.1955
       5    H1      19.269849   21.501966   23.823905 H          1 MOL1         0.0733
       6    H2      19.525857   22.257558   22.265756 H          1 MOL1         0.0733
       7    C3      20.396892   20.295949   22.441053 C.2        1 MOL1        -0.1395
       8    H3      21.390974   20.609917   22.756919 H          1 MOL1         0.0816
       9    C4      20.236836   19.110071   21.841829 C.2        1 MOL1        -0.1394
      10    H4      19.253572   18.771781   21.517046 H          1 MOL1         0.0816
      11    C5      21.368787   18.147353   21.559336 C.3        1 MOL1        -0.1826
      12    H5      21.309145   17.800541   20.518815 H          1 MOL1         0.0736
      13    H6      22.339122   18.651044   21.668419 H          1 MOL1         0.0736
      14    C6      21.314176   16.934732   22.508865 C.3        1 MOL1        -0.2882
      15    H7      22.136815   16.238975   22.298516 H          1 MOL1         0.0749
      16    H8      21.398023   17.255324   23.555662 H          1 MOL1         0.0749
      17    H9      20.368391   16.389232   22.393198 H          1 MOL1         0.0749
@<TRIPOS>BOND
    1     1     2    1
    2     1     3    2
    3     1     4    1
    4     4     5    1
    5     4     6    1
    6     4     7    1
    7     7     8    1
    8     7     9    2
    9     9    10    1
   10     9    11    1
   11    11    12    1
   12    11    13    1
   13    11    14    1
   14    14    15    1
   15    14    16    1
   16    14    17    1
@<TRIPOS>SUBSTRUCTURE
       1 MOL1            1 RESIDUE      1      MOL     
@<SCITEGIC>MOL_PROPERTY
VConf Rank
SciTegic.value.IntegerValue
565

@<SCITEGIC>MOL_PROPERTY
Conf_Id
SciTegic.value.IntegerValue
39

@<SCITEGIC>MOL_PROPERTY
Delta U+W
SciTegic.value.DoubleValue
-0.422

@<SCITEGIC>MOL_PROPERTY
U+W
SciTegic.value.DoubleValue
-49.849

@<SCITEGIC>MOL_PROPERTY
Grad RMS
SciTegic.value.DoubleValue
0.000000

@<SCITEGIC>MOL_PROPERTY
U
SciTegic.value.DoubleValue
14.465

@<SCITEGIC>MOL_PROPERTY
W
SciTegic.value.DoubleValue
-64.314

@<SCITEGIC>MOL_PROPERTY
W(PB)
SciTegic.value.DoubleValue
-66.406

@<SCITEGIC>MOL_PROPERTY
W(SA)
SciTegic.value.DoubleValue
2.093

@<SCITEGIC>MOL_PROPERTY
Valence
SciTegic.value.DoubleValue
14.072

@<SCITEGIC>MOL_PROPERTY
Coulomb
SciTegic.value.DoubleValue
-0.199

@<SCITEGIC>MOL_PROPERTY
VdW
SciTegic.value.DoubleValue
0.592

@<SCITEGIC>MOL_PROPERTY
VdW6
SciTegic.value.DoubleValue
-5.019

@<SCITEGIC>MOL_PROPERTY
VdW12
SciTegic.value.DoubleValue
5.611

@<SCITEGIC>MOL_PROPERTY
Bond
SciTegic.value.DoubleValue
0.085

@<SCITEGIC>MOL_PROPERTY
Angle
SciTegic.value.DoubleValue
2.748

@<SCITEGIC>MOL_PROPERTY
Pdih
SciTegic.value.DoubleValue
11.238

@<SCITEGIC>MOL_PROPERTY
Idih
SciTegic.value.DoubleValue
0.001

@<SCITEGIC>MOL_PROPERTY
Tether
SciTegic.value.DoubleValue
0.000

@<TRIPOS>MOLECULE
guest-s20_confgen4.mol2 : confsearch ligand conformer 566
          17          16           1
SMALL
USER_CHARGES
 
@<TRIPOS>ATOM
       1    C1      18.326215   21.612387   20.935590 C.2        1 MOL1         0.6132
       2    O1      18.912344   22.615469   20.578881 O.co2      1 MOL1        -0.6749
       3    O2      17.259748   21.628541   21.518003 O.co2      1 MOL1        -0.6749
       4    C2      18.962000   20.262509   20.630288 C.3        1 MOL1        -0.1955
       5    H1      19.380475   20.310575   19.618321 H          1 MOL1         0.0733
       6    H2      18.168706   19.505508   20.613718 H          1 MOL1         0.0733
       7    C3      20.045751   19.892624   21.624981 C.2        1 MOL1        -0.1395
       8    H3      20.942808   20.509872   21.586312 H          1 MOL1         0.0816
       9    C4      19.947794   18.891270   22.504710 C.2        1 MOL1        -0.1394
      10    H4      19.049293   18.276335   22.544847 H          1 MOL1         0.0816
      11    C5      21.027957   18.526287   23.498367 C.3        1 MOL1        -0.1826
      12    H5      21.770889   19.332428   23.571920 H          1 MOL1         0.0736
      13    H6      20.588143   18.410795   24.498248 H          1 MOL1         0.0736
      14    C6      21.733838   17.217576   23.093312 C.3        1 MOL1        -0.2882
      15    H7      22.203961   17.317591   22.106103 H          1 MOL1         0.0749
      16    H8      22.516034   16.957583   23.818335 H          1 MOL1         0.0749
      17    H9      21.019758   16.384760   23.049305 H          1 MOL1         0.0749
@<TRIPOS>BOND
    1     1     2    1
    2     1     3    2
    3     1     4    1
    4     4     5    1
    5     4     6    1
    6     4     7    1
    7     7     8    1
    8     7     9    2
    9     9    10    1
   10     9    11    1
   11    11    12    1
   12    11    13    1
   13    11    14    1
   14    14    15    1
   15    14    16    1
   16    14    17    1
@<TRIPOS>SUBSTRUCTURE
       1 MOL1            1 RESIDUE      1      MOL     
@<SCITEGIC>MOL_PROPERTY
VConf Rank
SciTegic.value.IntegerValue
566

@<SCITEGIC>MOL_PROPERTY
Conf_Id
SciTegic.value.IntegerValue
38

@<SCITEGIC>MOL_PROPERTY
Delta U+W
SciTegic.value.DoubleValue
0.000

@<SCITEGIC>MOL_PROPERTY
U+W
SciTegic.value.DoubleValue
-49.427

@<SCITEGIC>MOL_PROPERTY
Grad RMS
SciTegic.value.DoubleValue
0.000000

@<SCITEGIC>MOL_PROPERTY
U
SciTegic.value.DoubleValue
13.666

@<SCITEGIC>MOL_PROPERTY
W
SciTegic.value.DoubleValue
-63.093

@<SCITEGIC>MOL_PROPERTY
W(PB)
SciTegic.value.DoubleValue
-65.225

@<SCITEGIC>MOL_PROPERTY
W(SA)
SciTegic.value.DoubleValue
2.132

@<SCITEGIC>MOL_PROPERTY
Valence
SciTegic.value.DoubleValue
15.226

@<SCITEGIC>MOL_PROPERTY
Coulomb
SciTegic.value.DoubleValue
-1.822

@<SCITEGIC>MOL_PROPERTY
VdW
SciTegic.value.DoubleValue
0.261

@<SCITEGIC>MOL_PROPERTY
VdW6
SciTegic.value.DoubleValue
-4.165

@<SCITEGIC>MOL_PROPERTY
VdW12
SciTegic.value.DoubleValue
4.426

@<SCITEGIC>MOL_PROPERTY
Bond
SciTegic.value.DoubleValue
0.044

@<SCITEGIC>MOL_PROPERTY
Angle
SciTegic.value.DoubleValue
2.229

@<SCITEGIC>MOL_PROPERTY
Pdih
SciTegic.value.DoubleValue
12.953

@<SCITEGIC>MOL_PROPERTY
Idih
SciTegic.value.DoubleValue
0.000

@<SCITEGIC>MOL_PROPERTY
Tether
SciTegic.value.DoubleValue
0.000

@<TRIPOS>MOLECULE
guest-s20_confgen4.mol2 : confsearch ligand conformer 567
          17          16           1
SMALL
USER_CHARGES
 
@<TRIPOS>ATOM
       1    C1      18.606776   17.040119   20.411987 C.2        1 MOL1         0.6132
       2    O1      18.137657   16.212283   21.167919 O.co2      1 MOL1        -0.6749
       3    O2      19.094206   16.765264   19.333179 O.co2      1 MOL1        -0.6749
       4    C2      18.578433   18.502870   20.835260 C.3        1 MOL1        -0.1955
       5    H1      17.772552   18.632572   21.567635 H          1 MOL1         0.0733
       6    H2      18.311978   19.100854   19.956099 H          1 MOL1         0.0733
       7    C3      19.906500   18.970044   21.399823 C.2        1 MOL1        -0.1395
       8    H3      20.724498   19.022155   20.681935 H          1 MOL1         0.0816
       9    C4      20.103883   19.301108   22.679536 C.2        1 MOL1        -0.1394
      10    H4      19.286268   19.245723   23.397519 H          1 MOL1         0.0816
      11    C5      21.429846   19.762950   23.241537 C.3        1 MOL1        -0.1826
      12    H5      21.656295   19.207182   24.161524 H          1 MOL1         0.0736
      13    H6      22.242958   19.547363   22.534721 H          1 MOL1         0.0736
      14    C6      21.406213   21.273422   23.546458 C.3        1 MOL1        -0.2882
      15    H7      20.626061   21.512592   24.281026 H          1 MOL1         0.0749
      16    H8      22.370690   21.602503   23.954596 H          1 MOL1         0.0749
      17    H9      21.206711   21.852100   22.634904 H          1 MOL1         0.0749
@<TRIPOS>BOND
    1     1     2    1
    2     1     3    2
    3     1     4    1
    4     4     5    1
    5     4     6    1
    6     4     7    1
    7     7     8    1
    8     7     9    2
    9     9    10    1
   10     9    11    1
   11    11    12    1
   12    11    13    1
   13    11    14    1
   14    14    15    1
   15    14    16    1
   16    14    17    1
@<TRIPOS>SUBSTRUCTURE
       1 MOL1            1 RESIDUE      1      MOL     
@<SCITEGIC>MOL_PROPERTY
VConf Rank
SciTegic.value.IntegerValue
567

@<SCITEGIC>MOL_PROPERTY
Conf_Id
SciTegic.value.IntegerValue
35

@<SCITEGIC>MOL_PROPERTY
Delta U+W
SciTegic.value.DoubleValue
-0.102

@<SCITEGIC>MOL_PROPERTY
U+W
SciTegic.value.DoubleValue
-49.529

@<SCITEGIC>MOL_PROPERTY
Grad RMS
SciTegic.value.DoubleValue
0.000000

@<SCITEGIC>MOL_PROPERTY
U
SciTegic.value.DoubleValue
13.666

@<SCITEGIC>MOL_PROPERTY
W
SciTegic.value.DoubleValue
-63.195

@<SCITEGIC>MOL_PROPERTY
W(PB)
SciTegic.value.DoubleValue
-65.299

@<SCITEGIC>MOL_PROPERTY
W(SA)
SciTegic.value.DoubleValue
2.103

@<SCITEGIC>MOL_PROPERTY
Valence
SciTegic.value.DoubleValue
15.226

@<SCITEGIC>MOL_PROPERTY
Coulomb
SciTegic.value.DoubleValue
-1.822

@<SCITEGIC>MOL_PROPERTY
VdW
SciTegic.value.DoubleValue
0.261

@<SCITEGIC>MOL_PROPERTY
VdW6
SciTegic.value.DoubleValue
-4.165

@<SCITEGIC>MOL_PROPERTY
VdW12
SciTegic.value.DoubleValue
4.426

@<SCITEGIC>MOL_PROPERTY
Bond
SciTegic.value.DoubleValue
0.044

@<SCITEGIC>MOL_PROPERTY
Angle
SciTegic.value.DoubleValue
2.229

@<SCITEGIC>MOL_PROPERTY
Pdih
SciTegic.value.DoubleValue
12.953

@<SCITEGIC>MOL_PROPERTY
Idih
SciTegic.value.DoubleValue
0.000

@<SCITEGIC>MOL_PROPERTY
Tether
SciTegic.value.DoubleValue
0.000

@<TRIPOS>MOLECULE
guest-s20_confgen4.mol2 : confsearch ligand conformer 568
          17          16           1
SMALL
USER_CHARGES
 
@<TRIPOS>ATOM
       1    C1      20.720220   21.994998   22.471400 C.2        1 MOL1         0.6132
       2    O1      20.382366   22.371613   23.576383 O.co2      1 MOL1        -0.6749
       3    O2      21.766407   22.315872   21.942835 O.co2      1 MOL1        -0.6749
       4    C2      19.775296   21.078657   21.705155 C.3        1 MOL1        -0.1955
       5    H1      19.989701   21.182679   20.634737 H          1 MOL1         0.0733
       6    H2      18.753717   21.442823   21.864122 H          1 MOL1         0.0733
       7    C3      19.886314   19.631175   22.145468 C.2        1 MOL1        -0.1395
       8    H3      19.534561   19.435777   23.156991 H          1 MOL1         0.0816
       9    C4      20.378323   18.651934   21.376231 C.2        1 MOL1        -0.1394
      10    H4      20.725043   18.886472   20.370317 H          1 MOL1         0.0816
      11    C5      20.521609   17.186993   21.753067 C.3        1 MOL1        -0.1826
      12    H5      19.969346   16.576018   21.026279 H          1 MOL1         0.0736
      13    H6      21.574510   16.892910   21.646125 H          1 MOL1         0.0736
      14    C6      20.042335   16.830199   23.177505 C.3        1 MOL1        -0.2882
      15    H7      18.976462   17.061102   23.303996 H          1 MOL1         0.0749
      16    H8      20.179458   15.758673   23.372586 H          1 MOL1         0.0749
      17    H9      20.611196   17.385225   23.935023 H          1 MOL1         0.0749
@<TRIPOS>BOND
    1     1     2    1
    2     1     3    2
    3     1     4    1
    4     4     5    1
    5     4     6    1
    6     4     7    1
    7     7     8    1
    8     7     9    2
    9     9    10    1
   10     9    11    1
   11    11    12    1
   12    11    13    1
   13    11    14    1
   14    14    15    1
   15    14    16    1
   16    14    17    1
@<TRIPOS>SUBSTRUCTURE
       1 MOL1            1 RESIDUE      1      MOL     
@<SCITEGIC>MOL_PROPERTY
VConf Rank
SciTegic.value.IntegerValue
568

@<SCITEGIC>MOL_PROPERTY
Conf_Id
SciTegic.value.IntegerValue
19

@<SCITEGIC>MOL_PROPERTY
Delta U+W
SciTegic.value.DoubleValue
-0.496

@<SCITEGIC>MOL_PROPERTY
U+W
SciTegic.value.DoubleValue
-49.923

@<SCITEGIC>MOL_PROPERTY
Grad RMS
SciTegic.value.DoubleValue
0.000000

@<SCITEGIC>MOL_PROPERTY
U
SciTegic.value.DoubleValue
13.863

@<SCITEGIC>MOL_PROPERTY
W
SciTegic.value.DoubleValue
-63.786

@<SCITEGIC>MOL_PROPERTY
W(PB)
SciTegic.value.DoubleValue
-65.856

@<SCITEGIC>MOL_PROPERTY
W(SA)
SciTegic.value.DoubleValue
2.070

@<SCITEGIC>MOL_PROPERTY
Valence
SciTegic.value.DoubleValue
14.117

@<SCITEGIC>MOL_PROPERTY
Coulomb
SciTegic.value.DoubleValue
-1.228

@<SCITEGIC>MOL_PROPERTY
VdW
SciTegic.value.DoubleValue
0.974

@<SCITEGIC>MOL_PROPERTY
VdW6
SciTegic.value.DoubleValue
-4.885

@<SCITEGIC>MOL_PROPERTY
VdW12
SciTegic.value.DoubleValue
5.859

@<SCITEGIC>MOL_PROPERTY
Bond
SciTegic.value.DoubleValue
0.094

@<SCITEGIC>MOL_PROPERTY
Angle
SciTegic.value.DoubleValue
2.818

@<SCITEGIC>MOL_PROPERTY
Pdih
SciTegic.value.DoubleValue
11.205

@<SCITEGIC>MOL_PROPERTY
Idih
SciTegic.value.DoubleValue
0.000

@<SCITEGIC>MOL_PROPERTY
Tether
SciTegic.value.DoubleValue
0.000

@<TRIPOS>MOLECULE
guest-s20_confgen4.mol2 : confsearch ligand conformer 569
          17          16           1
SMALL
USER_CHARGES
 
@<TRIPOS>ATOM
       1    C1      19.989680   20.329526   19.567755 C.2        1 MOL1         0.6132
       2    O1      20.156535   19.386760   18.819314 O.co2      1 MOL1        -0.6749
       3    O2      19.114075   21.159054   19.418757 O.co2      1 MOL1        -0.6749
       4    C2      20.934802   20.488203   20.751560 C.3        1 MOL1        -0.1955
       5    H1      21.189391   21.550973   20.836347 H          1 MOL1         0.0733
       6    H2      21.864164   19.952802   20.522902 H          1 MOL1         0.0733
       7    C3      20.327410   19.992839   22.050196 C.2        1 MOL1        -0.1395
       8    H3      19.487594   20.577973   22.423750 H          1 MOL1         0.0816
       9    C4      20.755009   18.916380   22.716988 C.2        1 MOL1        -0.1394
      10    H4      21.591517   18.328666   22.340286 H          1 MOL1         0.0816
      11    C5      20.146056   18.422427   24.010248 C.3        1 MOL1        -0.1826
      12    H5      20.940396   18.225213   24.742814 H          1 MOL1         0.0736
      13    H6      19.497029   19.193074   24.448513 H          1 MOL1         0.0736
      14    C6      19.327694   17.136849   23.780983 C.3        1 MOL1        -0.2882
      15    H7      19.961464   16.335643   23.378701 H          1 MOL1         0.0749
      16    H8      18.887753   16.783069   24.722449 H          1 MOL1         0.0749
      17    H9      18.511009   17.316558   23.069357 H          1 MOL1         0.0749
@<TRIPOS>BOND
    1     1     2    1
    2     1     3    2
    3     1     4    1
    4     4     5    1
    5     4     6    1
    6     4     7    1
    7     7     8    1
    8     7     9    2
    9     9    10    1
   10     9    11    1
   11    11    12    1
   12    11    13    1
   13    11    14    1
   14    14    15    1
   15    14    16    1
   16    14    17    1
@<TRIPOS>SUBSTRUCTURE
       1 MOL1            1 RESIDUE      1      MOL     
@<SCITEGIC>MOL_PROPERTY
VConf Rank
SciTegic.value.IntegerValue
569

@<SCITEGIC>MOL_PROPERTY
Conf_Id
SciTegic.value.IntegerValue
7

@<SCITEGIC>MOL_PROPERTY
Delta U+W
SciTegic.value.DoubleValue
-0.041

@<SCITEGIC>MOL_PROPERTY
U+W
SciTegic.value.DoubleValue
-49.468

@<SCITEGIC>MOL_PROPERTY
Grad RMS
SciTegic.value.DoubleValue
0.000000

@<SCITEGIC>MOL_PROPERTY
U
SciTegic.value.DoubleValue
14.121

@<SCITEGIC>MOL_PROPERTY
W
SciTegic.value.DoubleValue
-63.589

@<SCITEGIC>MOL_PROPERTY
W(PB)
SciTegic.value.DoubleValue
-65.660

@<SCITEGIC>MOL_PROPERTY
W(SA)
SciTegic.value.DoubleValue
2.071

@<SCITEGIC>MOL_PROPERTY
Valence
SciTegic.value.DoubleValue
15.230

@<SCITEGIC>MOL_PROPERTY
Coulomb
SciTegic.value.DoubleValue
-1.333

@<SCITEGIC>MOL_PROPERTY
VdW
SciTegic.value.DoubleValue
0.224

@<SCITEGIC>MOL_PROPERTY
VdW6
SciTegic.value.DoubleValue
-4.212

@<SCITEGIC>MOL_PROPERTY
VdW12
SciTegic.value.DoubleValue
4.436

@<SCITEGIC>MOL_PROPERTY
Bond
SciTegic.value.DoubleValue
0.044

@<SCITEGIC>MOL_PROPERTY
Angle
SciTegic.value.DoubleValue
2.230

@<SCITEGIC>MOL_PROPERTY
Pdih
SciTegic.value.DoubleValue
12.956

@<SCITEGIC>MOL_PROPERTY
Idih
SciTegic.value.DoubleValue
0.000

@<SCITEGIC>MOL_PROPERTY
Tether
SciTegic.value.DoubleValue
0.000

@<TRIPOS>MOLECULE
guest-s20_confgen4.mol2 : confsearch ligand conformer 570
          17          16           1
SMALL
USER_CHARGES
 
@<TRIPOS>ATOM
       1    C1      17.458789   19.970195   22.189654 C.2        1 MOL1         0.6132
       2    O1      17.254141   19.967031   20.991696 O.co2      1 MOL1        -0.6749
       3    O2      17.211298   20.916930   22.910433 O.co2      1 MOL1        -0.6749
       4    C2      18.031176   18.708029   22.827531 C.3        1 MOL1        -0.1955
       5    H1      17.659807   17.846496   22.260420 H          1 MOL1         0.0733
       6    H2      17.602061   18.615295   23.832011 H          1 MOL1         0.0733
       7    C3      19.549599   18.645892   22.913590 C.2        1 MOL1        -0.1395
       8    H3      19.936942   17.736938   23.372188 H          1 MOL1         0.0816
       9    C4      20.400972   19.584622   22.483538 C.2        1 MOL1        -0.1394
      10    H4      20.039963   20.502264   22.020568 H          1 MOL1         0.0816
      11    C5      21.905470   19.474403   22.594348 C.3        1 MOL1        -0.1826
      12    H5      22.315514   20.405103   23.009295 H          1 MOL1         0.0736
      13    H6      22.182600   18.670349   23.289942 H          1 MOL1         0.0736
      14    C6      22.543325   19.200629   21.218403 C.3        1 MOL1        -0.2882
      15    H7      23.634937   19.123006   21.304533 H          1 MOL1         0.0749
      16    H8      22.167036   18.260228   20.794556 H          1 MOL1         0.0749
      17    H9      22.313775   20.009661   20.512548 H          1 MOL1         0.0749
@<TRIPOS>BOND
    1     1     2    1
    2     1     3    2
    3     1     4    1
    4     4     5    1
    5     4     6    1
    6     4     7    1
    7     7     8    1
    8     7     9    2
    9     9    10    1
   10     9    11    1
   11    11    12    1
   12    11    13    1
   13    11    14    1
   14    14    15    1
   15    14    16    1
   16    14    17    1
@<TRIPOS>SUBSTRUCTURE
       1 MOL1            1 RESIDUE      1      MOL     
@<SCITEGIC>MOL_PROPERTY
VConf Rank
SciTegic.value.IntegerValue
570

@<SCITEGIC>MOL_PROPERTY
Conf_Id
SciTegic.value.IntegerValue
39

@<SCITEGIC>MOL_PROPERTY
Delta U+W
SciTegic.value.DoubleValue
-0.422

@<SCITEGIC>MOL_PROPERTY
U+W
SciTegic.value.DoubleValue
-49.849

@<SCITEGIC>MOL_PROPERTY
Grad RMS
SciTegic.value.DoubleValue
0.000000

@<SCITEGIC>MOL_PROPERTY
U
SciTegic.value.DoubleValue
14.465

@<SCITEGIC>MOL_PROPERTY
W
SciTegic.value.DoubleValue
-64.314

@<SCITEGIC>MOL_PROPERTY
W(PB)
SciTegic.value.DoubleValue
-66.406

@<SCITEGIC>MOL_PROPERTY
W(SA)
SciTegic.value.DoubleValue
2.093

@<SCITEGIC>MOL_PROPERTY
Valence
SciTegic.value.DoubleValue
14.072

@<SCITEGIC>MOL_PROPERTY
Coulomb
SciTegic.value.DoubleValue
-0.199

@<SCITEGIC>MOL_PROPERTY
VdW
SciTegic.value.DoubleValue
0.592

@<SCITEGIC>MOL_PROPERTY
VdW6
SciTegic.value.DoubleValue
-5.019

@<SCITEGIC>MOL_PROPERTY
VdW12
SciTegic.value.DoubleValue
5.611

@<SCITEGIC>MOL_PROPERTY
Bond
SciTegic.value.DoubleValue
0.085

@<SCITEGIC>MOL_PROPERTY
Angle
SciTegic.value.DoubleValue
2.748

@<SCITEGIC>MOL_PROPERTY
Pdih
SciTegic.value.DoubleValue
11.238

@<SCITEGIC>MOL_PROPERTY
Idih
SciTegic.value.DoubleValue
0.001

@<SCITEGIC>MOL_PROPERTY
Tether
SciTegic.value.DoubleValue
0.000

@<TRIPOS>MOLECULE
guest-s20_confgen4.mol2 : confsearch ligand conformer 571
          17          16           1
SMALL
USER_CHARGES
 
@<TRIPOS>ATOM
       1    C1      18.361129   20.371069   24.504745 C.2        1 MOL1         0.6132
       2    O1      18.923234   20.490857   25.575562 O.co2      1 MOL1        -0.6749
       3    O2      17.222279   19.964117   24.385459 O.co2      1 MOL1        -0.6749
       4    C2      19.125535   20.757686   23.245454 C.3        1 MOL1        -0.1955
       5    H1      19.683435   21.676264   23.461026 H          1 MOL1         0.0733
       6    H2      18.396839   21.001151   22.462915 H          1 MOL1         0.0733
       7    C3      20.074635   19.667967   22.784515 C.2        1 MOL1        -0.1395
       8    H3      20.923373   19.481774   23.441918 H          1 MOL1         0.0816
       9    C4      19.917563   18.960746   21.661396 C.2        1 MOL1        -0.1394
      10    H4      19.067028   19.145406   21.005995 H          1 MOL1         0.0816
      11    C5      20.862940   17.871919   21.205284 C.3        1 MOL1        -0.1826
      12    H5      21.530232   17.573719   22.025662 H          1 MOL1         0.0736
      13    H6      20.290360   16.977775   20.923871 H          1 MOL1         0.0736
      14    C6      21.708316   18.339591   20.004583 C.3        1 MOL1        -0.2882
      15    H7      22.310009   19.218786   20.270258 H          1 MOL1         0.0749
      16    H8      22.391811   17.545175   19.677744 H          1 MOL1         0.0749
      17    H9      21.066993   18.608105   19.154856 H          1 MOL1         0.0749
@<TRIPOS>BOND
    1     1     2    1
    2     1     3    2
    3     1     4    1
    4     4     5    1
    5     4     6    1
    6     4     7    1
    7     7     8    1
    8     7     9    2
    9     9    10    1
   10     9    11    1
   11    11    12    1
   12    11    13    1
   13    11    14    1
   14    14    15    1
   15    14    16    1
   16    14    17    1
@<TRIPOS>SUBSTRUCTURE
       1 MOL1            1 RESIDUE      1      MOL     
@<SCITEGIC>MOL_PROPERTY
VConf Rank
SciTegic.value.IntegerValue
571

@<SCITEGIC>MOL_PROPERTY
Conf_Id
SciTegic.value.IntegerValue
38

@<SCITEGIC>MOL_PROPERTY
Delta U+W
SciTegic.value.DoubleValue
0.000

@<SCITEGIC>MOL_PROPERTY
U+W
SciTegic.value.DoubleValue
-49.427

@<SCITEGIC>MOL_PROPERTY
Grad RMS
SciTegic.value.DoubleValue
0.000000

@<SCITEGIC>MOL_PROPERTY
U
SciTegic.value.DoubleValue
13.666

@<SCITEGIC>MOL_PROPERTY
W
SciTegic.value.DoubleValue
-63.093

@<SCITEGIC>MOL_PROPERTY
W(PB)
SciTegic.value.DoubleValue
-65.225

@<SCITEGIC>MOL_PROPERTY
W(SA)
SciTegic.value.DoubleValue
2.132

@<SCITEGIC>MOL_PROPERTY
Valence
SciTegic.value.DoubleValue
15.226

@<SCITEGIC>MOL_PROPERTY
Coulomb
SciTegic.value.DoubleValue
-1.822

@<SCITEGIC>MOL_PROPERTY
VdW
SciTegic.value.DoubleValue
0.261

@<SCITEGIC>MOL_PROPERTY
VdW6
SciTegic.value.DoubleValue
-4.165

@<SCITEGIC>MOL_PROPERTY
VdW12
SciTegic.value.DoubleValue
4.426

@<SCITEGIC>MOL_PROPERTY
Bond
SciTegic.value.DoubleValue
0.044

@<SCITEGIC>MOL_PROPERTY
Angle
SciTegic.value.DoubleValue
2.229

@<SCITEGIC>MOL_PROPERTY
Pdih
SciTegic.value.DoubleValue
12.953

@<SCITEGIC>MOL_PROPERTY
Idih
SciTegic.value.DoubleValue
0.000

@<SCITEGIC>MOL_PROPERTY
Tether
SciTegic.value.DoubleValue
0.000

@<TRIPOS>MOLECULE
guest-s20_confgen4.mol2 : confsearch ligand conformer 572
          17          16           1
SMALL
USER_CHARGES
 
@<TRIPOS>ATOM
       1    C1      17.021592   19.466074   22.871095 C.2        1 MOL1         0.6132
       2    O1      16.371698   18.805616   22.084805 O.co2      1 MOL1        -0.6749
       3    O2      16.644621   20.525950   23.331003 O.co2      1 MOL1        -0.6749
       4    C2      18.380373   18.935905   23.309544 C.3        1 MOL1        -0.1955
       5    H1      18.385220   17.848060   23.170942 H          1 MOL1         0.0733
       6    H2      18.481626   19.122537   24.384915 H          1 MOL1         0.0733
       7    C3      19.527117   19.584808   22.558114 C.2        1 MOL1        -0.1395
       8    H3      19.685342   20.641197   22.773075 H          1 MOL1         0.0816
       9    C4      20.310249   18.944817   21.684417 C.2        1 MOL1        -0.1394
      10    H4      20.149462   17.889270   21.467557 H          1 MOL1         0.0816
      11    C5      21.450762   19.594481   20.933093 C.3        1 MOL1        -0.1826
      12    H5      21.381350   19.344823   19.865673 H          1 MOL1         0.0736
      13    H6      21.385055   20.688834   21.005850 H          1 MOL1         0.0736
      14    C6      22.812922   19.127687   21.482351 C.3        1 MOL1        -0.2882
      15    H7      22.921694   18.039359   21.386753 H          1 MOL1         0.0749
      16    H8      23.636520   19.601849   20.932859 H          1 MOL1         0.0749
      17    H9      22.915922   19.389835   22.543610 H          1 MOL1         0.0749
@<TRIPOS>BOND
    1     1     2    1
    2     1     3    2
    3     1     4    1
    4     4     5    1
    5     4     6    1
    6     4     7    1
    7     7     8    1
    8     7     9    2
    9     9    10    1
   10     9    11    1
   11    11    12    1
   12    11    13    1
   13    11    14    1
   14    14    15    1
   15    14    16    1
   16    14    17    1
@<TRIPOS>SUBSTRUCTURE
       1 MOL1            1 RESIDUE      1      MOL     
@<SCITEGIC>MOL_PROPERTY
VConf Rank
SciTegic.value.IntegerValue
572

@<SCITEGIC>MOL_PROPERTY
Conf_Id
SciTegic.value.IntegerValue
35

@<SCITEGIC>MOL_PROPERTY
Delta U+W
SciTegic.value.DoubleValue
-0.102

@<SCITEGIC>MOL_PROPERTY
U+W
SciTegic.value.DoubleValue
-49.529

@<SCITEGIC>MOL_PROPERTY
Grad RMS
SciTegic.value.DoubleValue
0.000000

@<SCITEGIC>MOL_PROPERTY
U
SciTegic.value.DoubleValue
13.666

@<SCITEGIC>MOL_PROPERTY
W
SciTegic.value.DoubleValue
-63.195

@<SCITEGIC>MOL_PROPERTY
W(PB)
SciTegic.value.DoubleValue
-65.299

@<SCITEGIC>MOL_PROPERTY
W(SA)
SciTegic.value.DoubleValue
2.103

@<SCITEGIC>MOL_PROPERTY
Valence
SciTegic.value.DoubleValue
15.226

@<SCITEGIC>MOL_PROPERTY
Coulomb
SciTegic.value.DoubleValue
-1.822

@<SCITEGIC>MOL_PROPERTY
VdW
SciTegic.value.DoubleValue
0.261

@<SCITEGIC>MOL_PROPERTY
VdW6
SciTegic.value.DoubleValue
-4.165

@<SCITEGIC>MOL_PROPERTY
VdW12
SciTegic.value.DoubleValue
4.426

@<SCITEGIC>MOL_PROPERTY
Bond
SciTegic.value.DoubleValue
0.044

@<SCITEGIC>MOL_PROPERTY
Angle
SciTegic.value.DoubleValue
2.229

@<SCITEGIC>MOL_PROPERTY
Pdih
SciTegic.value.DoubleValue
12.953

@<SCITEGIC>MOL_PROPERTY
Idih
SciTegic.value.DoubleValue
0.000

@<SCITEGIC>MOL_PROPERTY
Tether
SciTegic.value.DoubleValue
0.000

@<TRIPOS>MOLECULE
guest-s20_confgen4.mol2 : confsearch ligand conformer 573
          17          16           1
SMALL
USER_CHARGES
 
@<TRIPOS>ATOM
       1    C1      19.066323   21.359135   23.706930 C.2        1 MOL1         0.6132
       2    O1      19.429975   21.313603   24.865660 O.co2      1 MOL1        -0.6749
       3    O2      19.062333   22.377247   23.043393 O.co2      1 MOL1        -0.6749
       4    C2      18.580611   20.070841   23.055719 C.3        1 MOL1        -0.1955
       5    H1      17.914927   20.336027   22.225583 H          1 MOL1         0.0733
       6    H2      17.974514   19.531174   23.792549 H          1 MOL1         0.0733
       7    C3      19.723607   19.194317   22.579617 C.2        1 MOL1        -0.1395
       8    H3      20.330920   18.767484   23.375904 H          1 MOL1         0.0816
       9    C4      19.992048   18.951549   21.290542 C.2        1 MOL1        -0.1394
      10    H4      19.364531   19.399973   20.520982 H          1 MOL1         0.0816
      11    C5      21.118326   18.090095   20.744663 C.3        1 MOL1        -0.1826
      12    H5      20.689043   17.296999   20.117590 H          1 MOL1         0.0736
      13    H6      21.736602   18.697545   20.069933 H          1 MOL1         0.0736
      14    C6      22.026317   17.447821   21.816608 C.3        1 MOL1        -0.2882
      15    H7      21.449203   16.788628   22.478276 H          1 MOL1         0.0749
      16    H8      22.812447   16.844789   21.343976 H          1 MOL1         0.0749
      17    H9      22.515137   18.215894   22.430292 H          1 MOL1         0.0749
@<TRIPOS>BOND
    1     1     2    1
    2     1     3    2
    3     1     4    1
    4     4     5    1
    5     4     6    1
    6     4     7    1
    7     7     8    1
    8     7     9    2
    9     9    10    1
   10     9    11    1
   11    11    12    1
   12    11    13    1
   13    11    14    1
   14    14    15    1
   15    14    16    1
   16    14    17    1
@<TRIPOS>SUBSTRUCTURE
       1 MOL1            1 RESIDUE      1      MOL     
@<SCITEGIC>MOL_PROPERTY
VConf Rank
SciTegic.value.IntegerValue
573

@<SCITEGIC>MOL_PROPERTY
Conf_Id
SciTegic.value.IntegerValue
19

@<SCITEGIC>MOL_PROPERTY
Delta U+W
SciTegic.value.DoubleValue
-0.496

@<SCITEGIC>MOL_PROPERTY
U+W
SciTegic.value.DoubleValue
-49.923

@<SCITEGIC>MOL_PROPERTY
Grad RMS
SciTegic.value.DoubleValue
0.000000

@<SCITEGIC>MOL_PROPERTY
U
SciTegic.value.DoubleValue
13.863

@<SCITEGIC>MOL_PROPERTY
W
SciTegic.value.DoubleValue
-63.786

@<SCITEGIC>MOL_PROPERTY
W(PB)
SciTegic.value.DoubleValue
-65.856

@<SCITEGIC>MOL_PROPERTY
W(SA)
SciTegic.value.DoubleValue
2.070

@<SCITEGIC>MOL_PROPERTY
Valence
SciTegic.value.DoubleValue
14.117

@<SCITEGIC>MOL_PROPERTY
Coulomb
SciTegic.value.DoubleValue
-1.228

@<SCITEGIC>MOL_PROPERTY
VdW
SciTegic.value.DoubleValue
0.974

@<SCITEGIC>MOL_PROPERTY
VdW6
SciTegic.value.DoubleValue
-4.885

@<SCITEGIC>MOL_PROPERTY
VdW12
SciTegic.value.DoubleValue
5.859

@<SCITEGIC>MOL_PROPERTY
Bond
SciTegic.value.DoubleValue
0.094

@<SCITEGIC>MOL_PROPERTY
Angle
SciTegic.value.DoubleValue
2.818

@<SCITEGIC>MOL_PROPERTY
Pdih
SciTegic.value.DoubleValue
11.205

@<SCITEGIC>MOL_PROPERTY
Idih
SciTegic.value.DoubleValue
0.000

@<SCITEGIC>MOL_PROPERTY
Tether
SciTegic.value.DoubleValue
0.000

@<TRIPOS>MOLECULE
guest-s20_confgen4.mol2 : confsearch ligand conformer 574
          17          16           1
SMALL
USER_CHARGES
 
@<TRIPOS>ATOM
       1    C1      19.085984   19.852330   19.594511 C.2        1 MOL1         0.6132
       2    O1      20.073804   20.276820   19.028091 O.co2      1 MOL1        -0.6749
       3    O2      18.293609   19.087202   19.080971 O.co2      1 MOL1        -0.6749
       4    C2      18.818611   20.311191   21.022021 C.3        1 MOL1        -0.1955
       5    H1      17.745840   20.517576   21.111754 H          1 MOL1         0.0733
       6    H2      19.342627   21.261355   21.180922 H          1 MOL1         0.0733
       7    C3      19.238596   19.279849   22.051930 C.2        1 MOL1        -0.1395
       8    H3      18.652357   18.361415   22.056150 H          1 MOL1         0.0816
       9    C4      20.253435   19.441604   22.906419 C.2        1 MOL1        -0.1394
      10    H4      20.842560   20.358078   22.898284 H          1 MOL1         0.0816
      11    C5      20.672433   18.410725   23.930659 C.3        1 MOL1        -0.1826
      12    H5      20.795715   18.890572   24.911001 H          1 MOL1         0.0736
      13    H6      19.891370   17.647121   24.049221 H          1 MOL1         0.0736
      14    C6      21.993182   17.729792   23.522072 C.3        1 MOL1        -0.2882
      15    H7      22.802624   18.466304   23.433877 H          1 MOL1         0.0749
      16    H8      22.292319   16.982470   24.268460 H          1 MOL1         0.0749
      17    H9      21.886512   17.221604   22.554577 H          1 MOL1         0.0749
@<TRIPOS>BOND
    1     1     2    1
    2     1     3    2
    3     1     4    1
    4     4     5    1
    5     4     6    1
    6     4     7    1
    7     7     8    1
    8     7     9    2
    9     9    10    1
   10     9    11    1
   11    11    12    1
   12    11    13    1
   13    11    14    1
   14    14    15    1
   15    14    16    1
   16    14    17    1
@<TRIPOS>SUBSTRUCTURE
       1 MOL1            1 RESIDUE      1      MOL     
@<SCITEGIC>MOL_PROPERTY
VConf Rank
SciTegic.value.IntegerValue
574

@<SCITEGIC>MOL_PROPERTY
Conf_Id
SciTegic.value.IntegerValue
7

@<SCITEGIC>MOL_PROPERTY
Delta U+W
SciTegic.value.DoubleValue
-0.041

@<SCITEGIC>MOL_PROPERTY
U+W
SciTegic.value.DoubleValue
-49.468

@<SCITEGIC>MOL_PROPERTY
Grad RMS
SciTegic.value.DoubleValue
0.000000

@<SCITEGIC>MOL_PROPERTY
U
SciTegic.value.DoubleValue
14.121

@<SCITEGIC>MOL_PROPERTY
W
SciTegic.value.DoubleValue
-63.589

@<SCITEGIC>MOL_PROPERTY
W(PB)
SciTegic.value.DoubleValue
-65.660

@<SCITEGIC>MOL_PROPERTY
W(SA)
SciTegic.value.DoubleValue
2.071

@<SCITEGIC>MOL_PROPERTY
Valence
SciTegic.value.DoubleValue
15.230

@<SCITEGIC>MOL_PROPERTY
Coulomb
SciTegic.value.DoubleValue
-1.333

@<SCITEGIC>MOL_PROPERTY
VdW
SciTegic.value.DoubleValue
0.224

@<SCITEGIC>MOL_PROPERTY
VdW6
SciTegic.value.DoubleValue
-4.212

@<SCITEGIC>MOL_PROPERTY
VdW12
SciTegic.value.DoubleValue
4.436

@<SCITEGIC>MOL_PROPERTY
Bond
SciTegic.value.DoubleValue
0.044

@<SCITEGIC>MOL_PROPERTY
Angle
SciTegic.value.DoubleValue
2.230

@<SCITEGIC>MOL_PROPERTY
Pdih
SciTegic.value.DoubleValue
12.956

@<SCITEGIC>MOL_PROPERTY
Idih
SciTegic.value.DoubleValue
0.000

@<SCITEGIC>MOL_PROPERTY
Tether
SciTegic.value.DoubleValue
0.000

@<TRIPOS>MOLECULE
guest-s20_confgen4.mol2 : confsearch ligand conformer 575
          17          16           1
SMALL
USER_CHARGES
 
@<TRIPOS>ATOM
       1    C1      20.031726   16.978993   23.801046 C.2        1 MOL1         0.6132
       2    O1      20.269031   17.429830   24.904416 O.co2      1 MOL1        -0.6749
       3    O2      20.657465   16.065248   23.300442 O.co2      1 MOL1        -0.6749
       4    C2      18.868128   17.573286   23.013371 C.3        1 MOL1        -0.1955
       5    H1      18.106238   17.897269   23.731931 H          1 MOL1         0.0733
       6    H2      18.409377   16.765486   22.431369 H          1 MOL1         0.0733
       7    C3      19.222683   18.729940   22.089619 C.2        1 MOL1        -0.1395
       8    H3      18.377806   19.139042   21.537021 H          1 MOL1         0.0816
       9    C4      20.441652   19.255329   21.919097 C.2        1 MOL1        -0.1394
      10    H4      21.303176   18.865594   22.460038 H          1 MOL1         0.0816
      11    C5      20.741566   20.406697   20.985104 C.3        1 MOL1        -0.1826
      12    H5      21.616440   20.163954   20.366887 H          1 MOL1         0.0736
      13    H6      19.903212   20.570595   20.294123 H          1 MOL1         0.0736
      14    C6      21.013361   21.702702   21.773479 C.3        1 MOL1        -0.2882
      15    H7      21.231714   22.534303   21.090968 H          1 MOL1         0.0749
      16    H8      20.141366   21.979777   22.380478 H          1 MOL1         0.0749
      17    H9      21.872465   21.579026   22.445865 H          1 MOL1         0.0749
@<TRIPOS>BOND
    1     1     2    1
    2     1     3    2
    3     1     4    1
    4     4     5    1
    5     4     6    1
    6     4     7    1
    7     7     8    1
    8     7     9    2
    9     9    10    1
   10     9    11    1
   11    11    12    1
   12    11    13    1
   13    11    14    1
   14    14    15    1
   15    14    16    1
   16    14    17    1
@<TRIPOS>SUBSTRUCTURE
       1 MOL1            1 RESIDUE      1      MOL     
@<SCITEGIC>MOL_PROPERTY
VConf Rank
SciTegic.value.IntegerValue
575

@<SCITEGIC>MOL_PROPERTY
Conf_Id
SciTegic.value.IntegerValue
39

@<SCITEGIC>MOL_PROPERTY
Delta U+W
SciTegic.value.DoubleValue
-0.422

@<SCITEGIC>MOL_PROPERTY
U+W
SciTegic.value.DoubleValue
-49.849

@<SCITEGIC>MOL_PROPERTY
Grad RMS
SciTegic.value.DoubleValue
0.000000

@<SCITEGIC>MOL_PROPERTY
U
SciTegic.value.DoubleValue
14.465

@<SCITEGIC>MOL_PROPERTY
W
SciTegic.value.DoubleValue
-64.314

@<SCITEGIC>MOL_PROPERTY
W(PB)
SciTegic.value.DoubleValue
-66.406

@<SCITEGIC>MOL_PROPERTY
W(SA)
SciTegic.value.DoubleValue
2.093

@<SCITEGIC>MOL_PROPERTY
Valence
SciTegic.value.DoubleValue
14.072

@<SCITEGIC>MOL_PROPERTY
Coulomb
SciTegic.value.DoubleValue
-0.199

@<SCITEGIC>MOL_PROPERTY
VdW
SciTegic.value.DoubleValue
0.592

@<SCITEGIC>MOL_PROPERTY
VdW6
SciTegic.value.DoubleValue
-5.019

@<SCITEGIC>MOL_PROPERTY
VdW12
SciTegic.value.DoubleValue
5.611

@<SCITEGIC>MOL_PROPERTY
Bond
SciTegic.value.DoubleValue
0.085

@<SCITEGIC>MOL_PROPERTY
Angle
SciTegic.value.DoubleValue
2.748

@<SCITEGIC>MOL_PROPERTY
Pdih
SciTegic.value.DoubleValue
11.238

@<SCITEGIC>MOL_PROPERTY
Idih
SciTegic.value.DoubleValue
0.001

@<SCITEGIC>MOL_PROPERTY
Tether
SciTegic.value.DoubleValue
0.000

@<TRIPOS>MOLECULE
guest-s20_confgen4.mol2 : confsearch ligand conformer 576
          17          16           1
SMALL
USER_CHARGES
 
@<TRIPOS>ATOM
       1    C1      21.113047   20.536718   24.828201 C.2        1 MOL1         0.6132
       2    O1      20.501269   21.504442   25.235877 O.co2      1 MOL1        -0.6749
       3    O2      22.321684   20.428968   24.894565 O.co2      1 MOL1        -0.6749
       4    C2      20.319358   19.395704   24.205507 C.3        1 MOL1        -0.1955
       5    H1      19.416695   19.246985   24.809321 H          1 MOL1         0.0733
       6    H2      20.914958   18.478566   24.287719 H          1 MOL1         0.0733
       7    C3      19.941222   19.670875   22.762580 C.2        1 MOL1        -0.1395
       8    H3      19.218887   20.473345   22.616034 H          1 MOL1         0.0816
       9    C4      20.436129   19.003108   21.715975 C.2        1 MOL1        -0.1394
      10    H4      21.160639   18.202782   21.863024 H          1 MOL1         0.0816
      11    C5      20.060754   19.281402   20.277584 C.3        1 MOL1        -0.1826
      12    H5      19.541972   20.246468   20.195522 H          1 MOL1         0.0736
      13    H6      20.969634   19.359103   19.665673 H          1 MOL1         0.0736
      14    C6      19.156737   18.166984   19.715546 C.3        1 MOL1        -0.2882
      15    H7      18.228555   18.087665   20.296740 H          1 MOL1         0.0749
      16    H8      18.888239   18.374104   18.671470 H          1 MOL1         0.0749
      17    H9      19.665935   17.194890   19.749903 H          1 MOL1         0.0749
@<TRIPOS>BOND
    1     1     2    1
    2     1     3    2
    3     1     4    1
    4     4     5    1
    5     4     6    1
    6     4     7    1
    7     7     8    1
    8     7     9    2
    9     9    10    1
   10     9    11    1
   11    11    12    1
   12    11    13    1
   13    11    14    1
   14    14    15    1
   15    14    16    1
   16    14    17    1
@<TRIPOS>SUBSTRUCTURE
       1 MOL1            1 RESIDUE      1      MOL     
@<SCITEGIC>MOL_PROPERTY
VConf Rank
SciTegic.value.IntegerValue
576

@<SCITEGIC>MOL_PROPERTY
Conf_Id
SciTegic.value.IntegerValue
38

@<SCITEGIC>MOL_PROPERTY
Delta U+W
SciTegic.value.DoubleValue
0.000

@<SCITEGIC>MOL_PROPERTY
U+W
SciTegic.value.DoubleValue
-49.427

@<SCITEGIC>MOL_PROPERTY
Grad RMS
SciTegic.value.DoubleValue
0.000000

@<SCITEGIC>MOL_PROPERTY
U
SciTegic.value.DoubleValue
13.666

@<SCITEGIC>MOL_PROPERTY
W
SciTegic.value.DoubleValue
-63.093

@<SCITEGIC>MOL_PROPERTY
W(PB)
SciTegic.value.DoubleValue
-65.225

@<SCITEGIC>MOL_PROPERTY
W(SA)
SciTegic.value.DoubleValue
2.132

@<SCITEGIC>MOL_PROPERTY
Valence
SciTegic.value.DoubleValue
15.226

@<SCITEGIC>MOL_PROPERTY
Coulomb
SciTegic.value.DoubleValue
-1.822

@<SCITEGIC>MOL_PROPERTY
VdW
SciTegic.value.DoubleValue
0.261

@<SCITEGIC>MOL_PROPERTY
VdW6
SciTegic.value.DoubleValue
-4.165

@<SCITEGIC>MOL_PROPERTY
VdW12
SciTegic.value.DoubleValue
4.426

@<SCITEGIC>MOL_PROPERTY
Bond
SciTegic.value.DoubleValue
0.044

@<SCITEGIC>MOL_PROPERTY
Angle
SciTegic.value.DoubleValue
2.229

@<SCITEGIC>MOL_PROPERTY
Pdih
SciTegic.value.DoubleValue
12.953

@<SCITEGIC>MOL_PROPERTY
Idih
SciTegic.value.DoubleValue
0.000

@<SCITEGIC>MOL_PROPERTY
Tether
SciTegic.value.DoubleValue
0.000

@<TRIPOS>MOLECULE
guest-s20_confgen4.mol2 : confsearch ligand conformer 577
          17          16           1
SMALL
USER_CHARGES
 
@<TRIPOS>ATOM
       1    C1      22.552533   18.434671   23.904688 C.2        1 MOL1         0.6132
       2    O1      23.025754   19.430330   24.416100 O.co2      1 MOL1        -0.6749
       3    O2      23.220881   17.499429   23.510234 O.co2      1 MOL1        -0.6749
       4    C2      21.039372   18.349851   23.753843 C.3        1 MOL1        -0.1955
       5    H1      20.582609   19.011990   24.499214 H          1 MOL1         0.0733
       6    H2      20.734640   17.327072   24.003983 H          1 MOL1         0.0733
       7    C3      20.574376   18.704227   22.354222 C.2        1 MOL1        -0.1395
       8    H3      20.857384   17.995304   21.576703 H          1 MOL1         0.0816
       9    C4      19.868906   19.798289   22.051618 C.2        1 MOL1        -0.1394
      10    H4      19.588981   20.508379   22.829097 H          1 MOL1         0.0816
      11    C5      19.409496   20.152051   20.654794 C.3        1 MOL1        -0.1826
      12    H5      19.656550   21.200062   20.437607 H          1 MOL1         0.0736
      13    H6      19.939278   19.542349   19.909936 H          1 MOL1         0.0736
      14    C6      17.890860   19.939690   20.500816 C.3        1 MOL1        -0.2882
      15    H7      17.333805   20.567176   21.208897 H          1 MOL1         0.0749
      16    H8      17.563334   20.198666   19.485561 H          1 MOL1         0.0749
      17    H9      17.622768   18.891568   20.688346 H          1 MOL1         0.0749
@<TRIPOS>BOND
    1     1     2    1
    2     1     3    2
    3     1     4    1
    4     4     5    1
    5     4     6    1
    6     4     7    1
    7     7     8    1
    8     7     9    2
    9     9    10    1
   10     9    11    1
   11    11    12    1
   12    11    13    1
   13    11    14    1
   14    14    15    1
   15    14    16    1
   16    14    17    1
@<TRIPOS>SUBSTRUCTURE
       1 MOL1            1 RESIDUE      1      MOL     
@<SCITEGIC>MOL_PROPERTY
VConf Rank
SciTegic.value.IntegerValue
577

@<SCITEGIC>MOL_PROPERTY
Conf_Id
SciTegic.value.IntegerValue
35

@<SCITEGIC>MOL_PROPERTY
Delta U+W
SciTegic.value.DoubleValue
-0.102

@<SCITEGIC>MOL_PROPERTY
U+W
SciTegic.value.DoubleValue
-49.529

@<SCITEGIC>MOL_PROPERTY
Grad RMS
SciTegic.value.DoubleValue
0.000000

@<SCITEGIC>MOL_PROPERTY
U
SciTegic.value.DoubleValue
13.666

@<SCITEGIC>MOL_PROPERTY
W
SciTegic.value.DoubleValue
-63.195

@<SCITEGIC>MOL_PROPERTY
W(PB)
SciTegic.value.DoubleValue
-65.299

@<SCITEGIC>MOL_PROPERTY
W(SA)
SciTegic.value.DoubleValue
2.103

@<SCITEGIC>MOL_PROPERTY
Valence
SciTegic.value.DoubleValue
15.226

@<SCITEGIC>MOL_PROPERTY
Coulomb
SciTegic.value.DoubleValue
-1.822

@<SCITEGIC>MOL_PROPERTY
VdW
SciTegic.value.DoubleValue
0.261

@<SCITEGIC>MOL_PROPERTY
VdW6
SciTegic.value.DoubleValue
-4.165

@<SCITEGIC>MOL_PROPERTY
VdW12
SciTegic.value.DoubleValue
4.426

@<SCITEGIC>MOL_PROPERTY
Bond
SciTegic.value.DoubleValue
0.044

@<SCITEGIC>MOL_PROPERTY
Angle
SciTegic.value.DoubleValue
2.229

@<SCITEGIC>MOL_PROPERTY
Pdih
SciTegic.value.DoubleValue
12.953

@<SCITEGIC>MOL_PROPERTY
Idih
SciTegic.value.DoubleValue
0.000

@<SCITEGIC>MOL_PROPERTY
Tether
SciTegic.value.DoubleValue
0.000

@<TRIPOS>MOLECULE
guest-s20_confgen4.mol2 : confsearch ligand conformer 578
          17          16           1
SMALL
USER_CHARGES
 
@<TRIPOS>ATOM
       1    C1      17.746494   18.787844   23.777382 C.2        1 MOL1         0.6132
       2    O1      16.895924   19.551380   23.364449 O.co2      1 MOL1        -0.6749
       3    O2      17.531677   17.620857   24.039766 O.co2      1 MOL1        -0.6749
       4    C2      19.155495   19.327317   23.985653 C.3        1 MOL1        -0.1955
       5    H1      19.658031   18.696175   24.728419 H          1 MOL1         0.0733
       6    H2      19.069244   20.329053   24.422225 H          1 MOL1         0.0733
       7    C3      19.950239   19.388718   22.694910 C.2        1 MOL1        -0.1395
       8    H3      19.589668   20.120167   21.973758 H          1 MOL1         0.0816
       9    C4      21.010655   18.614378   22.432939 C.2        1 MOL1        -0.1394
      10    H4      21.339824   17.890268   23.177516 H          1 MOL1         0.0816
      11    C5      21.847560   18.620225   21.164812 C.3        1 MOL1        -0.1826
      12    H5      22.894599   18.820862   21.429309 H          1 MOL1         0.0736
      13    H6      21.841315   17.611929   20.729128 H          1 MOL1         0.0736
      14    C6      21.396754   19.634641   20.090678 C.3        1 MOL1        -0.2882
      15    H7      21.442422   20.662019   20.475138 H          1 MOL1         0.0749
      16    H8      22.048135   19.576557   19.208998 H          1 MOL1         0.0749
      17    H9      20.368829   19.430733   19.763141 H          1 MOL1         0.0749
@<TRIPOS>BOND
    1     1     2    1
    2     1     3    2
    3     1     4    1
    4     4     5    1
    5     4     6    1
    6     4     7    1
    7     7     8    1
    8     7     9    2
    9     9    10    1
   10     9    11    1
   11    11    12    1
   12    11    13    1
   13    11    14    1
   14    14    15    1
   15    14    16    1
   16    14    17    1
@<TRIPOS>SUBSTRUCTURE
       1 MOL1            1 RESIDUE      1      MOL     
@<SCITEGIC>MOL_PROPERTY
VConf Rank
SciTegic.value.IntegerValue
578

@<SCITEGIC>MOL_PROPERTY
Conf_Id
SciTegic.value.IntegerValue
19

@<SCITEGIC>MOL_PROPERTY
Delta U+W
SciTegic.value.DoubleValue
-0.496

@<SCITEGIC>MOL_PROPERTY
U+W
SciTegic.value.DoubleValue
-49.923

@<SCITEGIC>MOL_PROPERTY
Grad RMS
SciTegic.value.DoubleValue
0.000000

@<SCITEGIC>MOL_PROPERTY
U
SciTegic.value.DoubleValue
13.863

@<SCITEGIC>MOL_PROPERTY
W
SciTegic.value.DoubleValue
-63.786

@<SCITEGIC>MOL_PROPERTY
W(PB)
SciTegic.value.DoubleValue
-65.856

@<SCITEGIC>MOL_PROPERTY
W(SA)
SciTegic.value.DoubleValue
2.070

@<SCITEGIC>MOL_PROPERTY
Valence
SciTegic.value.DoubleValue
14.117

@<SCITEGIC>MOL_PROPERTY
Coulomb
SciTegic.value.DoubleValue
-1.228

@<SCITEGIC>MOL_PROPERTY
VdW
SciTegic.value.DoubleValue
0.974

@<SCITEGIC>MOL_PROPERTY
VdW6
SciTegic.value.DoubleValue
-4.885

@<SCITEGIC>MOL_PROPERTY
VdW12
SciTegic.value.DoubleValue
5.859

@<SCITEGIC>MOL_PROPERTY
Bond
SciTegic.value.DoubleValue
0.094

@<SCITEGIC>MOL_PROPERTY
Angle
SciTegic.value.DoubleValue
2.818

@<SCITEGIC>MOL_PROPERTY
Pdih
SciTegic.value.DoubleValue
11.205

@<SCITEGIC>MOL_PROPERTY
Idih
SciTegic.value.DoubleValue
0.000

@<SCITEGIC>MOL_PROPERTY
Tether
SciTegic.value.DoubleValue
0.000

@<TRIPOS>MOLECULE
guest-s20_confgen4.mol2 : confsearch ligand conformer 579
          17          16           1
SMALL
USER_CHARGES
 
@<TRIPOS>ATOM
       1    C1      20.308527   21.177879   24.244170 C.2        1 MOL1         0.6132
       2    O1      19.890737   22.146569   23.640925 O.co2      1 MOL1        -0.6749
       3    O2      19.948467   20.877846   25.365481 O.co2      1 MOL1        -0.6749
       4    C2      21.347976   20.296430   23.564153 C.3        1 MOL1        -0.1955
       5    H1      22.104163   20.032635   24.312537 H          1 MOL1         0.0733
       6    H2      21.852627   20.892466   22.794269 H          1 MOL1         0.0733
       7    C3      20.743411   19.039092   22.968868 C.2        1 MOL1        -0.1395
       8    H3      20.358549   18.320740   23.692102 H          1 MOL1         0.0816
       9    C4      20.661034   18.793207   21.657773 C.2        1 MOL1        -0.1394
      10    H4      21.041379   19.514200   20.934887 H          1 MOL1         0.0816
      11    C5      20.055151   17.540108   21.066176 C.3        1 MOL1        -0.1826
      12    H5      20.731999   17.122854   20.308351 H          1 MOL1         0.0736
      13    H6      19.934324   16.769348   21.839829 H          1 MOL1         0.0736
      14    C6      18.685887   17.837282   20.424464 C.3        1 MOL1        -0.2882
      15    H7      18.782972   18.577667   19.619585 H          1 MOL1         0.0749
      16    H8      18.250587   16.924583   19.997191 H          1 MOL1         0.0749
      17    H9      17.983788   18.233101   21.170162 H          1 MOL1         0.0749
@<TRIPOS>BOND
    1     1     2    1
    2     1     3    2
    3     1     4    1
    4     4     5    1
    5     4     6    1
    6     4     7    1
    7     7     8    1
    8     7     9    2
    9     9    10    1
   10     9    11    1
   11    11    12    1
   12    11    13    1
   13    11    14    1
   14    14    15    1
   15    14    16    1
   16    14    17    1
@<TRIPOS>SUBSTRUCTURE
       1 MOL1            1 RESIDUE      1      MOL     
@<SCITEGIC>MOL_PROPERTY
VConf Rank
SciTegic.value.IntegerValue
579

@<SCITEGIC>MOL_PROPERTY
Conf_Id
SciTegic.value.IntegerValue
7

@<SCITEGIC>MOL_PROPERTY
Delta U+W
SciTegic.value.DoubleValue
-0.041

@<SCITEGIC>MOL_PROPERTY
U+W
SciTegic.value.DoubleValue
-49.468

@<SCITEGIC>MOL_PROPERTY
Grad RMS
SciTegic.value.DoubleValue
0.000000

@<SCITEGIC>MOL_PROPERTY
U
SciTegic.value.DoubleValue
14.121

@<SCITEGIC>MOL_PROPERTY
W
SciTegic.value.DoubleValue
-63.589

@<SCITEGIC>MOL_PROPERTY
W(PB)
SciTegic.value.DoubleValue
-65.660

@<SCITEGIC>MOL_PROPERTY
W(SA)
SciTegic.value.DoubleValue
2.071

@<SCITEGIC>MOL_PROPERTY
Valence
SciTegic.value.DoubleValue
15.230

@<SCITEGIC>MOL_PROPERTY
Coulomb
SciTegic.value.DoubleValue
-1.333

@<SCITEGIC>MOL_PROPERTY
VdW
SciTegic.value.DoubleValue
0.224

@<SCITEGIC>MOL_PROPERTY
VdW6
SciTegic.value.DoubleValue
-4.212

@<SCITEGIC>MOL_PROPERTY
VdW12
SciTegic.value.DoubleValue
4.436

@<SCITEGIC>MOL_PROPERTY
Bond
SciTegic.value.DoubleValue
0.044

@<SCITEGIC>MOL_PROPERTY
Angle
SciTegic.value.DoubleValue
2.230

@<SCITEGIC>MOL_PROPERTY
Pdih
SciTegic.value.DoubleValue
12.956

@<SCITEGIC>MOL_PROPERTY
Idih
SciTegic.value.DoubleValue
0.000

@<SCITEGIC>MOL_PROPERTY
Tether
SciTegic.value.DoubleValue
0.000

@<TRIPOS>MOLECULE
guest-s20_confgen4.mol2 : confsearch ligand conformer 580
          17          16           1
SMALL
USER_CHARGES
 
@<TRIPOS>ATOM
       1    C1      20.836351   21.576248   23.615876 C.2        1 MOL1         0.6132
       2    O1      20.941644   22.360554   22.693503 O.co2      1 MOL1        -0.6749
       3    O2      21.714674   21.378214   24.432218 O.co2      1 MOL1        -0.6749
       4    C2      19.520719   20.820123   23.773876 C.3        1 MOL1        -0.1955
       5    H1      18.714553   21.468483   23.411255 H          1 MOL1         0.0733
       6    H2      19.338564   20.683800   24.846236 H          1 MOL1         0.0733
       7    C3      19.448221   19.473146   23.068701 C.2        1 MOL1        -0.1395
       8    H3      18.500878   18.950400   23.194501 H          1 MOL1         0.0816
       9    C4      20.420315   18.914357   22.338096 C.2        1 MOL1        -0.1394
      10    H4      21.376653   19.416253   22.195790 H          1 MOL1         0.0816
      11    C5      20.297723   17.569083   21.657543 C.3        1 MOL1        -0.1826
      12    H5      21.186427   16.961402   21.875366 H          1 MOL1         0.0736
      13    H6      19.433683   17.015855   22.050643 H          1 MOL1         0.0736
      14    C6      20.147980   17.731841   20.132380 C.3        1 MOL1        -0.2882
      15    H7      20.060854   16.752737   19.643683 H          1 MOL1         0.0749
      16    H8      19.250353   18.315464   19.888978 H          1 MOL1         0.0749
      17    H9      21.017814   18.249110   19.706610 H          1 MOL1         0.0749
@<TRIPOS>BOND
    1     1     2    1
    2     1     3    2
    3     1     4    1
    4     4     5    1
    5     4     6    1
    6     4     7    1
    7     7     8    1
    8     7     9    2
    9     9    10    1
   10     9    11    1
   11    11    12    1
   12    11    13    1
   13    11    14    1
   14    14    15    1
   15    14    16    1
   16    14    17    1
@<TRIPOS>SUBSTRUCTURE
       1 MOL1            1 RESIDUE      1      MOL     
@<SCITEGIC>MOL_PROPERTY
VConf Rank
SciTegic.value.IntegerValue
580

@<SCITEGIC>MOL_PROPERTY
Conf_Id
SciTegic.value.IntegerValue
39

@<SCITEGIC>MOL_PROPERTY
Delta U+W
SciTegic.value.DoubleValue
-0.422

@<SCITEGIC>MOL_PROPERTY
U+W
SciTegic.value.DoubleValue
-49.849

@<SCITEGIC>MOL_PROPERTY
Grad RMS
SciTegic.value.DoubleValue
0.000000

@<SCITEGIC>MOL_PROPERTY
U
SciTegic.value.DoubleValue
14.465

@<SCITEGIC>MOL_PROPERTY
W
SciTegic.value.DoubleValue
-64.314

@<SCITEGIC>MOL_PROPERTY
W(PB)
SciTegic.value.DoubleValue
-66.406

@<SCITEGIC>MOL_PROPERTY
W(SA)
SciTegic.value.DoubleValue
2.093

@<SCITEGIC>MOL_PROPERTY
Valence
SciTegic.value.DoubleValue
14.072

@<SCITEGIC>MOL_PROPERTY
Coulomb
SciTegic.value.DoubleValue
-0.199

@<SCITEGIC>MOL_PROPERTY
VdW
SciTegic.value.DoubleValue
0.592

@<SCITEGIC>MOL_PROPERTY
VdW6
SciTegic.value.DoubleValue
-5.019

@<SCITEGIC>MOL_PROPERTY
VdW12
SciTegic.value.DoubleValue
5.611

@<SCITEGIC>MOL_PROPERTY
Bond
SciTegic.value.DoubleValue
0.085

@<SCITEGIC>MOL_PROPERTY
Angle
SciTegic.value.DoubleValue
2.748

@<SCITEGIC>MOL_PROPERTY
Pdih
SciTegic.value.DoubleValue
11.238

@<SCITEGIC>MOL_PROPERTY
Idih
SciTegic.value.DoubleValue
0.001

@<SCITEGIC>MOL_PROPERTY
Tether
SciTegic.value.DoubleValue
0.000

@<TRIPOS>MOLECULE
guest-s20_confgen4.mol2 : confsearch ligand conformer 581
          17          16           1
SMALL
USER_CHARGES
 
@<TRIPOS>ATOM
       1    C1      20.886176   22.194952   21.167707 C.2        1 MOL1         0.6132
       2    O1      20.282237   23.111303   21.689740 O.co2      1 MOL1        -0.6749
       3    O2      21.179981   22.169015   19.988799 O.co2      1 MOL1        -0.6749
       4    C2      21.301171   21.018559   22.041482 C.3        1 MOL1        -0.1955
       5    H1      21.654005   21.420161   22.998422 H          1 MOL1         0.0733
       6    H2      22.156610   20.523331   21.566495 H          1 MOL1         0.0733
       7    C3      20.166522   20.039217   22.274302 C.2        1 MOL1        -0.1395
       8    H3      19.345163   20.415356   22.883474 H          1 MOL1         0.0816
       9    C4      20.134737   18.796220   21.784223 C.2        1 MOL1        -0.1394
      10    H4      20.955012   18.421752   21.172681 H          1 MOL1         0.0816
      11    C5      19.000733   17.822348   22.014282 C.3        1 MOL1        -0.1826
      12    H5      18.118357   18.345772   22.407553 H          1 MOL1         0.0736
      13    H6      18.699887   17.371327   21.058978 H          1 MOL1         0.0736
      14    C6      19.415686   16.711610   22.998729 C.3        1 MOL1        -0.2882
      15    H7      19.696694   17.137395   23.971016 H          1 MOL1         0.0749
      16    H8      18.589076   16.007756   23.161182 H          1 MOL1         0.0749
      17    H9      20.273666   16.146035   22.612175 H          1 MOL1         0.0749
@<TRIPOS>BOND
    1     1     2    1
    2     1     3    2
    3     1     4    1
    4     4     5    1
    5     4     6    1
    6     4     7    1
    7     7     8    1
    8     7     9    2
    9     9    10    1
   10     9    11    1
   11    11    12    1
   12    11    13    1
   13    11    14    1
   14    14    15    1
   15    14    16    1
   16    14    17    1
@<TRIPOS>SUBSTRUCTURE
       1 MOL1            1 RESIDUE      1      MOL     
@<SCITEGIC>MOL_PROPERTY
VConf Rank
SciTegic.value.IntegerValue
581

@<SCITEGIC>MOL_PROPERTY
Conf_Id
SciTegic.value.IntegerValue
38

@<SCITEGIC>MOL_PROPERTY
Delta U+W
SciTegic.value.DoubleValue
0.000

@<SCITEGIC>MOL_PROPERTY
U+W
SciTegic.value.DoubleValue
-49.427

@<SCITEGIC>MOL_PROPERTY
Grad RMS
SciTegic.value.DoubleValue
0.000000

@<SCITEGIC>MOL_PROPERTY
U
SciTegic.value.DoubleValue
13.666

@<SCITEGIC>MOL_PROPERTY
W
SciTegic.value.DoubleValue
-63.093

@<SCITEGIC>MOL_PROPERTY
W(PB)
SciTegic.value.DoubleValue
-65.225

@<SCITEGIC>MOL_PROPERTY
W(SA)
SciTegic.value.DoubleValue
2.132

@<SCITEGIC>MOL_PROPERTY
Valence
SciTegic.value.DoubleValue
15.226

@<SCITEGIC>MOL_PROPERTY
Coulomb
SciTegic.value.DoubleValue
-1.822

@<SCITEGIC>MOL_PROPERTY
VdW
SciTegic.value.DoubleValue
0.261

@<SCITEGIC>MOL_PROPERTY
VdW6
SciTegic.value.DoubleValue
-4.165

@<SCITEGIC>MOL_PROPERTY
VdW12
SciTegic.value.DoubleValue
4.426

@<SCITEGIC>MOL_PROPERTY
Bond
SciTegic.value.DoubleValue
0.044

@<SCITEGIC>MOL_PROPERTY
Angle
SciTegic.value.DoubleValue
2.229

@<SCITEGIC>MOL_PROPERTY
Pdih
SciTegic.value.DoubleValue
12.953

@<SCITEGIC>MOL_PROPERTY
Idih
SciTegic.value.DoubleValue
0.000

@<SCITEGIC>MOL_PROPERTY
Tether
SciTegic.value.DoubleValue
0.000

@<TRIPOS>MOLECULE
guest-s20_confgen4.mol2 : confsearch ligand conformer 582
          17          16           1
SMALL
USER_CHARGES
 
@<TRIPOS>ATOM
       1    C1      18.786714   18.123438   19.455665 C.2        1 MOL1         0.6132
       2    O1      17.795038   18.772372   19.186815 O.co2      1 MOL1        -0.6749
       3    O2      18.871333   16.923276   19.284166 O.co2      1 MOL1        -0.6749
       4    C2      19.992189   18.852759   20.034045 C.3        1 MOL1        -0.1955
       5    H1      19.931227   19.906372   19.736012 H          1 MOL1         0.0733
       6    H2      20.891590   18.438208   19.564223 H          1 MOL1         0.0733
       7    C3      20.083541   18.718784   21.542173 C.2        1 MOL1        -0.1395
       8    H3      20.306494   17.716731   21.907388 H          1 MOL1         0.0816
       9    C4      19.907479   19.730031   22.398099 C.2        1 MOL1        -0.1394
      10    H4      19.681418   20.731122   22.032347 H          1 MOL1         0.0816
      11    C5      19.995034   19.593753   23.901789 C.3        1 MOL1        -0.1826
      12    H5      19.124146   20.073331   24.368792 H          1 MOL1         0.0736
      13    H6      19.966426   18.535007   24.194123 H          1 MOL1         0.0736
      14    C6      21.287007   20.237268   24.441933 C.3        1 MOL1        -0.2882
      15    H7      21.324027   21.306825   24.196770 H          1 MOL1         0.0749
      16    H8      21.344576   20.135871   25.533487 H          1 MOL1         0.0749
      17    H9      22.173287   19.755956   24.007829 H          1 MOL1         0.0749
@<TRIPOS>BOND
    1     1     2    1
    2     1     3    2
    3     1     4    1
    4     4     5    1
    5     4     6    1
    6     4     7    1
    7     7     8    1
    8     7     9    2
    9     9    10    1
   10     9    11    1
   11    11    12    1
   12    11    13    1
   13    11    14    1
   14    14    15    1
   15    14    16    1
   16    14    17    1
@<TRIPOS>SUBSTRUCTURE
       1 MOL1            1 RESIDUE      1      MOL     
@<SCITEGIC>MOL_PROPERTY
VConf Rank
SciTegic.value.IntegerValue
582

@<SCITEGIC>MOL_PROPERTY
Conf_Id
SciTegic.value.IntegerValue
35

@<SCITEGIC>MOL_PROPERTY
Delta U+W
SciTegic.value.DoubleValue
-0.102

@<SCITEGIC>MOL_PROPERTY
U+W
SciTegic.value.DoubleValue
-49.529

@<SCITEGIC>MOL_PROPERTY
Grad RMS
SciTegic.value.DoubleValue
0.000000

@<SCITEGIC>MOL_PROPERTY
U
SciTegic.value.DoubleValue
13.666

@<SCITEGIC>MOL_PROPERTY
W
SciTegic.value.DoubleValue
-63.195

@<SCITEGIC>MOL_PROPERTY
W(PB)
SciTegic.value.DoubleValue
-65.299

@<SCITEGIC>MOL_PROPERTY
W(SA)
SciTegic.value.DoubleValue
2.103

@<SCITEGIC>MOL_PROPERTY
Valence
SciTegic.value.DoubleValue
15.226

@<SCITEGIC>MOL_PROPERTY
Coulomb
SciTegic.value.DoubleValue
-1.822

@<SCITEGIC>MOL_PROPERTY
VdW
SciTegic.value.DoubleValue
0.261

@<SCITEGIC>MOL_PROPERTY
VdW6
SciTegic.value.DoubleValue
-4.165

@<SCITEGIC>MOL_PROPERTY
VdW12
SciTegic.value.DoubleValue
4.426

@<SCITEGIC>MOL_PROPERTY
Bond
SciTegic.value.DoubleValue
0.044

@<SCITEGIC>MOL_PROPERTY
Angle
SciTegic.value.DoubleValue
2.229

@<SCITEGIC>MOL_PROPERTY
Pdih
SciTegic.value.DoubleValue
12.953

@<SCITEGIC>MOL_PROPERTY
Idih
SciTegic.value.DoubleValue
0.000

@<SCITEGIC>MOL_PROPERTY
Tether
SciTegic.value.DoubleValue
0.000

@<TRIPOS>MOLECULE
guest-s20_confgen4.mol2 : confsearch ligand conformer 583
          17          16           1
SMALL
USER_CHARGES
 
@<TRIPOS>ATOM
       1    C1      17.940253   19.422186   20.361747 C.2        1 MOL1         0.6132
       2    O1      17.992608   20.511950   19.826354 O.co2      1 MOL1        -0.6749
       3    O2      17.703051   18.390751   19.764481 O.co2      1 MOL1        -0.6749
       4    C2      18.175690   19.348585   21.864693 C.3        1 MOL1        -0.1955
       5    H1      17.688154   18.442569   22.244205 H          1 MOL1         0.0733
       6    H2      17.666853   20.203155   22.325457 H          1 MOL1         0.0733
       7    C3      19.649746   19.365534   22.222853 C.2        1 MOL1        -0.1395
       8    H3      20.157221   20.305710   22.013981 H          1 MOL1         0.0816
       9    C4      20.302686   18.321893   22.749346 C.2        1 MOL1        -0.1394
      10    H4      19.762223   17.395370   22.940496 H          1 MOL1         0.0816
      11    C5      21.773356   18.268331   23.127304 C.3        1 MOL1        -0.1826
      12    H5      21.859017   18.010178   24.191505 H          1 MOL1         0.0736
      13    H6      22.251040   17.441894   22.583851 H          1 MOL1         0.0736
      14    C6      22.563133   19.568630   22.859906 C.3        1 MOL1        -0.2882
      15    H7      22.145414   20.407925   23.431304 H          1 MOL1         0.0749
      16    H8      23.613075   19.449241   23.157222 H          1 MOL1         0.0749
      17    H9      22.543345   19.829219   21.793514 H          1 MOL1         0.0749
@<TRIPOS>BOND
    1     1     2    1
    2     1     3    2
    3     1     4    1
    4     4     5    1
    5     4     6    1
    6     4     7    1
    7     7     8    1
    8     7     9    2
    9     9    10    1
   10     9    11    1
   11    11    12    1
   12    11    13    1
   13    11    14    1
   14    14    15    1
   15    14    16    1
   16    14    17    1
@<TRIPOS>SUBSTRUCTURE
       1 MOL1            1 RESIDUE      1      MOL     
@<SCITEGIC>MOL_PROPERTY
VConf Rank
SciTegic.value.IntegerValue
583

@<SCITEGIC>MOL_PROPERTY
Conf_Id
SciTegic.value.IntegerValue
19

@<SCITEGIC>MOL_PROPERTY
Delta U+W
SciTegic.value.DoubleValue
-0.496

@<SCITEGIC>MOL_PROPERTY
U+W
SciTegic.value.DoubleValue
-49.923

@<SCITEGIC>MOL_PROPERTY
Grad RMS
SciTegic.value.DoubleValue
0.000000

@<SCITEGIC>MOL_PROPERTY
U
SciTegic.value.DoubleValue
13.863

@<SCITEGIC>MOL_PROPERTY
W
SciTegic.value.DoubleValue
-63.786

@<SCITEGIC>MOL_PROPERTY
W(PB)
SciTegic.value.DoubleValue
-65.856

@<SCITEGIC>MOL_PROPERTY
W(SA)
SciTegic.value.DoubleValue
2.070

@<SCITEGIC>MOL_PROPERTY
Valence
SciTegic.value.DoubleValue
14.117

@<SCITEGIC>MOL_PROPERTY
Coulomb
SciTegic.value.DoubleValue
-1.228

@<SCITEGIC>MOL_PROPERTY
VdW
SciTegic.value.DoubleValue
0.974

@<SCITEGIC>MOL_PROPERTY
VdW6
SciTegic.value.DoubleValue
-4.885

@<SCITEGIC>MOL_PROPERTY
VdW12
SciTegic.value.DoubleValue
5.859

@<SCITEGIC>MOL_PROPERTY
Bond
SciTegic.value.DoubleValue
0.094

@<SCITEGIC>MOL_PROPERTY
Angle
SciTegic.value.DoubleValue
2.818

@<SCITEGIC>MOL_PROPERTY
Pdih
SciTegic.value.DoubleValue
11.205

@<SCITEGIC>MOL_PROPERTY
Idih
SciTegic.value.DoubleValue
0.000

@<SCITEGIC>MOL_PROPERTY
Tether
SciTegic.value.DoubleValue
0.000

@<TRIPOS>MOLECULE
guest-s20_confgen4.mol2 : confsearch ligand conformer 584
          17          16           1
SMALL
USER_CHARGES
 
@<TRIPOS>ATOM
       1    C1      20.459271   16.335569   23.251941 C.2        1 MOL1         0.6132
       2    O1      21.033532   16.523076   24.306397 O.co2      1 MOL1        -0.6749
       3    O2      19.498948   15.600587   23.131173 O.co2      1 MOL1        -0.6749
       4    C2      20.975999   17.051215   22.010704 C.3        1 MOL1        -0.1955
       5    H1      20.954337   16.337121   21.179389 H          1 MOL1         0.0733
       6    H2      22.026863   17.315532   22.179447 H          1 MOL1         0.0733
       7    C3      20.155457   18.279001   21.664270 C.2        1 MOL1        -0.1395
       8    H3      19.136700   18.079293   21.333410 H          1 MOL1         0.0816
       9    C4      20.607303   19.533742   21.751890 C.2        1 MOL1        -0.1394
      10    H4      21.624422   19.733107   22.087720 H          1 MOL1         0.0816
      11    C5      19.786492   20.756795   21.408752 C.3        1 MOL1        -0.1826
      12    H5      20.367474   21.422348   20.756049 H          1 MOL1         0.0736
      13    H6      18.886712   20.470628   20.846868 H          1 MOL1         0.0736
      14    C6      19.371331   21.519591   22.681849 C.3        1 MOL1        -0.2882
      15    H7      20.253579   21.852166   23.244395 H          1 MOL1         0.0749
      16    H8      18.775652   22.405789   22.427121 H          1 MOL1         0.0749
      17    H9      18.767505   20.880446   23.339548 H          1 MOL1         0.0749
@<TRIPOS>BOND
    1     1     2    1
    2     1     3    2
    3     1     4    1
    4     4     5    1
    5     4     6    1
    6     4     7    1
    7     7     8    1
    8     7     9    2
    9     9    10    1
   10     9    11    1
   11    11    12    1
   12    11    13    1
   13    11    14    1
   14    14    15    1
   15    14    16    1
   16    14    17    1
@<TRIPOS>SUBSTRUCTURE
       1 MOL1            1 RESIDUE      1      MOL     
@<SCITEGIC>MOL_PROPERTY
VConf Rank
SciTegic.value.IntegerValue
584

@<SCITEGIC>MOL_PROPERTY
Conf_Id
SciTegic.value.IntegerValue
7

@<SCITEGIC>MOL_PROPERTY
Delta U+W
SciTegic.value.DoubleValue
-0.041

@<SCITEGIC>MOL_PROPERTY
U+W
SciTegic.value.DoubleValue
-49.468

@<SCITEGIC>MOL_PROPERTY
Grad RMS
SciTegic.value.DoubleValue
0.000000

@<SCITEGIC>MOL_PROPERTY
U
SciTegic.value.DoubleValue
14.121

@<SCITEGIC>MOL_PROPERTY
W
SciTegic.value.DoubleValue
-63.589

@<SCITEGIC>MOL_PROPERTY
W(PB)
SciTegic.value.DoubleValue
-65.660

@<SCITEGIC>MOL_PROPERTY
W(SA)
SciTegic.value.DoubleValue
2.071

@<SCITEGIC>MOL_PROPERTY
Valence
SciTegic.value.DoubleValue
15.230

@<SCITEGIC>MOL_PROPERTY
Coulomb
SciTegic.value.DoubleValue
-1.333

@<SCITEGIC>MOL_PROPERTY
VdW
SciTegic.value.DoubleValue
0.224

@<SCITEGIC>MOL_PROPERTY
VdW6
SciTegic.value.DoubleValue
-4.212

@<SCITEGIC>MOL_PROPERTY
VdW12
SciTegic.value.DoubleValue
4.436

@<SCITEGIC>MOL_PROPERTY
Bond
SciTegic.value.DoubleValue
0.044

@<SCITEGIC>MOL_PROPERTY
Angle
SciTegic.value.DoubleValue
2.230

@<SCITEGIC>MOL_PROPERTY
Pdih
SciTegic.value.DoubleValue
12.956

@<SCITEGIC>MOL_PROPERTY
Idih
SciTegic.value.DoubleValue
0.000

@<SCITEGIC>MOL_PROPERTY
Tether
SciTegic.value.DoubleValue
0.000

@<TRIPOS>MOLECULE
guest-s20_confgen4.mol2 : confsearch ligand conformer 585
          17          16           1
SMALL
USER_CHARGES
 
@<TRIPOS>ATOM
       1    C1      22.675842   20.093448   22.952640 C.2        1 MOL1         0.6132
       2    O1      22.570515   20.185526   24.159876 O.co2      1 MOL1        -0.6749
       3    O2      23.073585   20.996168   22.242724 O.co2      1 MOL1        -0.6749
       4    C2      22.315936   18.764250   22.295922 C.3        1 MOL1        -0.1955
       5    H1      22.553419   17.963258   23.005698 H          1 MOL1         0.0733
       6    H2      22.987616   18.619049   21.441825 H          1 MOL1         0.0733
       7    C3      20.870871   18.627790   21.837619 C.2        1 MOL1        -0.1395
       8    H3      20.635532   17.671737   21.371653 H          1 MOL1         0.0816
       9    C4      19.914741   19.555687   21.963393 C.2        1 MOL1        -0.1394
      10    H4      20.123284   20.519523   22.426278 H          1 MOL1         0.0816
      11    C5      18.490634   19.370166   21.488585 C.3        1 MOL1        -0.1826
      12    H5      18.175460   20.249261   20.910332 H          1 MOL1         0.0736
      13    H6      18.419216   18.506583   20.813103 H          1 MOL1         0.0736
      14    C6      17.532362   19.167452   22.678399 C.3        1 MOL1        -0.2882
      15    H7      16.500470   19.034773   22.328178 H          1 MOL1         0.0749
      16    H8      17.812885   18.277809   23.257569 H          1 MOL1         0.0749
      17    H9      17.555040   20.034590   23.351463 H          1 MOL1         0.0749
@<TRIPOS>BOND
    1     1     2    1
    2     1     3    2
    3     1     4    1
    4     4     5    1
    5     4     6    1
    6     4     7    1
    7     7     8    1
    8     7     9    2
    9     9    10    1
   10     9    11    1
   11    11    12    1
   12    11    13    1
   13    11    14    1
   14    14    15    1
   15    14    16    1
   16    14    17    1
@<TRIPOS>SUBSTRUCTURE
       1 MOL1            1 RESIDUE      1      MOL     
@<SCITEGIC>MOL_PROPERTY
VConf Rank
SciTegic.value.IntegerValue
585

@<SCITEGIC>MOL_PROPERTY
Conf_Id
SciTegic.value.IntegerValue
39

@<SCITEGIC>MOL_PROPERTY
Delta U+W
SciTegic.value.DoubleValue
-0.422

@<SCITEGIC>MOL_PROPERTY
U+W
SciTegic.value.DoubleValue
-49.849

@<SCITEGIC>MOL_PROPERTY
Grad RMS
SciTegic.value.DoubleValue
0.000000

@<SCITEGIC>MOL_PROPERTY
U
SciTegic.value.DoubleValue
14.465

@<SCITEGIC>MOL_PROPERTY
W
SciTegic.value.DoubleValue
-64.314

@<SCITEGIC>MOL_PROPERTY
W(PB)
SciTegic.value.DoubleValue
-66.406

@<SCITEGIC>MOL_PROPERTY
W(SA)
SciTegic.value.DoubleValue
2.093

@<SCITEGIC>MOL_PROPERTY
Valence
SciTegic.value.DoubleValue
14.072

@<SCITEGIC>MOL_PROPERTY
Coulomb
SciTegic.value.DoubleValue
-0.199

@<SCITEGIC>MOL_PROPERTY
VdW
SciTegic.value.DoubleValue
0.592

@<SCITEGIC>MOL_PROPERTY
VdW6
SciTegic.value.DoubleValue
-5.019

@<SCITEGIC>MOL_PROPERTY
VdW12
SciTegic.value.DoubleValue
5.611

@<SCITEGIC>MOL_PROPERTY
Bond
SciTegic.value.DoubleValue
0.085

@<SCITEGIC>MOL_PROPERTY
Angle
SciTegic.value.DoubleValue
2.748

@<SCITEGIC>MOL_PROPERTY
Pdih
SciTegic.value.DoubleValue
11.238

@<SCITEGIC>MOL_PROPERTY
Idih
SciTegic.value.DoubleValue
0.001

@<SCITEGIC>MOL_PROPERTY
Tether
SciTegic.value.DoubleValue
0.000

@<TRIPOS>MOLECULE
guest-s20_confgen4.mol2 : confsearch ligand conformer 586
          17          16           1
SMALL
USER_CHARGES
 
@<TRIPOS>ATOM
       1    C1      19.781221   21.206922   24.589693 C.2        1 MOL1         0.6132
       2    O1      20.383737   22.261201   24.540408 O.co2      1 MOL1        -0.6749
       3    O2      19.674308   20.540679   25.600391 O.co2      1 MOL1        -0.6749
       4    C2      19.120354   20.697480   23.315595 C.3        1 MOL1        -0.1955
       5    H1      18.663680   21.555561   22.808983 H          1 MOL1         0.0733
       6    H2      18.304987   20.021035   23.598858 H          1 MOL1         0.0733
       7    C3      20.102104   20.007098   22.388079 C.2        1 MOL1        -0.1395
       8    H3      20.851211   20.656963   21.936731 H          1 MOL1         0.0816
       9    C4      20.087018   18.698258   22.118009 C.2        1 MOL1        -0.1394
      10    H4      19.339512   18.048501   22.572004 H          1 MOL1         0.0816
      11    C5      21.069108   18.010949   21.195822 C.3        1 MOL1        -0.1826
      12    H5      21.926516   18.666462   20.989970 H          1 MOL1         0.0736
      13    H6      21.469548   17.112228   21.684169 H          1 MOL1         0.0736
      14    C6      20.397468   17.616943   19.865890 C.3        1 MOL1        -0.2882
      15    H7      20.011369   18.503849   19.346343 H          1 MOL1         0.0749
      16    H8      21.114759   17.118132   19.201235 H          1 MOL1         0.0749
      17    H9      19.558813   16.929849   20.039062 H          1 MOL1         0.0749
@<TRIPOS>BOND
    1     1     2    1
    2     1     3    2
    3     1     4    1
    4     4     5    1
    5     4     6    1
    6     4     7    1
    7     7     8    1
    8     7     9    2
    9     9    10    1
   10     9    11    1
   11    11    12    1
   12    11    13    1
   13    11    14    1
   14    14    15    1
   15    14    16    1
   16    14    17    1
@<TRIPOS>SUBSTRUCTURE
       1 MOL1            1 RESIDUE      1      MOL     
@<SCITEGIC>MOL_PROPERTY
VConf Rank
SciTegic.value.IntegerValue
586

@<SCITEGIC>MOL_PROPERTY
Conf_Id
SciTegic.value.IntegerValue
38

@<SCITEGIC>MOL_PROPERTY
Delta U+W
SciTegic.value.DoubleValue
0.000

@<SCITEGIC>MOL_PROPERTY
U+W
SciTegic.value.DoubleValue
-49.427

@<SCITEGIC>MOL_PROPERTY
Grad RMS
SciTegic.value.DoubleValue
0.000000

@<SCITEGIC>MOL_PROPERTY
U
SciTegic.value.DoubleValue
13.666

@<SCITEGIC>MOL_PROPERTY
W
SciTegic.value.DoubleValue
-63.093

@<SCITEGIC>MOL_PROPERTY
W(PB)
SciTegic.value.DoubleValue
-65.225

@<SCITEGIC>MOL_PROPERTY
W(SA)
SciTegic.value.DoubleValue
2.132

@<SCITEGIC>MOL_PROPERTY
Valence
SciTegic.value.DoubleValue
15.226

@<SCITEGIC>MOL_PROPERTY
Coulomb
SciTegic.value.DoubleValue
-1.822

@<SCITEGIC>MOL_PROPERTY
VdW
SciTegic.value.DoubleValue
0.261

@<SCITEGIC>MOL_PROPERTY
VdW6
SciTegic.value.DoubleValue
-4.165

@<SCITEGIC>MOL_PROPERTY
VdW12
SciTegic.value.DoubleValue
4.426

@<SCITEGIC>MOL_PROPERTY
Bond
SciTegic.value.DoubleValue
0.044

@<SCITEGIC>MOL_PROPERTY
Angle
SciTegic.value.DoubleValue
2.229

@<SCITEGIC>MOL_PROPERTY
Pdih
SciTegic.value.DoubleValue
12.953

@<SCITEGIC>MOL_PROPERTY
Idih
SciTegic.value.DoubleValue
0.000

@<SCITEGIC>MOL_PROPERTY
Tether
SciTegic.value.DoubleValue
0.000

@<TRIPOS>MOLECULE
guest-s20_confgen4.mol2 : confsearch ligand conformer 587
          17          16           1
SMALL
USER_CHARGES
 
@<TRIPOS>ATOM
       1    C1      22.785791   18.784930   20.525635 C.2        1 MOL1         0.6132
       2    O1      23.590204   19.638717   20.843102 O.co2      1 MOL1        -0.6749
       3    O2      22.683369   18.344373   19.397637 O.co2      1 MOL1        -0.6749
       4    C2      21.858225   18.231618   21.599447 C.3        1 MOL1        -0.1955
       5    H1      22.332520   18.387137   22.575919 H          1 MOL1         0.0733
       6    H2      21.780758   17.148554   21.449514 H          1 MOL1         0.0733
       7    C3      20.479703   18.863040   21.557899 C.2        1 MOL1        -0.1395
       8    H3      19.881700   18.616949   20.680954 H          1 MOL1         0.0816
       9    C4      19.994808   19.671087   22.505614 C.2        1 MOL1        -0.1394
      10    H4      20.594535   19.919291   23.380705 H          1 MOL1         0.0816
      11    C5      18.621483   20.302966   22.460575 C.3        1 MOL1        -0.1826
      12    H5      18.699848   21.376213   22.680880 H          1 MOL1         0.0736
      13    H6      18.192362   20.218517   21.452636 H          1 MOL1         0.0736
      14    C6      17.672272   19.637975   23.476373 C.3        1 MOL1        -0.2882
      15    H7      18.058388   19.741085   24.498973 H          1 MOL1         0.0749
      16    H8      16.677664   20.101099   23.439559 H          1 MOL1         0.0749
      17    H9      17.557896   18.567553   23.260238 H          1 MOL1         0.0749
@<TRIPOS>BOND
    1     1     2    1
    2     1     3    2
    3     1     4    1
    4     4     5    1
    5     4     6    1
    6     4     7    1
    7     7     8    1
    8     7     9    2
    9     9    10    1
   10     9    11    1
   11    11    12    1
   12    11    13    1
   13    11    14    1
   14    14    15    1
   15    14    16    1
   16    14    17    1
@<TRIPOS>SUBSTRUCTURE
       1 MOL1            1 RESIDUE      1      MOL     
@<SCITEGIC>MOL_PROPERTY
VConf Rank
SciTegic.value.IntegerValue
587

@<SCITEGIC>MOL_PROPERTY
Conf_Id
SciTegic.value.IntegerValue
35

@<SCITEGIC>MOL_PROPERTY
Delta U+W
SciTegic.value.DoubleValue
-0.102

@<SCITEGIC>MOL_PROPERTY
U+W
SciTegic.value.DoubleValue
-49.529

@<SCITEGIC>MOL_PROPERTY
Grad RMS
SciTegic.value.DoubleValue
0.000000

@<SCITEGIC>MOL_PROPERTY
U
SciTegic.value.DoubleValue
13.666

@<SCITEGIC>MOL_PROPERTY
W
SciTegic.value.DoubleValue
-63.195

@<SCITEGIC>MOL_PROPERTY
W(PB)
SciTegic.value.DoubleValue
-65.299

@<SCITEGIC>MOL_PROPERTY
W(SA)
SciTegic.value.DoubleValue
2.103

@<SCITEGIC>MOL_PROPERTY
Valence
SciTegic.value.DoubleValue
15.226

@<SCITEGIC>MOL_PROPERTY
Coulomb
SciTegic.value.DoubleValue
-1.822

@<SCITEGIC>MOL_PROPERTY
VdW
SciTegic.value.DoubleValue
0.261

@<SCITEGIC>MOL_PROPERTY
VdW6
SciTegic.value.DoubleValue
-4.165

@<SCITEGIC>MOL_PROPERTY
VdW12
SciTegic.value.DoubleValue
4.426

@<SCITEGIC>MOL_PROPERTY
Bond
SciTegic.value.DoubleValue
0.044

@<SCITEGIC>MOL_PROPERTY
Angle
SciTegic.value.DoubleValue
2.229

@<SCITEGIC>MOL_PROPERTY
Pdih
SciTegic.value.DoubleValue
12.953

@<SCITEGIC>MOL_PROPERTY
Idih
SciTegic.value.DoubleValue
0.000

@<SCITEGIC>MOL_PROPERTY
Tether
SciTegic.value.DoubleValue
0.000

@<TRIPOS>MOLECULE
guest-s20_confgen4.mol2 : confsearch ligand conformer 588
          17          16           1
SMALL
USER_CHARGES
 
@<TRIPOS>ATOM
       1    C1      21.708512   21.566236   22.844797 C.2        1 MOL1         0.6132
       2    O1      21.446129   22.429778   22.030904 O.co2      1 MOL1        -0.6749
       3    O2      21.746455   21.761920   24.043595 O.co2      1 MOL1        -0.6749
       4    C2      22.015451   20.165453   22.331680 C.3        1 MOL1        -0.1955
       5    H1      22.626476   19.651201   23.083197 H          1 MOL1         0.0733
       6    H2      22.632691   20.266498   21.431505 H          1 MOL1         0.0733
       7    C3      20.759814   19.374892   22.015776 C.2        1 MOL1        -0.1395
       8    H3      20.188982   19.748733   21.167552 H          1 MOL1         0.0816
       9    C4      20.357448   18.302986   22.709916 C.2        1 MOL1        -0.1394
      10    H4      20.952650   17.960603   23.555843 H          1 MOL1         0.0816
      11    C5      19.113595   17.469335   22.452147 C.3        1 MOL1        -0.1826
      12    H5      19.411767   16.424969   22.288141 H          1 MOL1         0.0736
      13    H6      18.495936   17.460668   23.360411 H          1 MOL1         0.0736
      14    C6      18.249285   17.938728   21.261069 C.3        1 MOL1        -0.2882
      15    H7      18.820250   17.908403   20.323796 H          1 MOL1         0.0749
      16    H8      17.372827   17.288636   21.141771 H          1 MOL1         0.0749
      17    H9      17.888595   18.964083   21.416118 H          1 MOL1         0.0749
@<TRIPOS>BOND
    1     1     2    1
    2     1     3    2
    3     1     4    1
    4     4     5    1
    5     4     6    1
    6     4     7    1
    7     7     8    1
    8     7     9    2
    9     9    10    1
   10     9    11    1
   11    11    12    1
   12    11    13    1
   13    11    14    1
   14    14    15    1
   15    14    16    1
   16    14    17    1
@<TRIPOS>SUBSTRUCTURE
       1 MOL1            1 RESIDUE      1      MOL     
@<SCITEGIC>MOL_PROPERTY
VConf Rank
SciTegic.value.IntegerValue
588

@<SCITEGIC>MOL_PROPERTY
Conf_Id
SciTegic.value.IntegerValue
19

@<SCITEGIC>MOL_PROPERTY
Delta U+W
SciTegic.value.DoubleValue
-0.496

@<SCITEGIC>MOL_PROPERTY
U+W
SciTegic.value.DoubleValue
-49.923

@<SCITEGIC>MOL_PROPERTY
Grad RMS
SciTegic.value.DoubleValue
0.000000

@<SCITEGIC>MOL_PROPERTY
U
SciTegic.value.DoubleValue
13.863

@<SCITEGIC>MOL_PROPERTY
W
SciTegic.value.DoubleValue
-63.786

@<SCITEGIC>MOL_PROPERTY
W(PB)
SciTegic.value.DoubleValue
-65.856

@<SCITEGIC>MOL_PROPERTY
W(SA)
SciTegic.value.DoubleValue
2.070

@<SCITEGIC>MOL_PROPERTY
Valence
SciTegic.value.DoubleValue
14.117

@<SCITEGIC>MOL_PROPERTY
Coulomb
SciTegic.value.DoubleValue
-1.228

@<SCITEGIC>MOL_PROPERTY
VdW
SciTegic.value.DoubleValue
0.974

@<SCITEGIC>MOL_PROPERTY
VdW6
SciTegic.value.DoubleValue
-4.885

@<SCITEGIC>MOL_PROPERTY
VdW12
SciTegic.value.DoubleValue
5.859

@<SCITEGIC>MOL_PROPERTY
Bond
SciTegic.value.DoubleValue
0.094

@<SCITEGIC>MOL_PROPERTY
Angle
SciTegic.value.DoubleValue
2.818

@<SCITEGIC>MOL_PROPERTY
Pdih
SciTegic.value.DoubleValue
11.205

@<SCITEGIC>MOL_PROPERTY
Idih
SciTegic.value.DoubleValue
0.000

@<SCITEGIC>MOL_PROPERTY
Tether
SciTegic.value.DoubleValue
0.000

@<TRIPOS>MOLECULE
guest-s20_confgen4.mol2 : confsearch ligand conformer 589
          17          16           1
SMALL
USER_CHARGES
 
@<TRIPOS>ATOM
       1    C1      21.124181   17.537082   19.898217 C.2        1 MOL1         0.6132
       2    O1      22.128171   17.011391   20.336926 O.co2      1 MOL1        -0.6749
       3    O2      20.283507   16.944612   19.250723 O.co2      1 MOL1        -0.6749
       4    C2      20.910968   19.021597   20.163893 C.3        1 MOL1        -0.1955
       5    H1      20.533466   19.475919   19.240547 H          1 MOL1         0.0733
       6    H2      21.887077   19.477035   20.369907 H          1 MOL1         0.0733
       7    C3      19.941767   19.274475   21.302956 C.2        1 MOL1        -0.1395
       8    H3      18.909154   18.986920   21.107410 H          1 MOL1         0.0816
       9    C4      20.288234   19.802321   22.480901 C.2        1 MOL1        -0.1394
      10    H4      21.321897   20.084904   22.677743 H          1 MOL1         0.0816
      11    C5      19.320756   20.050943   23.616467 C.3        1 MOL1        -0.1826
      12    H5      19.456512   21.070058   24.003115 H          1 MOL1         0.0736
      13    H6      18.283766   19.984553   23.259460 H          1 MOL1         0.0736
      14    C6      19.533276   19.036161   24.756662 C.3        1 MOL1        -0.2882
      15    H7      20.552101   19.107441   25.159576 H          1 MOL1         0.0749
      16    H8      18.828448   19.220839   25.577745 H          1 MOL1         0.0749
      17    H9      19.378293   18.009757   24.398674 H          1 MOL1         0.0749
@<TRIPOS>BOND
    1     1     2    1
    2     1     3    2
    3     1     4    1
    4     4     5    1
    5     4     6    1
    6     4     7    1
    7     7     8    1
    8     7     9    2
    9     9    10    1
   10     9    11    1
   11    11    12    1
   12    11    13    1
   13    11    14    1
   14    14    15    1
   15    14    16    1
   16    14    17    1
@<TRIPOS>SUBSTRUCTURE
       1 MOL1            1 RESIDUE      1      MOL     
@<SCITEGIC>MOL_PROPERTY
VConf Rank
SciTegic.value.IntegerValue
589

@<SCITEGIC>MOL_PROPERTY
Conf_Id
SciTegic.value.IntegerValue
7

@<SCITEGIC>MOL_PROPERTY
Delta U+W
SciTegic.value.DoubleValue
-0.041

@<SCITEGIC>MOL_PROPERTY
U+W
SciTegic.value.DoubleValue
-49.468

@<SCITEGIC>MOL_PROPERTY
Grad RMS
SciTegic.value.DoubleValue
0.000000

@<SCITEGIC>MOL_PROPERTY
U
SciTegic.value.DoubleValue
14.121

@<SCITEGIC>MOL_PROPERTY
W
SciTegic.value.DoubleValue
-63.589

@<SCITEGIC>MOL_PROPERTY
W(PB)
SciTegic.value.DoubleValue
-65.660

@<SCITEGIC>MOL_PROPERTY
W(SA)
SciTegic.value.DoubleValue
2.071

@<SCITEGIC>MOL_PROPERTY
Valence
SciTegic.value.DoubleValue
15.230

@<SCITEGIC>MOL_PROPERTY
Coulomb
SciTegic.value.DoubleValue
-1.333

@<SCITEGIC>MOL_PROPERTY
VdW
SciTegic.value.DoubleValue
0.224

@<SCITEGIC>MOL_PROPERTY
VdW6
SciTegic.value.DoubleValue
-4.212

@<SCITEGIC>MOL_PROPERTY
VdW12
SciTegic.value.DoubleValue
4.436

@<SCITEGIC>MOL_PROPERTY
Bond
SciTegic.value.DoubleValue
0.044

@<SCITEGIC>MOL_PROPERTY
Angle
SciTegic.value.DoubleValue
2.230

@<SCITEGIC>MOL_PROPERTY
Pdih
SciTegic.value.DoubleValue
12.956

@<SCITEGIC>MOL_PROPERTY
Idih
SciTegic.value.DoubleValue
0.000

@<SCITEGIC>MOL_PROPERTY
Tether
SciTegic.value.DoubleValue
0.000

@<TRIPOS>MOLECULE
guest-s20_confgen4.mol2 : confsearch ligand conformer 590
          17          16           1
SMALL
USER_CHARGES
 
@<TRIPOS>ATOM
       1    C1      17.460230   18.716527   21.829669 C.2        1 MOL1         0.6132
       2    O1      17.046217   18.664193   22.971092 O.co2      1 MOL1        -0.6749
       3    O2      17.304306   17.825893   21.017548 O.co2      1 MOL1        -0.6749
       4    C2      18.190660   19.979602   21.383923 C.3        1 MOL1        -0.1955
       5    H1      17.761814   20.827027   21.931398 H          1 MOL1         0.0733
       6    H2      17.951334   20.150823   20.327927 H          1 MOL1         0.0733
       7    C3      19.701443   19.964838   21.568841 C.2        1 MOL1        -0.1395
       8    H3      20.202885   20.875739   21.244246 H          1 MOL1         0.0816
       9    C4      20.421617   18.959355   22.080065 C.2        1 MOL1        -0.1394
      10    H4      19.944915   18.038138   22.413002 H          1 MOL1         0.0816
      11    C5      21.925178   18.994651   22.241311 C.3        1 MOL1        -0.1826
      12    H5      22.362022   18.067747   21.845668 H          1 MOL1         0.0736
      13    H6      22.355881   19.820030   21.657874 H          1 MOL1         0.0736
      14    C6      22.319461   19.157029   23.722261 C.3        1 MOL1        -0.2882
      15    H7      23.411310   19.180615   23.833476 H          1 MOL1         0.0749
      16    H8      21.914637   20.091301   24.133173 H          1 MOL1         0.0749
      17    H9      21.933497   18.323565   24.323782 H          1 MOL1         0.0749
@<TRIPOS>BOND
    1     1     2    1
    2     1     3    2
    3     1     4    1
    4     4     5    1
    5     4     6    1
    6     4     7    1
    7     7     8    1
    8     7     9    2
    9     9    10    1
   10     9    11    1
   11    11    12    1
   12    11    13    1
   13    11    14    1
   14    14    15    1
   15    14    16    1
   16    14    17    1
@<TRIPOS>SUBSTRUCTURE
       1 MOL1            1 RESIDUE      1      MOL     
@<SCITEGIC>MOL_PROPERTY
VConf Rank
SciTegic.value.IntegerValue
590

@<SCITEGIC>MOL_PROPERTY
Conf_Id
SciTegic.value.IntegerValue
39

@<SCITEGIC>MOL_PROPERTY
Delta U+W
SciTegic.value.DoubleValue
-0.422

@<SCITEGIC>MOL_PROPERTY
U+W
SciTegic.value.DoubleValue
-49.849

@<SCITEGIC>MOL_PROPERTY
Grad RMS
SciTegic.value.DoubleValue
0.000000

@<SCITEGIC>MOL_PROPERTY
U
SciTegic.value.DoubleValue
14.465

@<SCITEGIC>MOL_PROPERTY
W
SciTegic.value.DoubleValue
-64.314

@<SCITEGIC>MOL_PROPERTY
W(PB)
SciTegic.value.DoubleValue
-66.406

@<SCITEGIC>MOL_PROPERTY
W(SA)
SciTegic.value.DoubleValue
2.093

@<SCITEGIC>MOL_PROPERTY
Valence
SciTegic.value.DoubleValue
14.072

@<SCITEGIC>MOL_PROPERTY
Coulomb
SciTegic.value.DoubleValue
-0.199

@<SCITEGIC>MOL_PROPERTY
VdW
SciTegic.value.DoubleValue
0.592

@<SCITEGIC>MOL_PROPERTY
VdW6
SciTegic.value.DoubleValue
-5.019

@<SCITEGIC>MOL_PROPERTY
VdW12
SciTegic.value.DoubleValue
5.611

@<SCITEGIC>MOL_PROPERTY
Bond
SciTegic.value.DoubleValue
0.085

@<SCITEGIC>MOL_PROPERTY
Angle
SciTegic.value.DoubleValue
2.748

@<SCITEGIC>MOL_PROPERTY
Pdih
SciTegic.value.DoubleValue
11.238

@<SCITEGIC>MOL_PROPERTY
Idih
SciTegic.value.DoubleValue
0.001

@<SCITEGIC>MOL_PROPERTY
Tether
SciTegic.value.DoubleValue
0.000

@<TRIPOS>MOLECULE
guest-s20_confgen4.mol2 : confsearch ligand conformer 591
          17          16           1
SMALL
USER_CHARGES
 
@<TRIPOS>ATOM
       1    C1      21.055764   22.116480   23.124789 C.2        1 MOL1         0.6132
       2    O1      22.044911   22.581906   22.593821 O.co2      1 MOL1        -0.6749
       3    O2      20.825058   22.209236   24.314322 O.co2      1 MOL1        -0.6749
       4    C2      20.049157   21.382074   22.249008 C.3        1 MOL1        -0.1955
       5    H1      19.944129   21.945580   21.314696 H          1 MOL1         0.0733
       6    H2      19.074363   21.408328   22.750731 H          1 MOL1         0.0733
       7    C3      20.469576   19.955230   21.952172 C.2        1 MOL1        -0.1395
       8    H3      21.347959   19.852053   21.315775 H          1 MOL1         0.0816
       9    C4      19.838350   18.873650   22.419038 C.2        1 MOL1        -0.1394
      10    H4      18.961843   18.977563   23.057786 H          1 MOL1         0.0816
      11    C5      20.261250   17.451656   22.125081 C.3        1 MOL1        -0.1826
      12    H5      21.276043   17.431605   21.704350 H          1 MOL1         0.0736
      13    H6      20.295822   16.874609   23.059082 H          1 MOL1         0.0736
      14    C6      19.287236   16.776591   21.139869 C.3        1 MOL1        -0.2882
      15    H7      19.255303   17.322340   20.187640 H          1 MOL1         0.0749
      16    H8      19.598890   15.744939   20.930937 H          1 MOL1         0.0749
      17    H9      18.270056   16.748270   21.552145 H          1 MOL1         0.0749
@<TRIPOS>BOND
    1     1     2    1
    2     1     3    2
    3     1     4    1
    4     4     5    1
    5     4     6    1
    6     4     7    1
    7     7     8    1
    8     7     9    2
    9     9    10    1
   10     9    11    1
   11    11    12    1
   12    11    13    1
   13    11    14    1
   14    14    15    1
   15    14    16    1
   16    14    17    1
@<TRIPOS>SUBSTRUCTURE
       1 MOL1            1 RESIDUE      1      MOL     
@<SCITEGIC>MOL_PROPERTY
VConf Rank
SciTegic.value.IntegerValue
591

@<SCITEGIC>MOL_PROPERTY
Conf_Id
SciTegic.value.IntegerValue
38

@<SCITEGIC>MOL_PROPERTY
Delta U+W
SciTegic.value.DoubleValue
0.000

@<SCITEGIC>MOL_PROPERTY
U+W
SciTegic.value.DoubleValue
-49.427

@<SCITEGIC>MOL_PROPERTY
Grad RMS
SciTegic.value.DoubleValue
0.000000

@<SCITEGIC>MOL_PROPERTY
U
SciTegic.value.DoubleValue
13.666

@<SCITEGIC>MOL_PROPERTY
W
SciTegic.value.DoubleValue
-63.093

@<SCITEGIC>MOL_PROPERTY
W(PB)
SciTegic.value.DoubleValue
-65.225

@<SCITEGIC>MOL_PROPERTY
W(SA)
SciTegic.value.DoubleValue
2.132

@<SCITEGIC>MOL_PROPERTY
Valence
SciTegic.value.DoubleValue
15.226

@<SCITEGIC>MOL_PROPERTY
Coulomb
SciTegic.value.DoubleValue
-1.822

@<SCITEGIC>MOL_PROPERTY
VdW
SciTegic.value.DoubleValue
0.261

@<SCITEGIC>MOL_PROPERTY
VdW6
SciTegic.value.DoubleValue
-4.165

@<SCITEGIC>MOL_PROPERTY
VdW12
SciTegic.value.DoubleValue
4.426

@<SCITEGIC>MOL_PROPERTY
Bond
SciTegic.value.DoubleValue
0.044

@<SCITEGIC>MOL_PROPERTY
Angle
SciTegic.value.DoubleValue
2.229

@<SCITEGIC>MOL_PROPERTY
Pdih
SciTegic.value.DoubleValue
12.953

@<SCITEGIC>MOL_PROPERTY
Idih
SciTegic.value.DoubleValue
0.000

@<SCITEGIC>MOL_PROPERTY
Tether
SciTegic.value.DoubleValue
0.000

@<TRIPOS>MOLECULE
guest-s20_confgen4.mol2 : confsearch ligand conformer 592
          17          16           1
SMALL
USER_CHARGES
 
@<TRIPOS>ATOM
       1    C1      22.607054   19.521609   20.208647 C.2        1 MOL1         0.6132
       2    O1      22.481693   18.753097   19.275645 O.co2      1 MOL1        -0.6749
       3    O2      23.670586   19.755842   20.748086 O.co2      1 MOL1        -0.6749
       4    C2      21.365956   20.235248   20.728263 C.3        1 MOL1        -0.1955
       5    H1      20.623110   20.262660   19.921995 H          1 MOL1         0.0733
       6    H2      21.642602   21.273568   20.944744 H          1 MOL1         0.0733
       7    C3      20.795646   19.578352   21.970832 C.2        1 MOL1        -0.1395
       8    H3      21.415582   19.654989   22.863585 H          1 MOL1         0.0816
       9    C4      19.622764   18.938870   22.011314 C.2        1 MOL1        -0.1394
      10    H4      19.004837   18.859863   21.117455 H          1 MOL1         0.0816
      11    C5      19.057505   18.281018   23.250280 C.3        1 MOL1        -0.1826
      12    H5      18.718262   17.264691   23.008358 H          1 MOL1         0.0736
      13    H6      19.834873   18.179062   24.020035 H          1 MOL1         0.0736
      14    C6      17.878851   19.094000   23.820277 C.3        1 MOL1        -0.2882
      15    H7      17.069238   19.179276   23.083607 H          1 MOL1         0.0749
      16    H8      17.472462   18.611418   24.718635 H          1 MOL1         0.0749
      17    H9      18.200504   20.107543   24.093900 H          1 MOL1         0.0749
@<TRIPOS>BOND
    1     1     2    1
    2     1     3    2
    3     1     4    1
    4     4     5    1
    5     4     6    1
    6     4     7    1
    7     7     8    1
    8     7     9    2
    9     9    10    1
   10     9    11    1
   11    11    12    1
   12    11    13    1
   13    11    14    1
   14    14    15    1
   15    14    16    1
   16    14    17    1
@<TRIPOS>SUBSTRUCTURE
       1 MOL1            1 RESIDUE      1      MOL     
@<SCITEGIC>MOL_PROPERTY
VConf Rank
SciTegic.value.IntegerValue
592

@<SCITEGIC>MOL_PROPERTY
Conf_Id
SciTegic.value.IntegerValue
35

@<SCITEGIC>MOL_PROPERTY
Delta U+W
SciTegic.value.DoubleValue
-0.102

@<SCITEGIC>MOL_PROPERTY
U+W
SciTegic.value.DoubleValue
-49.529

@<SCITEGIC>MOL_PROPERTY
Grad RMS
SciTegic.value.DoubleValue
0.000000

@<SCITEGIC>MOL_PROPERTY
U
SciTegic.value.DoubleValue
13.666

@<SCITEGIC>MOL_PROPERTY
W
SciTegic.value.DoubleValue
-63.195

@<SCITEGIC>MOL_PROPERTY
W(PB)
SciTegic.value.DoubleValue
-65.299

@<SCITEGIC>MOL_PROPERTY
W(SA)
SciTegic.value.DoubleValue
2.103

@<SCITEGIC>MOL_PROPERTY
Valence
SciTegic.value.DoubleValue
15.226

@<SCITEGIC>MOL_PROPERTY
Coulomb
SciTegic.value.DoubleValue
-1.822

@<SCITEGIC>MOL_PROPERTY
VdW
SciTegic.value.DoubleValue
0.261

@<SCITEGIC>MOL_PROPERTY
VdW6
SciTegic.value.DoubleValue
-4.165

@<SCITEGIC>MOL_PROPERTY
VdW12
SciTegic.value.DoubleValue
4.426

@<SCITEGIC>MOL_PROPERTY
Bond
SciTegic.value.DoubleValue
0.044

@<SCITEGIC>MOL_PROPERTY
Angle
SciTegic.value.DoubleValue
2.229

@<SCITEGIC>MOL_PROPERTY
Pdih
SciTegic.value.DoubleValue
12.953

@<SCITEGIC>MOL_PROPERTY
Idih
SciTegic.value.DoubleValue
0.000

@<SCITEGIC>MOL_PROPERTY
Tether
SciTegic.value.DoubleValue
0.000

@<TRIPOS>MOLECULE
guest-s20_confgen4.mol2 : confsearch ligand conformer 593
          17          16           1
SMALL
USER_CHARGES
 
@<TRIPOS>ATOM
       1    C1      20.973251   21.502543   20.665303 C.2        1 MOL1         0.6132
       2    O1      20.634124   21.373249   19.505456 O.co2      1 MOL1        -0.6749
       3    O2      20.790298   22.516387   21.309894 O.co2      1 MOL1        -0.6749
       4    C2      21.674000   20.332427   21.343147 C.3        1 MOL1        -0.1955
       5    H1      22.274362   20.725884   22.172208 H          1 MOL1         0.0733
       6    H2      22.373036   19.896500   20.620079 H          1 MOL1         0.0733
       7    C3      20.700485   19.275035   21.828531 C.2        1 MOL1        -0.1395
       8    H3      20.185956   18.733482   21.036655 H          1 MOL1         0.0816
       9    C4      20.467586   19.010572   23.120247 C.2        1 MOL1        -0.1394
      10    H4      20.998409   19.576501   23.885122 H          1 MOL1         0.0816
      11    C5      19.507206   17.972174   23.675215 C.3        1 MOL1        -0.1826
      12    H5      20.064716   17.278859   24.319422 H          1 MOL1         0.0736
      13    H6      18.784720   18.471567   24.334868 H          1 MOL1         0.0736
      14    C6      18.737578   17.160482   22.609919 C.3        1 MOL1        -0.2882
      15    H7      19.428626   16.603087   21.964036 H          1 MOL1         0.0749
      16    H8      18.066711   16.435545   23.088911 H          1 MOL1         0.0749
      17    H9      18.125800   17.818826   21.979205 H          1 MOL1         0.0749
@<TRIPOS>BOND
    1     1     2    1
    2     1     3    2
    3     1     4    1
    4     4     5    1
    5     4     6    1
    6     4     7    1
    7     7     8    1
    8     7     9    2
    9     9    10    1
   10     9    11    1
   11    11    12    1
   12    11    13    1
   13    11    14    1
   14    14    15    1
   15    14    16    1
   16    14    17    1
@<TRIPOS>SUBSTRUCTURE
       1 MOL1            1 RESIDUE      1      MOL     
@<SCITEGIC>MOL_PROPERTY
VConf Rank
SciTegic.value.IntegerValue
593

@<SCITEGIC>MOL_PROPERTY
Conf_Id
SciTegic.value.IntegerValue
19

@<SCITEGIC>MOL_PROPERTY
Delta U+W
SciTegic.value.DoubleValue
-0.496

@<SCITEGIC>MOL_PROPERTY
U+W
SciTegic.value.DoubleValue
-49.923

@<SCITEGIC>MOL_PROPERTY
Grad RMS
SciTegic.value.DoubleValue
0.000000

@<SCITEGIC>MOL_PROPERTY
U
SciTegic.value.DoubleValue
13.863

@<SCITEGIC>MOL_PROPERTY
W
SciTegic.value.DoubleValue
-63.786

@<SCITEGIC>MOL_PROPERTY
W(PB)
SciTegic.value.DoubleValue
-65.856

@<SCITEGIC>MOL_PROPERTY
W(SA)
SciTegic.value.DoubleValue
2.070

@<SCITEGIC>MOL_PROPERTY
Valence
SciTegic.value.DoubleValue
14.117

@<SCITEGIC>MOL_PROPERTY
Coulomb
SciTegic.value.DoubleValue
-1.228

@<SCITEGIC>MOL_PROPERTY
VdW
SciTegic.value.DoubleValue
0.974

@<SCITEGIC>MOL_PROPERTY
VdW6
SciTegic.value.DoubleValue
-4.885

@<SCITEGIC>MOL_PROPERTY
VdW12
SciTegic.value.DoubleValue
5.859

@<SCITEGIC>MOL_PROPERTY
Bond
SciTegic.value.DoubleValue
0.094

@<SCITEGIC>MOL_PROPERTY
Angle
SciTegic.value.DoubleValue
2.818

@<SCITEGIC>MOL_PROPERTY
Pdih
SciTegic.value.DoubleValue
11.205

@<SCITEGIC>MOL_PROPERTY
Idih
SciTegic.value.DoubleValue
0.000

@<SCITEGIC>MOL_PROPERTY
Tether
SciTegic.value.DoubleValue
0.000

@<TRIPOS>MOLECULE
guest-s20_confgen4.mol2 : confsearch ligand conformer 594
          17          16           1
SMALL
USER_CHARGES
 
@<TRIPOS>ATOM
       1    C1      18.023919   19.173792   20.198230 C.2        1 MOL1         0.6132
       2    O1      18.617974   19.566405   19.213462 O.co2      1 MOL1        -0.6749
       3    O2      17.243110   18.242572   20.185214 O.co2      1 MOL1        -0.6749
       4    C2      18.261097   19.893194   21.519606 C.3        1 MOL1        -0.1955
       5    H1      17.291411   20.005526   22.018180 H          1 MOL1         0.0733
       6    H2      18.627742   20.903053   21.299580 H          1 MOL1         0.0733
       7    C3      19.227202   19.148471   22.421156 C.2        1 MOL1        -0.1395
       8    H3      18.862750   18.197516   22.808551 H          1 MOL1         0.0816
       9    C4      20.449633   19.586729   22.737082 C.2        1 MOL1        -0.1394
      10    H4      20.815502   20.535244   22.345267 H          1 MOL1         0.0816
      11    C5      21.412541   18.841167   23.633899 C.3        1 MOL1        -0.1826
      12    H5      21.823186   19.526101   24.388061 H          1 MOL1         0.0736
      13    H6      20.889616   18.045337   24.181997 H          1 MOL1         0.0736
      14    C6      22.565202   18.225119   22.817290 C.3        1 MOL1        -0.2882
      15    H7      23.130461   19.003816   22.288576 H          1 MOL1         0.0749
      16    H8      23.260610   17.684987   23.472830 H          1 MOL1         0.0749
      17    H9      22.179620   17.516980   22.071939 H          1 MOL1         0.0749
@<TRIPOS>BOND
    1     1     2    1
    2     1     3    2
    3     1     4    1
    4     4     5    1
    5     4     6    1
    6     4     7    1
    7     7     8    1
    8     7     9    2
    9     9    10    1
   10     9    11    1
   11    11    12    1
   12    11    13    1
   13    11    14    1
   14    14    15    1
   15    14    16    1
   16    14    17    1
@<TRIPOS>SUBSTRUCTURE
       1 MOL1            1 RESIDUE      1      MOL     
@<SCITEGIC>MOL_PROPERTY
VConf Rank
SciTegic.value.IntegerValue
594

@<SCITEGIC>MOL_PROPERTY
Conf_Id
SciTegic.value.IntegerValue
7

@<SCITEGIC>MOL_PROPERTY
Delta U+W
SciTegic.value.DoubleValue
-0.041

@<SCITEGIC>MOL_PROPERTY
U+W
SciTegic.value.DoubleValue
-49.468

@<SCITEGIC>MOL_PROPERTY
Grad RMS
SciTegic.value.DoubleValue
0.000000

@<SCITEGIC>MOL_PROPERTY
U
SciTegic.value.DoubleValue
14.121

@<SCITEGIC>MOL_PROPERTY
W
SciTegic.value.DoubleValue
-63.589

@<SCITEGIC>MOL_PROPERTY
W(PB)
SciTegic.value.DoubleValue
-65.660

@<SCITEGIC>MOL_PROPERTY
W(SA)
SciTegic.value.DoubleValue
2.071

@<SCITEGIC>MOL_PROPERTY
Valence
SciTegic.value.DoubleValue
15.230

@<SCITEGIC>MOL_PROPERTY
Coulomb
SciTegic.value.DoubleValue
-1.333

@<SCITEGIC>MOL_PROPERTY
VdW
SciTegic.value.DoubleValue
0.224

@<SCITEGIC>MOL_PROPERTY
VdW6
SciTegic.value.DoubleValue
-4.212

@<SCITEGIC>MOL_PROPERTY
VdW12
SciTegic.value.DoubleValue
4.436

@<SCITEGIC>MOL_PROPERTY
Bond
SciTegic.value.DoubleValue
0.044

@<SCITEGIC>MOL_PROPERTY
Angle
SciTegic.value.DoubleValue
2.230

@<SCITEGIC>MOL_PROPERTY
Pdih
SciTegic.value.DoubleValue
12.956

@<SCITEGIC>MOL_PROPERTY
Idih
SciTegic.value.DoubleValue
0.000

@<SCITEGIC>MOL_PROPERTY
Tether
SciTegic.value.DoubleValue
0.000

@<TRIPOS>MOLECULE
guest-s20_confgen4.mol2 : confsearch ligand conformer 595
          17          16           1
SMALL
USER_CHARGES
 
@<TRIPOS>ATOM
       1    C1      22.275567   21.004186   22.108410 C.2        1 MOL1         0.6132
       2    O1      21.750360   22.051800   22.430367 O.co2      1 MOL1        -0.6749
       3    O2      22.907851   20.858255   21.080790 O.co2      1 MOL1        -0.6749
       4    C2      22.158548   19.816148   23.058384 C.3        1 MOL1        -0.1955
       5    H1      22.121324   20.206519   24.082099 H          1 MOL1         0.0733
       6    H2      23.087749   19.238581   22.989668 H          1 MOL1         0.0733
       7    C3      20.968245   18.898149   22.818946 C.2        1 MOL1        -0.1395
       8    H3      20.903817   18.056809   23.507816 H          1 MOL1         0.0816
       9    C4      20.038740   19.047110   21.867722 C.2        1 MOL1        -0.1394
      10    H4      20.079279   19.880018   21.166756 H          1 MOL1         0.0816
      11    C5      18.873397   18.103082   21.670922 C.3        1 MOL1        -0.1826
      12    H5      18.792154   17.831044   20.609831 H          1 MOL1         0.0736
      13    H6      19.037378   17.168127   22.224207 H          1 MOL1         0.0736
      14    C6      17.553860   18.747498   22.138454 C.3        1 MOL1        -0.2882
      15    H7      16.711672   18.058765   21.992076 H          1 MOL1         0.0749
      16    H8      17.602272   19.005104   23.204705 H          1 MOL1         0.0749
      17    H9      17.345194   19.665878   21.574101 H          1 MOL1         0.0749
@<TRIPOS>BOND
    1     1     2    1
    2     1     3    2
    3     1     4    1
    4     4     5    1
    5     4     6    1
    6     4     7    1
    7     7     8    1
    8     7     9    2
    9     9    10    1
   10     9    11    1
   11    11    12    1
   12    11    13    1
   13    11    14    1
   14    14    15    1
   15    14    16    1
   16    14    17    1
@<TRIPOS>SUBSTRUCTURE
       1 MOL1            1 RESIDUE      1      MOL     
@<SCITEGIC>MOL_PROPERTY
VConf Rank
SciTegic.value.IntegerValue
595

@<SCITEGIC>MOL_PROPERTY
Conf_Id
SciTegic.value.IntegerValue
39

@<SCITEGIC>MOL_PROPERTY
Delta U+W
SciTegic.value.DoubleValue
-0.422

@<SCITEGIC>MOL_PROPERTY
U+W
SciTegic.value.DoubleValue
-49.849

@<SCITEGIC>MOL_PROPERTY
Grad RMS
SciTegic.value.DoubleValue
0.000000

@<SCITEGIC>MOL_PROPERTY
U
SciTegic.value.DoubleValue
14.465

@<SCITEGIC>MOL_PROPERTY
W
SciTegic.value.DoubleValue
-64.314

@<SCITEGIC>MOL_PROPERTY
W(PB)
SciTegic.value.DoubleValue
-66.406

@<SCITEGIC>MOL_PROPERTY
W(SA)
SciTegic.value.DoubleValue
2.093

@<SCITEGIC>MOL_PROPERTY
Valence
SciTegic.value.DoubleValue
14.072

@<SCITEGIC>MOL_PROPERTY
Coulomb
SciTegic.value.DoubleValue
-0.199

@<SCITEGIC>MOL_PROPERTY
VdW
SciTegic.value.DoubleValue
0.592

@<SCITEGIC>MOL_PROPERTY
VdW6
SciTegic.value.DoubleValue
-5.019

@<SCITEGIC>MOL_PROPERTY
VdW12
SciTegic.value.DoubleValue
5.611

@<SCITEGIC>MOL_PROPERTY
Bond
SciTegic.value.DoubleValue
0.085

@<SCITEGIC>MOL_PROPERTY
Angle
SciTegic.value.DoubleValue
2.748

@<SCITEGIC>MOL_PROPERTY
Pdih
SciTegic.value.DoubleValue
11.238

@<SCITEGIC>MOL_PROPERTY
Idih
SciTegic.value.DoubleValue
0.001

@<SCITEGIC>MOL_PROPERTY
Tether
SciTegic.value.DoubleValue
0.000

@<TRIPOS>MOLECULE
guest-s20_confgen4.mol2 : confsearch ligand conformer 596
          17          16           1
SMALL
USER_CHARGES
 
@<TRIPOS>ATOM
       1    C1      17.955936   19.847673   24.352827 C.2        1 MOL1         0.6132
       2    O1      18.382977   20.167042   25.444889 O.co2      1 MOL1        -0.6749
       3    O2      17.007155   19.105286   24.193156 O.co2      1 MOL1        -0.6749
       4    C2      18.645472   20.414106   23.118608 C.3        1 MOL1        -0.1955
       5    H1      18.879390   21.466115   23.318779 H          1 MOL1         0.0733
       6    H2      17.929989   20.397091   22.287684 H          1 MOL1         0.0733
       7    C3      19.911056   19.657946   22.761866 C.2        1 MOL1        -0.1395
       8    H3      20.731134   19.762796   23.471571 H          1 MOL1         0.0816
       9    C4      20.052214   18.903825   21.667515 C.2        1 MOL1        -0.1394
      10    H4      19.230769   18.797022   20.959785 H          1 MOL1         0.0816
      11    C5      21.313673   18.147505   21.315347 C.3        1 MOL1        -0.1826
      12    H5      21.985166   18.094634   22.183404 H          1 MOL1         0.0736
      13    H6      21.062624   17.112232   21.047544 H          1 MOL1         0.0736
      14    C6      22.051405   18.817752   20.139940 C.3        1 MOL1        -0.2882
      15    H7      22.335713   19.847347   20.394311 H          1 MOL1         0.0749
      16    H8      22.965444   18.264178   19.888593 H          1 MOL1         0.0749
      17    H9      21.415595   18.849561   19.245422 H          1 MOL1         0.0749
@<TRIPOS>BOND
    1     1     2    1
    2     1     3    2
    3     1     4    1
    4     4     5    1
    5     4     6    1
    6     4     7    1
    7     7     8    1
    8     7     9    2
    9     9    10    1
   10     9    11    1
   11    11    12    1
   12    11    13    1
   13    11    14    1
   14    14    15    1
   15    14    16    1
   16    14    17    1
@<TRIPOS>SUBSTRUCTURE
       1 MOL1            1 RESIDUE      1      MOL     
@<SCITEGIC>MOL_PROPERTY
VConf Rank
SciTegic.value.IntegerValue
596

@<SCITEGIC>MOL_PROPERTY
Conf_Id
SciTegic.value.IntegerValue
38

@<SCITEGIC>MOL_PROPERTY
Delta U+W
SciTegic.value.DoubleValue
0.000

@<SCITEGIC>MOL_PROPERTY
U+W
SciTegic.value.DoubleValue
-49.427

@<SCITEGIC>MOL_PROPERTY
Grad RMS
SciTegic.value.DoubleValue
0.000000

@<SCITEGIC>MOL_PROPERTY
U
SciTegic.value.DoubleValue
13.666

@<SCITEGIC>MOL_PROPERTY
W
SciTegic.value.DoubleValue
-63.093

@<SCITEGIC>MOL_PROPERTY
W(PB)
SciTegic.value.DoubleValue
-65.225

@<SCITEGIC>MOL_PROPERTY
W(SA)
SciTegic.value.DoubleValue
2.132

@<SCITEGIC>MOL_PROPERTY
Valence
SciTegic.value.DoubleValue
15.226

@<SCITEGIC>MOL_PROPERTY
Coulomb
SciTegic.value.DoubleValue
-1.822

@<SCITEGIC>MOL_PROPERTY
VdW
SciTegic.value.DoubleValue
0.261

@<SCITEGIC>MOL_PROPERTY
VdW6
SciTegic.value.DoubleValue
-4.165

@<SCITEGIC>MOL_PROPERTY
VdW12
SciTegic.value.DoubleValue
4.426

@<SCITEGIC>MOL_PROPERTY
Bond
SciTegic.value.DoubleValue
0.044

@<SCITEGIC>MOL_PROPERTY
Angle
SciTegic.value.DoubleValue
2.229

@<SCITEGIC>MOL_PROPERTY
Pdih
SciTegic.value.DoubleValue
12.953

@<SCITEGIC>MOL_PROPERTY
Idih
SciTegic.value.DoubleValue
0.000

@<SCITEGIC>MOL_PROPERTY
Tether
SciTegic.value.DoubleValue
0.000

@<TRIPOS>MOLECULE
guest-s20_confgen4.mol2 : confsearch ligand conformer 597
          17          16           1
SMALL
USER_CHARGES
 
@<TRIPOS>ATOM
       1    C1      20.578386   20.509294   19.235785 C.2        1 MOL1         0.6132
       2    O1      20.030481   19.814648   18.402667 O.co2      1 MOL1        -0.6749
       3    O2      21.649716   21.054460   19.056878 O.co2      1 MOL1        -0.6749
       4    C2      19.883827   20.713527   20.575740 C.3        1 MOL1        -0.1955
       5    H1      18.809716   20.542915   20.434965 H          1 MOL1         0.0733
       6    H2      20.006888   21.764990   20.859973 H          1 MOL1         0.0733
       7    C3      20.439774   19.812034   21.661548 C.2        1 MOL1        -0.1395
       8    H3      21.461341   20.031569   21.970425 H          1 MOL1         0.0816
       9    C4      19.761112   18.807584   22.224333 C.2        1 MOL1        -0.1394
      10    H4      18.740748   18.586601   21.912749 H          1 MOL1         0.0816
      11    C5      20.318484   17.907193   23.304127 C.3        1 MOL1        -0.1826
      12    H5      20.129012   16.856687   23.045152 H          1 MOL1         0.0736
      13    H6      21.408791   18.022517   23.375889 H          1 MOL1         0.0736
      14    C6      19.681203   18.222215   24.671495 C.3        1 MOL1        -0.2882
      15    H7      18.593302   18.077788   24.639229 H          1 MOL1         0.0749
      16    H8      20.089013   17.565318   25.450766 H          1 MOL1         0.0749
      17    H9      19.879732   19.261765   24.963938 H          1 MOL1         0.0749
@<TRIPOS>BOND
    1     1     2    1
    2     1     3    2
    3     1     4    1
    4     4     5    1
    5     4     6    1
    6     4     7    1
    7     7     8    1
    8     7     9    2
    9     9    10    1
   10     9    11    1
   11    11    12    1
   12    11    13    1
   13    11    14    1
   14    14    15    1
   15    14    16    1
   16    14    17    1
@<TRIPOS>SUBSTRUCTURE
       1 MOL1            1 RESIDUE      1      MOL     
@<SCITEGIC>MOL_PROPERTY
VConf Rank
SciTegic.value.IntegerValue
597

@<SCITEGIC>MOL_PROPERTY
Conf_Id
SciTegic.value.IntegerValue
35

@<SCITEGIC>MOL_PROPERTY
Delta U+W
SciTegic.value.DoubleValue
-0.102

@<SCITEGIC>MOL_PROPERTY
U+W
SciTegic.value.DoubleValue
-49.529

@<SCITEGIC>MOL_PROPERTY
Grad RMS
SciTegic.value.DoubleValue
0.000000

@<SCITEGIC>MOL_PROPERTY
U
SciTegic.value.DoubleValue
13.666

@<SCITEGIC>MOL_PROPERTY
W
SciTegic.value.DoubleValue
-63.195

@<SCITEGIC>MOL_PROPERTY
W(PB)
SciTegic.value.DoubleValue
-65.299

@<SCITEGIC>MOL_PROPERTY
W(SA)
SciTegic.value.DoubleValue
2.103

@<SCITEGIC>MOL_PROPERTY
Valence
SciTegic.value.DoubleValue
15.226

@<SCITEGIC>MOL_PROPERTY
Coulomb
SciTegic.value.DoubleValue
-1.822

@<SCITEGIC>MOL_PROPERTY
VdW
SciTegic.value.DoubleValue
0.261

@<SCITEGIC>MOL_PROPERTY
VdW6
SciTegic.value.DoubleValue
-4.165

@<SCITEGIC>MOL_PROPERTY
VdW12
SciTegic.value.DoubleValue
4.426

@<SCITEGIC>MOL_PROPERTY
Bond
SciTegic.value.DoubleValue
0.044

@<SCITEGIC>MOL_PROPERTY
Angle
SciTegic.value.DoubleValue
2.229

@<SCITEGIC>MOL_PROPERTY
Pdih
SciTegic.value.DoubleValue
12.953

@<SCITEGIC>MOL_PROPERTY
Idih
SciTegic.value.DoubleValue
0.000

@<SCITEGIC>MOL_PROPERTY
Tether
SciTegic.value.DoubleValue
0.000

@<TRIPOS>MOLECULE
guest-s20_confgen4.mol2 : confsearch ligand conformer 598
          17          16           1
SMALL
USER_CHARGES
 
@<TRIPOS>ATOM
       1    C1      18.368607   16.922139   22.931036 C.2        1 MOL1         0.6132
       2    O1      18.895077   16.184539   23.740817 O.co2      1 MOL1        -0.6749
       3    O2      17.227527   17.327443   23.033570 O.co2      1 MOL1        -0.6749
       4    C2      19.181769   17.353227   21.717519 C.3        1 MOL1        -0.1955
       5    H1      18.484182   17.623816   20.915808 H          1 MOL1         0.0733
       6    H2      19.749053   16.482737   21.368310 H          1 MOL1         0.0733
       7    C3      20.125954   18.499119   22.028729 C.2        1 MOL1        -0.1395
       8    H3      20.942224   18.244930   22.702659 H          1 MOL1         0.0816
       9    C4      19.988661   19.735673   21.533962 C.2        1 MOL1        -0.1394
      10    H4      19.156301   19.953827   20.865628 H          1 MOL1         0.0816
      11    C5      20.891431   20.927250   21.805512 C.3        1 MOL1        -0.1826
      12    H5      21.281112   21.304570   20.850376 H          1 MOL1         0.0736
      13    H6      20.286990   21.744804   22.221177 H          1 MOL1         0.0736
      14    C6      22.076028   20.644713   22.755739 C.3        1 MOL1        -0.2882
      15    H7      22.734043   19.867761   22.344930 H          1 MOL1         0.0749
      16    H8      22.677196   21.551557   22.901548 H          1 MOL1         0.0749
      17    H9      21.720710   20.315016   23.740898 H          1 MOL1         0.0749
@<TRIPOS>BOND
    1     1     2    1
    2     1     3    2
    3     1     4    1
    4     4     5    1
    5     4     6    1
    6     4     7    1
    7     7     8    1
    8     7     9    2
    9     9    10    1
   10     9    11    1
   11    11    12    1
   12    11    13    1
   13    11    14    1
   14    14    15    1
   15    14    16    1
   16    14    17    1
@<TRIPOS>SUBSTRUCTURE
       1 MOL1            1 RESIDUE      1      MOL     
@<SCITEGIC>MOL_PROPERTY
VConf Rank
SciTegic.value.IntegerValue
598

@<SCITEGIC>MOL_PROPERTY
Conf_Id
SciTegic.value.IntegerValue
19

@<SCITEGIC>MOL_PROPERTY
Delta U+W
SciTegic.value.DoubleValue
-0.496

@<SCITEGIC>MOL_PROPERTY
U+W
SciTegic.value.DoubleValue
-49.923

@<SCITEGIC>MOL_PROPERTY
Grad RMS
SciTegic.value.DoubleValue
0.000000

@<SCITEGIC>MOL_PROPERTY
U
SciTegic.value.DoubleValue
13.863

@<SCITEGIC>MOL_PROPERTY
W
SciTegic.value.DoubleValue
-63.786

@<SCITEGIC>MOL_PROPERTY
W(PB)
SciTegic.value.DoubleValue
-65.856

@<SCITEGIC>MOL_PROPERTY
W(SA)
SciTegic.value.DoubleValue
2.070

@<SCITEGIC>MOL_PROPERTY
Valence
SciTegic.value.DoubleValue
14.117

@<SCITEGIC>MOL_PROPERTY
Coulomb
SciTegic.value.DoubleValue
-1.228

@<SCITEGIC>MOL_PROPERTY
VdW
SciTegic.value.DoubleValue
0.974

@<SCITEGIC>MOL_PROPERTY
VdW6
SciTegic.value.DoubleValue
-4.885

@<SCITEGIC>MOL_PROPERTY
VdW12
SciTegic.value.DoubleValue
5.859

@<SCITEGIC>MOL_PROPERTY
Bond
SciTegic.value.DoubleValue
0.094

@<SCITEGIC>MOL_PROPERTY
Angle
SciTegic.value.DoubleValue
2.818

@<SCITEGIC>MOL_PROPERTY
Pdih
SciTegic.value.DoubleValue
11.205

@<SCITEGIC>MOL_PROPERTY
Idih
SciTegic.value.DoubleValue
0.000

@<SCITEGIC>MOL_PROPERTY
Tether
SciTegic.value.DoubleValue
0.000

@<TRIPOS>MOLECULE
guest-s20_confgen4.mol2 : confsearch ligand conformer 599
          17          16           1
SMALL
USER_CHARGES
 
@<TRIPOS>ATOM
       1    C1      19.643538   20.942079   20.014123 C.2        1 MOL1         0.6132
       2    O1      20.622990   20.790934   19.310815 O.co2      1 MOL1        -0.6749
       3    O2      18.506944   20.975802   19.585149 O.co2      1 MOL1        -0.6749
       4    C2      19.849939   21.109301   21.513877 C.3        1 MOL1        -0.1955
       5    H1      19.175067   21.901416   21.858242 H          1 MOL1         0.0733
       6    H2      20.873798   21.464452   21.681907 H          1 MOL1         0.0733
       7    C3      19.585556   19.828886   22.282905 C.2        1 MOL1        -0.1395
       8    H3      18.547859   19.496704   22.290283 H          1 MOL1         0.0816
       9    C4      20.529014   19.123019   22.913662 C.2        1 MOL1        -0.1394
      10    H4      21.567328   19.452894   22.901616 H          1 MOL1         0.0816
      11    C5      20.263729   17.844917   23.677478 C.3        1 MOL1        -0.1826
      12    H5      20.744958   17.895336   24.663581 H          1 MOL1         0.0736
      13    H6      19.186978   17.721377   23.857905 H          1 MOL1         0.0736
      14    C6      20.795501   16.620020   22.908168 C.3        1 MOL1        -0.2882
      15    H7      21.878752   16.698487   22.747427 H          1 MOL1         0.0749
      16    H8      20.599992   15.695377   23.466627 H          1 MOL1         0.0749
      17    H9      20.309631   16.535007   21.927156 H          1 MOL1         0.0749
@<TRIPOS>BOND
    1     1     2    1
    2     1     3    2
    3     1     4    1
    4     4     5    1
    5     4     6    1
    6     4     7    1
    7     7     8    1
    8     7     9    2
    9     9    10    1
   10     9    11    1
   11    11    12    1
   12    11    13    1
   13    11    14    1
   14    14    15    1
   15    14    16    1
   16    14    17    1
@<TRIPOS>SUBSTRUCTURE
       1 MOL1            1 RESIDUE      1      MOL     
@<SCITEGIC>MOL_PROPERTY
VConf Rank
SciTegic.value.IntegerValue
599

@<SCITEGIC>MOL_PROPERTY
Conf_Id
SciTegic.value.IntegerValue
7

@<SCITEGIC>MOL_PROPERTY
Delta U+W
SciTegic.value.DoubleValue
-0.041

@<SCITEGIC>MOL_PROPERTY
U+W
SciTegic.value.DoubleValue
-49.468

@<SCITEGIC>MOL_PROPERTY
Grad RMS
SciTegic.value.DoubleValue
0.000000

@<SCITEGIC>MOL_PROPERTY
U
SciTegic.value.DoubleValue
14.121

@<SCITEGIC>MOL_PROPERTY
W
SciTegic.value.DoubleValue
-63.589

@<SCITEGIC>MOL_PROPERTY
W(PB)
SciTegic.value.DoubleValue
-65.660

@<SCITEGIC>MOL_PROPERTY
W(SA)
SciTegic.value.DoubleValue
2.071

@<SCITEGIC>MOL_PROPERTY
Valence
SciTegic.value.DoubleValue
15.230

@<SCITEGIC>MOL_PROPERTY
Coulomb
SciTegic.value.DoubleValue
-1.333

@<SCITEGIC>MOL_PROPERTY
VdW
SciTegic.value.DoubleValue
0.224

@<SCITEGIC>MOL_PROPERTY
VdW6
SciTegic.value.DoubleValue
-4.212

@<SCITEGIC>MOL_PROPERTY
VdW12
SciTegic.value.DoubleValue
4.436

@<SCITEGIC>MOL_PROPERTY
Bond
SciTegic.value.DoubleValue
0.044

@<SCITEGIC>MOL_PROPERTY
Angle
SciTegic.value.DoubleValue
2.230

@<SCITEGIC>MOL_PROPERTY
Pdih
SciTegic.value.DoubleValue
12.956

@<SCITEGIC>MOL_PROPERTY
Idih
SciTegic.value.DoubleValue
0.000

@<SCITEGIC>MOL_PROPERTY
Tether
SciTegic.value.DoubleValue
0.000

@<TRIPOS>MOLECULE
guest-s20_confgen4.mol2 : confsearch ligand conformer 600
          17          16           1
SMALL
USER_CHARGES
 
@<TRIPOS>ATOM
       1    C1      22.458022   20.135359   21.056913 C.2        1 MOL1         0.6132
       2    O1      23.277988   19.421890   21.600613 O.co2      1 MOL1        -0.6749
       3    O2      22.537455   21.347759   21.027609 O.co2      1 MOL1        -0.6749
       4    C2      21.280364   19.472192   20.349163 C.3        1 MOL1        -0.1955
       5    H1      21.622624   18.506264   19.959792 H          1 MOL1         0.0733
       6    H2      21.030890   20.079675   19.471412 H          1 MOL1         0.0733
       7    C3      20.034120   19.267056   21.198675 C.2        1 MOL1        -0.1395
       8    H3      19.205772   18.792438   20.674153 H          1 MOL1         0.0816
       9    C4      19.893063   19.610941   22.484304 C.2        1 MOL1        -0.1394
      10    H4      20.705979   20.085946   23.032274 H          1 MOL1         0.0816
      11    C5      18.629472   19.385765   23.284663 C.3        1 MOL1        -0.1826
      12    H5      18.362078   20.306005   23.821485 H          1 MOL1         0.0736
      13    H6      17.787445   19.153916   22.618037 H          1 MOL1         0.0736
      14    C6      18.811507   18.236256   24.294875 C.3        1 MOL1        -0.2882
      15    H7      17.892232   18.078231   24.873685 H          1 MOL1         0.0749
      16    H8      19.054663   17.298337   23.778371 H          1 MOL1         0.0749
      17    H9      19.623729   18.459043   24.999233 H          1 MOL1         0.0749
@<TRIPOS>BOND
    1     1     2    1
    2     1     3    2
    3     1     4    1
    4     4     5    1
    5     4     6    1
    6     4     7    1
    7     7     8    1
    8     7     9    2
    9     9    10    1
   10     9    11    1
   11    11    12    1
   12    11    13    1
   13    11    14    1
   14    14    15    1
   15    14    16    1
   16    14    17    1
@<TRIPOS>SUBSTRUCTURE
       1 MOL1            1 RESIDUE      1      MOL     
@<SCITEGIC>MOL_PROPERTY
VConf Rank
SciTegic.value.IntegerValue
600

@<SCITEGIC>MOL_PROPERTY
Conf_Id
SciTegic.value.IntegerValue
39

@<SCITEGIC>MOL_PROPERTY
Delta U+W
SciTegic.value.DoubleValue
-0.422

@<SCITEGIC>MOL_PROPERTY
U+W
SciTegic.value.DoubleValue
-49.849

@<SCITEGIC>MOL_PROPERTY
Grad RMS
SciTegic.value.DoubleValue
0.000000

@<SCITEGIC>MOL_PROPERTY
U
SciTegic.value.DoubleValue
14.465

@<SCITEGIC>MOL_PROPERTY
W
SciTegic.value.DoubleValue
-64.314

@<SCITEGIC>MOL_PROPERTY
W(PB)
SciTegic.value.DoubleValue
-66.406

@<SCITEGIC>MOL_PROPERTY
W(SA)
SciTegic.value.DoubleValue
2.093

@<SCITEGIC>MOL_PROPERTY
Valence
SciTegic.value.DoubleValue
14.072

@<SCITEGIC>MOL_PROPERTY
Coulomb
SciTegic.value.DoubleValue
-0.199

@<SCITEGIC>MOL_PROPERTY
VdW
SciTegic.value.DoubleValue
0.592

@<SCITEGIC>MOL_PROPERTY
VdW6
SciTegic.value.DoubleValue
-5.019

@<SCITEGIC>MOL_PROPERTY
VdW12
SciTegic.value.DoubleValue
5.611

@<SCITEGIC>MOL_PROPERTY
Bond
SciTegic.value.DoubleValue
0.085

@<SCITEGIC>MOL_PROPERTY
Angle
SciTegic.value.DoubleValue
2.748

@<SCITEGIC>MOL_PROPERTY
Pdih
SciTegic.value.DoubleValue
11.238

@<SCITEGIC>MOL_PROPERTY
Idih
SciTegic.value.DoubleValue
0.001

@<SCITEGIC>MOL_PROPERTY
Tether
SciTegic.value.DoubleValue
0.000

@<TRIPOS>MOLECULE
guest-s20_confgen4.mol2 : confsearch ligand conformer 601
          17          16           1
SMALL
USER_CHARGES
 
@<TRIPOS>ATOM
       1    C1      17.006820   19.873955   21.926281 C.2        1 MOL1         0.6132
       2    O1      16.430901   19.464802   20.937407 O.co2      1 MOL1        -0.6749
       3    O2      16.780646   20.953067   22.437339 O.co2      1 MOL1        -0.6749
       4    C2      18.065443   18.981847   22.561153 C.3        1 MOL1        -0.1955
       5    H1      17.689885   17.952200   22.544066 H          1 MOL1         0.0733
       6    H2      18.168551   19.268222   23.614718 H          1 MOL1         0.0733
       7    C3      19.399103   19.061736   21.843020 C.2        1 MOL1        -0.1395
       8    H3      19.411665   18.642436   20.837420 H          1 MOL1         0.0816
       9    C4      20.503534   19.601373   22.367662 C.2        1 MOL1        -0.1394
      10    H4      20.489498   20.023152   23.372135 H          1 MOL1         0.0816
      11    C5      21.831540   19.683551   21.648656 C.3        1 MOL1        -0.1826
      12    H5      21.701328   19.481549   20.576526 H          1 MOL1         0.0736
      13    H6      22.235151   20.701827   21.730792 H          1 MOL1         0.0736
      14    C6      22.843080   18.680931   22.237385 C.3        1 MOL1        -0.2882
      15    H7      22.471946   17.651868   22.143101 H          1 MOL1         0.0749
      16    H8      23.804840   18.745658   21.712110 H          1 MOL1         0.0749
      17    H9      23.021782   18.883938   23.301472 H          1 MOL1         0.0749
@<TRIPOS>BOND
    1     1     2    1
    2     1     3    2
    3     1     4    1
    4     4     5    1
    5     4     6    1
    6     4     7    1
    7     7     8    1
    8     7     9    2
    9     9    10    1
   10     9    11    1
   11    11    12    1
   12    11    13    1
   13    11    14    1
   14    14    15    1
   15    14    16    1
   16    14    17    1
@<TRIPOS>SUBSTRUCTURE
       1 MOL1            1 RESIDUE      1      MOL     
@<SCITEGIC>MOL_PROPERTY
VConf Rank
SciTegic.value.IntegerValue
601

@<SCITEGIC>MOL_PROPERTY
Conf_Id
SciTegic.value.IntegerValue
38

@<SCITEGIC>MOL_PROPERTY
Delta U+W
SciTegic.value.DoubleValue
0.000

@<SCITEGIC>MOL_PROPERTY
U+W
SciTegic.value.DoubleValue
-49.427

@<SCITEGIC>MOL_PROPERTY
Grad RMS
SciTegic.value.DoubleValue
0.000000

@<SCITEGIC>MOL_PROPERTY
U
SciTegic.value.DoubleValue
13.666

@<SCITEGIC>MOL_PROPERTY
W
SciTegic.value.DoubleValue
-63.093

@<SCITEGIC>MOL_PROPERTY
W(PB)
SciTegic.value.DoubleValue
-65.225

@<SCITEGIC>MOL_PROPERTY
W(SA)
SciTegic.value.DoubleValue
2.132

@<SCITEGIC>MOL_PROPERTY
Valence
SciTegic.value.DoubleValue
15.226

@<SCITEGIC>MOL_PROPERTY
Coulomb
SciTegic.value.DoubleValue
-1.822

@<SCITEGIC>MOL_PROPERTY
VdW
SciTegic.value.DoubleValue
0.261

@<SCITEGIC>MOL_PROPERTY
VdW6
SciTegic.value.DoubleValue
-4.165

@<SCITEGIC>MOL_PROPERTY
VdW12
SciTegic.value.DoubleValue
4.426

@<SCITEGIC>MOL_PROPERTY
Bond
SciTegic.value.DoubleValue
0.044

@<SCITEGIC>MOL_PROPERTY
Angle
SciTegic.value.DoubleValue
2.229

@<SCITEGIC>MOL_PROPERTY
Pdih
SciTegic.value.DoubleValue
12.953

@<SCITEGIC>MOL_PROPERTY
Idih
SciTegic.value.DoubleValue
0.000

@<SCITEGIC>MOL_PROPERTY
Tether
SciTegic.value.DoubleValue
0.000

@<TRIPOS>MOLECULE
guest-s20_confgen4.mol2 : confsearch ligand conformer 602
          17          16           1
SMALL
USER_CHARGES
 
@<TRIPOS>ATOM
       1    C1      22.774477   17.610356   22.309313 C.2        1 MOL1         0.6132
       2    O1      23.672769   18.244635   21.792033 O.co2      1 MOL1        -0.6749
       3    O2      22.674185   16.401681   22.231803 O.co2      1 MOL1        -0.6749
       4    C2      21.718856   18.368908   23.102955 C.3        1 MOL1        -0.1955
       5    H1      22.154734   19.319793   23.432302 H          1 MOL1         0.0733
       6    H2      21.497028   17.788159   24.005745 H          1 MOL1         0.0733
       7    C3      20.448436   18.599923   22.307085 C.2        1 MOL1        -0.1395
       8    H3      19.871848   17.703484   22.080931 H          1 MOL1         0.0816
       9    C4      20.030589   19.799194   21.890697 C.2        1 MOL1        -0.1394
      10    H4      20.609285   20.694797   22.114456 H          1 MOL1         0.0816
      11    C5      18.765567   20.027176   21.093788 C.3        1 MOL1        -0.1826
      12    H5      18.982930   20.668058   20.228596 H          1 MOL1         0.0736
      13    H6      18.386188   19.076454   20.694515 H          1 MOL1         0.0736
      14    C6      17.675969   20.687139   21.961132 C.3        1 MOL1        -0.2882
      15    H7      18.014669   21.659193   22.342998 H          1 MOL1         0.0749
      16    H8      16.760813   20.850682   21.377326 H          1 MOL1         0.0749
      17    H9      17.423183   20.051472   22.819984 H          1 MOL1         0.0749
@<TRIPOS>BOND
    1     1     2    1
    2     1     3    2
    3     1     4    1
    4     4     5    1
    5     4     6    1
    6     4     7    1
    7     7     8    1
    8     7     9    2
    9     9    10    1
   10     9    11    1
   11    11    12    1
   12    11    13    1
   13    11    14    1
   14    14    15    1
   15    14    16    1
   16    14    17    1
@<TRIPOS>SUBSTRUCTURE
       1 MOL1            1 RESIDUE      1      MOL     
@<SCITEGIC>MOL_PROPERTY
VConf Rank
SciTegic.value.IntegerValue
602

@<SCITEGIC>MOL_PROPERTY
Conf_Id
SciTegic.value.IntegerValue
35

@<SCITEGIC>MOL_PROPERTY
Delta U+W
SciTegic.value.DoubleValue
-0.102

@<SCITEGIC>MOL_PROPERTY
U+W
SciTegic.value.DoubleValue
-49.529

@<SCITEGIC>MOL_PROPERTY
Grad RMS
SciTegic.value.DoubleValue
0.000000

@<SCITEGIC>MOL_PROPERTY
U
SciTegic.value.DoubleValue
13.666

@<SCITEGIC>MOL_PROPERTY
W
SciTegic.value.DoubleValue
-63.195

@<SCITEGIC>MOL_PROPERTY
W(PB)
SciTegic.value.DoubleValue
-65.299

@<SCITEGIC>MOL_PROPERTY
W(SA)
SciTegic.value.DoubleValue
2.103

@<SCITEGIC>MOL_PROPERTY
Valence
SciTegic.value.DoubleValue
15.226

@<SCITEGIC>MOL_PROPERTY
Coulomb
SciTegic.value.DoubleValue
-1.822

@<SCITEGIC>MOL_PROPERTY
VdW
SciTegic.value.DoubleValue
0.261

@<SCITEGIC>MOL_PROPERTY
VdW6
SciTegic.value.DoubleValue
-4.165

@<SCITEGIC>MOL_PROPERTY
VdW12
SciTegic.value.DoubleValue
4.426

@<SCITEGIC>MOL_PROPERTY
Bond
SciTegic.value.DoubleValue
0.044

@<SCITEGIC>MOL_PROPERTY
Angle
SciTegic.value.DoubleValue
2.229

@<SCITEGIC>MOL_PROPERTY
Pdih
SciTegic.value.DoubleValue
12.953

@<SCITEGIC>MOL_PROPERTY
Idih
SciTegic.value.DoubleValue
0.000

@<SCITEGIC>MOL_PROPERTY
Tether
SciTegic.value.DoubleValue
0.000

@<TRIPOS>MOLECULE
guest-s20_confgen4.mol2 : confsearch ligand conformer 603
          17          16           1
SMALL
USER_CHARGES
 
@<TRIPOS>ATOM
       1    C1      17.935006   20.413553   23.524110 C.2        1 MOL1         0.6132
       2    O1      17.889003   21.584430   23.201773 O.co2      1 MOL1        -0.6749
       3    O2      16.962099   19.685928   23.553471 O.co2      1 MOL1        -0.6749
       4    C2      19.284850   19.830820   23.921648 C.3        1 MOL1        -0.1955
       5    H1      19.106788   18.963279   24.568372 H          1 MOL1         0.0733
       6    H2      19.807577   20.580046   24.527393 H          1 MOL1         0.0733
       7    C3      20.129748   19.451182   22.720221 C.2        1 MOL1        -0.1395
       8    H3      20.474044   20.293425   22.122578 H          1 MOL1         0.0816
       9    C4      20.438864   18.190273   22.392701 C.2        1 MOL1        -0.1394
      10    H4      20.072407   17.372610   23.012556 H          1 MOL1         0.0816
      11    C5      21.273981   17.739507   21.206118 C.3        1 MOL1        -0.1826
      12    H5      22.125847   17.150789   21.572507 H          1 MOL1         0.0736
      13    H6      20.679170   17.048252   20.593837 H          1 MOL1         0.0736
      14    C6      21.800283   18.880741   20.307998 C.3        1 MOL1        -0.2882
      15    H7      22.445375   19.563701   20.876174 H          1 MOL1         0.0749
      16    H8      22.390677   18.474853   19.476301 H          1 MOL1         0.0749
      17    H9      20.971145   19.459733   19.880461 H          1 MOL1         0.0749
@<TRIPOS>BOND
    1     1     2    1
    2     1     3    2
    3     1     4    1
    4     4     5    1
    5     4     6    1
    6     4     7    1
    7     7     8    1
    8     7     9    2
    9     9    10    1
   10     9    11    1
   11    11    12    1
   12    11    13    1
   13    11    14    1
   14    14    15    1
   15    14    16    1
   16    14    17    1
@<TRIPOS>SUBSTRUCTURE
       1 MOL1            1 RESIDUE      1      MOL     
@<SCITEGIC>MOL_PROPERTY
VConf Rank
SciTegic.value.IntegerValue
603

@<SCITEGIC>MOL_PROPERTY
Conf_Id
SciTegic.value.IntegerValue
19

@<SCITEGIC>MOL_PROPERTY
Delta U+W
SciTegic.value.DoubleValue
-0.496

@<SCITEGIC>MOL_PROPERTY
U+W
SciTegic.value.DoubleValue
-49.923

@<SCITEGIC>MOL_PROPERTY
Grad RMS
SciTegic.value.DoubleValue
0.000000

@<SCITEGIC>MOL_PROPERTY
U
SciTegic.value.DoubleValue
13.863

@<SCITEGIC>MOL_PROPERTY
W
SciTegic.value.DoubleValue
-63.786

@<SCITEGIC>MOL_PROPERTY
W(PB)
SciTegic.value.DoubleValue
-65.856

@<SCITEGIC>MOL_PROPERTY
W(SA)
SciTegic.value.DoubleValue
2.070

@<SCITEGIC>MOL_PROPERTY
Valence
SciTegic.value.DoubleValue
14.117

@<SCITEGIC>MOL_PROPERTY
Coulomb
SciTegic.value.DoubleValue
-1.228

@<SCITEGIC>MOL_PROPERTY
VdW
SciTegic.value.DoubleValue
0.974

@<SCITEGIC>MOL_PROPERTY
VdW6
SciTegic.value.DoubleValue
-4.885

@<SCITEGIC>MOL_PROPERTY
VdW12
SciTegic.value.DoubleValue
5.859

@<SCITEGIC>MOL_PROPERTY
Bond
SciTegic.value.DoubleValue
0.094

@<SCITEGIC>MOL_PROPERTY
Angle
SciTegic.value.DoubleValue
2.818

@<SCITEGIC>MOL_PROPERTY
Pdih
SciTegic.value.DoubleValue
11.205

@<SCITEGIC>MOL_PROPERTY
Idih
SciTegic.value.DoubleValue
0.000

@<SCITEGIC>MOL_PROPERTY
Tether
SciTegic.value.DoubleValue
0.000

@<TRIPOS>MOLECULE
guest-s20_confgen4.mol2 : confsearch ligand conformer 604
          17          16           1
SMALL
USER_CHARGES
 
@<TRIPOS>ATOM
       1    C1      17.368305   19.437692   23.048144 C.2        1 MOL1         0.6132
       2    O1      17.032305   18.306587   23.338862 O.co2      1 MOL1        -0.6749
       3    O2      17.136228   20.407254   23.743193 O.co2      1 MOL1        -0.6749
       4    C2      18.111403   19.656023   21.736670 C.3        1 MOL1        -0.1955
       5    H1      17.705918   20.560609   21.268919 H          1 MOL1         0.0733
       6    H2      17.880844   18.817987   21.067945 H          1 MOL1         0.0733
       7    C3      19.608610   19.798022   21.934085 C.2        1 MOL1        -0.1395
       8    H3      19.924959   20.698092   22.460406 H          1 MOL1         0.0816
       9    C4      20.509596   18.903822   21.515942 C.2        1 MOL1        -0.1394
      10    H4      20.192318   18.001473   20.994251 H          1 MOL1         0.0816
      11    C5      22.001898   19.045910   21.716399 C.3        1 MOL1        -0.1826
      12    H5      22.523639   18.850781   20.769703 H          1 MOL1         0.0736
      13    H6      22.254182   20.074349   22.009441 H          1 MOL1         0.0736
      14    C6      22.510857   18.069302   22.794447 C.3        1 MOL1        -0.2882
      15    H7      22.306236   17.029162   22.508676 H          1 MOL1         0.0749
      16    H8      23.594092   18.176933   22.936174 H          1 MOL1         0.0749
      17    H9      22.020187   18.262010   23.757665 H          1 MOL1         0.0749
@<TRIPOS>BOND
    1     1     2    1
    2     1     3    2
    3     1     4    1
    4     4     5    1
    5     4     6    1
    6     4     7    1
    7     7     8    1
    8     7     9    2
    9     9    10    1
   10     9    11    1
   11    11    12    1
   12    11    13    1
   13    11    14    1
   14    14    15    1
   15    14    16    1
   16    14    17    1
@<TRIPOS>SUBSTRUCTURE
       1 MOL1            1 RESIDUE      1      MOL     
@<SCITEGIC>MOL_PROPERTY
VConf Rank
SciTegic.value.IntegerValue
604

@<SCITEGIC>MOL_PROPERTY
Conf_Id
SciTegic.value.IntegerValue
7

@<SCITEGIC>MOL_PROPERTY
Delta U+W
SciTegic.value.DoubleValue
-0.041

@<SCITEGIC>MOL_PROPERTY
U+W
SciTegic.value.DoubleValue
-49.468

@<SCITEGIC>MOL_PROPERTY
Grad RMS
SciTegic.value.DoubleValue
0.000000

@<SCITEGIC>MOL_PROPERTY
U
SciTegic.value.DoubleValue
14.121

@<SCITEGIC>MOL_PROPERTY
W
SciTegic.value.DoubleValue
-63.589

@<SCITEGIC>MOL_PROPERTY
W(PB)
SciTegic.value.DoubleValue
-65.660

@<SCITEGIC>MOL_PROPERTY
W(SA)
SciTegic.value.DoubleValue
2.071

@<SCITEGIC>MOL_PROPERTY
Valence
SciTegic.value.DoubleValue
15.230

@<SCITEGIC>MOL_PROPERTY
Coulomb
SciTegic.value.DoubleValue
-1.333

@<SCITEGIC>MOL_PROPERTY
VdW
SciTegic.value.DoubleValue
0.224

@<SCITEGIC>MOL_PROPERTY
VdW6
SciTegic.value.DoubleValue
-4.212

@<SCITEGIC>MOL_PROPERTY
VdW12
SciTegic.value.DoubleValue
4.436

@<SCITEGIC>MOL_PROPERTY
Bond
SciTegic.value.DoubleValue
0.044

@<SCITEGIC>MOL_PROPERTY
Angle
SciTegic.value.DoubleValue
2.230

@<SCITEGIC>MOL_PROPERTY
Pdih
SciTegic.value.DoubleValue
12.956

@<SCITEGIC>MOL_PROPERTY
Idih
SciTegic.value.DoubleValue
0.000

@<SCITEGIC>MOL_PROPERTY
Tether
SciTegic.value.DoubleValue
0.000

@<TRIPOS>MOLECULE
guest-s20_confgen4.mol2 : confsearch ligand conformer 605
          17          16           1
SMALL
USER_CHARGES
 
@<TRIPOS>ATOM
       1    C1      18.122634   19.818835   24.082704 C.2        1 MOL1         0.6132
       2    O1      17.753279   20.910397   23.696618 O.co2      1 MOL1        -0.6749
       3    O2      18.465207   19.591932   25.226488 O.co2      1 MOL1        -0.6749
       4    C2      18.130215   18.664765   23.084886 C.3        1 MOL1        -0.1955
       5    H1      17.313999   18.831012   22.372199 H          1 MOL1         0.0733
       6    H2      17.873105   17.748636   23.629240 H          1 MOL1         0.0733
       7    C3      19.434585   18.459373   22.327714 C.2        1 MOL1        -0.1395
       8    H3      19.418311   17.630617   21.621000 H          1 MOL1         0.0816
       9    C4      20.546030   19.192609   22.462067 C.2        1 MOL1        -0.1394
      10    H4      20.588569   20.027273   23.160823 H          1 MOL1         0.0816
      11    C5      21.819703   18.945227   21.684570 C.3        1 MOL1        -0.1826
      12    H5      22.677796   18.943152   22.370275 H          1 MOL1         0.0736
      13    H6      21.794346   17.955284   21.208625 H          1 MOL1         0.0736
      14    C6      22.027693   20.024943   20.604760 C.3        1 MOL1        -0.2882
      15    H7      22.953835   19.841296   20.044765 H          1 MOL1         0.0749
      16    H8      21.192986   20.028626   19.891427 H          1 MOL1         0.0749
      17    H9      22.095112   21.023094   21.057095 H          1 MOL1         0.0749
@<TRIPOS>BOND
    1     1     2    1
    2     1     3    2
    3     1     4    1
    4     4     5    1
    5     4     6    1
    6     4     7    1
    7     7     8    1
    8     7     9    2
    9     9    10    1
   10     9    11    1
   11    11    12    1
   12    11    13    1
   13    11    14    1
   14    14    15    1
   15    14    16    1
   16    14    17    1
@<TRIPOS>SUBSTRUCTURE
       1 MOL1            1 RESIDUE      1      MOL     
@<SCITEGIC>MOL_PROPERTY
VConf Rank
SciTegic.value.IntegerValue
605

@<SCITEGIC>MOL_PROPERTY
Conf_Id
SciTegic.value.IntegerValue
39

@<SCITEGIC>MOL_PROPERTY
Delta U+W
SciTegic.value.DoubleValue
-0.422

@<SCITEGIC>MOL_PROPERTY
U+W
SciTegic.value.DoubleValue
-49.849

@<SCITEGIC>MOL_PROPERTY
Grad RMS
SciTegic.value.DoubleValue
0.000000

@<SCITEGIC>MOL_PROPERTY
U
SciTegic.value.DoubleValue
14.465

@<SCITEGIC>MOL_PROPERTY
W
SciTegic.value.DoubleValue
-64.314

@<SCITEGIC>MOL_PROPERTY
W(PB)
SciTegic.value.DoubleValue
-66.406

@<SCITEGIC>MOL_PROPERTY
W(SA)
SciTegic.value.DoubleValue
2.093

@<SCITEGIC>MOL_PROPERTY
Valence
SciTegic.value.DoubleValue
14.072

@<SCITEGIC>MOL_PROPERTY
Coulomb
SciTegic.value.DoubleValue
-0.199

@<SCITEGIC>MOL_PROPERTY
VdW
SciTegic.value.DoubleValue
0.592

@<SCITEGIC>MOL_PROPERTY
VdW6
SciTegic.value.DoubleValue
-5.019

@<SCITEGIC>MOL_PROPERTY
VdW12
SciTegic.value.DoubleValue
5.611

@<SCITEGIC>MOL_PROPERTY
Bond
SciTegic.value.DoubleValue
0.085

@<SCITEGIC>MOL_PROPERTY
Angle
SciTegic.value.DoubleValue
2.748

@<SCITEGIC>MOL_PROPERTY
Pdih
SciTegic.value.DoubleValue
11.238

@<SCITEGIC>MOL_PROPERTY
Idih
SciTegic.value.DoubleValue
0.001

@<SCITEGIC>MOL_PROPERTY
Tether
SciTegic.value.DoubleValue
0.000

@<TRIPOS>MOLECULE
guest-s20_confgen4.mol2 : confsearch ligand conformer 606
          17          16           1
SMALL
USER_CHARGES
 
@<TRIPOS>ATOM
       1    C1      22.966829   18.548351   20.954450 C.2        1 MOL1         0.6132
       2    O1      23.266968   17.370707   20.948950 O.co2      1 MOL1        -0.6749
       3    O2      23.745315   19.438906   21.233181 O.co2      1 MOL1        -0.6749
       4    C2      21.538224   18.926841   20.586432 C.3        1 MOL1        -0.1955
       5    H1      21.231350   18.296820   19.743573 H          1 MOL1         0.0733
       6    H2      21.539302   19.963391   20.228378 H          1 MOL1         0.0733
       7    C3      20.574479   18.752761   21.744723 C.2        1 MOL1        -0.1395
       8    H3      20.398066   17.722422   22.052100 H          1 MOL1         0.0816
       9    C4      19.965533   19.762773   22.373441 C.2        1 MOL1        -0.1394
      10    H4      20.144687   20.792998   22.067498 H          1 MOL1         0.0816
      11    C5      19.007747   19.587514   23.530701 C.3        1 MOL1        -0.1826
      12    H5      19.079854   18.569853   23.938608 H          1 MOL1         0.0736
      13    H6      19.280102   20.273264   24.344400 H          1 MOL1         0.0736
      14    C6      17.555245   19.860067   23.093652 C.3        1 MOL1        -0.2882
      15    H7      17.251450   19.168159   22.297051 H          1 MOL1         0.0749
      16    H8      16.865059   19.731978   23.937645 H          1 MOL1         0.0749
      17    H9      17.445502   20.885303   22.716457 H          1 MOL1         0.0749
@<TRIPOS>BOND
    1     1     2    1
    2     1     3    2
    3     1     4    1
    4     4     5    1
    5     4     6    1
    6     4     7    1
    7     7     8    1
    8     7     9    2
    9     9    10    1
   10     9    11    1
   11    11    12    1
   12    11    13    1
   13    11    14    1
   14    14    15    1
   15    14    16    1
   16    14    17    1
@<TRIPOS>SUBSTRUCTURE
       1 MOL1            1 RESIDUE      1      MOL     
@<SCITEGIC>MOL_PROPERTY
VConf Rank
SciTegic.value.IntegerValue
606

@<SCITEGIC>MOL_PROPERTY
Conf_Id
SciTegic.value.IntegerValue
38

@<SCITEGIC>MOL_PROPERTY
Delta U+W
SciTegic.value.DoubleValue
0.000

@<SCITEGIC>MOL_PROPERTY
U+W
SciTegic.value.DoubleValue
-49.427

@<SCITEGIC>MOL_PROPERTY
Grad RMS
SciTegic.value.DoubleValue
0.000000

@<SCITEGIC>MOL_PROPERTY
U
SciTegic.value.DoubleValue
13.666

@<SCITEGIC>MOL_PROPERTY
W
SciTegic.value.DoubleValue
-63.093

@<SCITEGIC>MOL_PROPERTY
W(PB)
SciTegic.value.DoubleValue
-65.225

@<SCITEGIC>MOL_PROPERTY
W(SA)
SciTegic.value.DoubleValue
2.132

@<SCITEGIC>MOL_PROPERTY
Valence
SciTegic.value.DoubleValue
15.226

@<SCITEGIC>MOL_PROPERTY
Coulomb
SciTegic.value.DoubleValue
-1.822

@<SCITEGIC>MOL_PROPERTY
VdW
SciTegic.value.DoubleValue
0.261

@<SCITEGIC>MOL_PROPERTY
VdW6
SciTegic.value.DoubleValue
-4.165

@<SCITEGIC>MOL_PROPERTY
VdW12
SciTegic.value.DoubleValue
4.426

@<SCITEGIC>MOL_PROPERTY
Bond
SciTegic.value.DoubleValue
0.044

@<SCITEGIC>MOL_PROPERTY
Angle
SciTegic.value.DoubleValue
2.229

@<SCITEGIC>MOL_PROPERTY
Pdih
SciTegic.value.DoubleValue
12.953

@<SCITEGIC>MOL_PROPERTY
Idih
SciTegic.value.DoubleValue
0.000

@<SCITEGIC>MOL_PROPERTY
Tether
SciTegic.value.DoubleValue
0.000

@<TRIPOS>MOLECULE
guest-s20_confgen4.mol2 : confsearch ligand conformer 607
          17          16           1
SMALL
USER_CHARGES
 
@<TRIPOS>ATOM
       1    C1      19.688359   21.152164   19.593593 C.2        1 MOL1         0.6132
       2    O1      20.690430   21.821401   19.436130 O.co2      1 MOL1        -0.6749
       3    O2      18.563677   21.570823   19.401828 O.co2      1 MOL1        -0.6749
       4    C2      19.848675   19.708282   20.050876 C.3        1 MOL1        -0.1955
       5    H1      20.853642   19.369539   19.771708 H          1 MOL1         0.0733
       6    H2      19.135743   19.096841   19.485743 H          1 MOL1         0.0733
       7    C3      19.612630   19.540925   21.539842 C.2        1 MOL1        -0.1395
       8    H3      18.587181   19.705185   21.869498 H          1 MOL1         0.0816
       9    C4      20.565539   19.218766   22.419845 C.2        1 MOL1        -0.1394
      10    H4      21.591367   19.057773   22.089969 H          1 MOL1         0.0816
      11    C5      20.329117   19.056197   23.904768 C.3        1 MOL1        -0.1826
      12    H5      21.090466   19.615878   24.464802 H          1 MOL1         0.0736
      13    H6      19.355293   19.479195   24.187538 H          1 MOL1         0.0736
      14    C6      20.378415   17.571256   24.314137 C.3        1 MOL1        -0.2882
      15    H7      21.356400   17.131956   24.077515 H          1 MOL1         0.0749
      16    H8      20.206906   17.459694   25.392666 H          1 MOL1         0.0749
      17    H9      19.607687   16.995230   23.785201 H          1 MOL1         0.0749
@<TRIPOS>BOND
    1     1     2    1
    2     1     3    2
    3     1     4    1
    4     4     5    1
    5     4     6    1
    6     4     7    1
    7     7     8    1
    8     7     9    2
    9     9    10    1
   10     9    11    1
   11    11    12    1
   12    11    13    1
   13    11    14    1
   14    14    15    1
   15    14    16    1
   16    14    17    1
@<TRIPOS>SUBSTRUCTURE
       1 MOL1            1 RESIDUE      1      MOL     
@<SCITEGIC>MOL_PROPERTY
VConf Rank
SciTegic.value.IntegerValue
607

@<SCITEGIC>MOL_PROPERTY
Conf_Id
SciTegic.value.IntegerValue
35

@<SCITEGIC>MOL_PROPERTY
Delta U+W
SciTegic.value.DoubleValue
-0.102

@<SCITEGIC>MOL_PROPERTY
U+W
SciTegic.value.DoubleValue
-49.529

@<SCITEGIC>MOL_PROPERTY
Grad RMS
SciTegic.value.DoubleValue
0.000000

@<SCITEGIC>MOL_PROPERTY
U
SciTegic.value.DoubleValue
13.666

@<SCITEGIC>MOL_PROPERTY
W
SciTegic.value.DoubleValue
-63.195

@<SCITEGIC>MOL_PROPERTY
W(PB)
SciTegic.value.DoubleValue
-65.299

@<SCITEGIC>MOL_PROPERTY
W(SA)
SciTegic.value.DoubleValue
2.103

@<SCITEGIC>MOL_PROPERTY
Valence
SciTegic.value.DoubleValue
15.226

@<SCITEGIC>MOL_PROPERTY
Coulomb
SciTegic.value.DoubleValue
-1.822

@<SCITEGIC>MOL_PROPERTY
VdW
SciTegic.value.DoubleValue
0.261

@<SCITEGIC>MOL_PROPERTY
VdW6
SciTegic.value.DoubleValue
-4.165

@<SCITEGIC>MOL_PROPERTY
VdW12
SciTegic.value.DoubleValue
4.426

@<SCITEGIC>MOL_PROPERTY
Bond
SciTegic.value.DoubleValue
0.044

@<SCITEGIC>MOL_PROPERTY
Angle
SciTegic.value.DoubleValue
2.229

@<SCITEGIC>MOL_PROPERTY
Pdih
SciTegic.value.DoubleValue
12.953

@<SCITEGIC>MOL_PROPERTY
Idih
SciTegic.value.DoubleValue
0.000

@<SCITEGIC>MOL_PROPERTY
Tether
SciTegic.value.DoubleValue
0.000

@<TRIPOS>MOLECULE
guest-s20_confgen4.mol2 : confsearch ligand conformer 608
          17          16           1
SMALL
USER_CHARGES
 
@<TRIPOS>ATOM
       1    C1      18.254659   21.288020   22.405557 C.2        1 MOL1         0.6132
       2    O1      17.838095   21.365053   23.544641 O.co2      1 MOL1        -0.6749
       3    O2      18.594294   22.251682   21.747642 O.co2      1 MOL1        -0.6749
       4    C2      18.346328   19.908632   21.766355 C.3        1 MOL1        -0.1955
       5    H1      18.310485   20.032272   20.677312 H          1 MOL1         0.0733
       6    H2      17.450842   19.345990   22.054538 H          1 MOL1         0.0733
       7    C3      19.593123   19.154743   22.188916 C.2        1 MOL1        -0.1395
       8    H3      19.613313   18.861492   23.237098 H          1 MOL1         0.0816
       9    C4      20.606163   18.863938   21.363146 C.2        1 MOL1        -0.1394
      10    H4      20.552396   19.177751   20.321170 H          1 MOL1         0.0816
      11    C5      21.881387   18.118267   21.718629 C.3        1 MOL1        -0.1826
      12    H5      21.972824   17.237744   21.068379 H          1 MOL1         0.0736
      13    H6      22.744503   18.753617   21.478040 H          1 MOL1         0.0736
      14    C6      21.984142   17.667976   23.192640 C.3        1 MOL1        -0.2882
      15    H7      21.164661   16.985775   23.454276 H          1 MOL1         0.0749
      16    H8      22.930214   17.139769   23.368632 H          1 MOL1         0.0749
      17    H9      21.949436   18.530401   23.871247 H          1 MOL1         0.0749
@<TRIPOS>BOND
    1     1     2    1
    2     1     3    2
    3     1     4    1
    4     4     5    1
    5     4     6    1
    6     4     7    1
    7     7     8    1
    8     7     9    2
    9     9    10    1
   10     9    11    1
   11    11    12    1
   12    11    13    1
   13    11    14    1
   14    14    15    1
   15    14    16    1
   16    14    17    1
@<TRIPOS>SUBSTRUCTURE
       1 MOL1            1 RESIDUE      1      MOL     
@<SCITEGIC>MOL_PROPERTY
VConf Rank
SciTegic.value.IntegerValue
608

@<SCITEGIC>MOL_PROPERTY
Conf_Id
SciTegic.value.IntegerValue
19

@<SCITEGIC>MOL_PROPERTY
Delta U+W
SciTegic.value.DoubleValue
-0.496

@<SCITEGIC>MOL_PROPERTY
U+W
SciTegic.value.DoubleValue
-49.923

@<SCITEGIC>MOL_PROPERTY
Grad RMS
SciTegic.value.DoubleValue
0.000000

@<SCITEGIC>MOL_PROPERTY
U
SciTegic.value.DoubleValue
13.863

@<SCITEGIC>MOL_PROPERTY
W
SciTegic.value.DoubleValue
-63.786

@<SCITEGIC>MOL_PROPERTY
W(PB)
SciTegic.value.DoubleValue
-65.856

@<SCITEGIC>MOL_PROPERTY
W(SA)
SciTegic.value.DoubleValue
2.070

@<SCITEGIC>MOL_PROPERTY
Valence
SciTegic.value.DoubleValue
14.117

@<SCITEGIC>MOL_PROPERTY
Coulomb
SciTegic.value.DoubleValue
-1.228

@<SCITEGIC>MOL_PROPERTY
VdW
SciTegic.value.DoubleValue
0.974

@<SCITEGIC>MOL_PROPERTY
VdW6
SciTegic.value.DoubleValue
-4.885

@<SCITEGIC>MOL_PROPERTY
VdW12
SciTegic.value.DoubleValue
5.859

@<SCITEGIC>MOL_PROPERTY
Bond
SciTegic.value.DoubleValue
0.094

@<SCITEGIC>MOL_PROPERTY
Angle
SciTegic.value.DoubleValue
2.818

@<SCITEGIC>MOL_PROPERTY
Pdih
SciTegic.value.DoubleValue
11.205

@<SCITEGIC>MOL_PROPERTY
Idih
SciTegic.value.DoubleValue
0.000

@<SCITEGIC>MOL_PROPERTY
Tether
SciTegic.value.DoubleValue
0.000

@<TRIPOS>MOLECULE
guest-s20_confgen4.mol2 : confsearch ligand conformer 609
          17          16           1
SMALL
USER_CHARGES
 
@<TRIPOS>ATOM
       1    C1      22.719624   19.554216   23.559625 C.2        1 MOL1         0.6132
       2    O1      23.489835   18.882193   22.902379 O.co2      1 MOL1        -0.6749
       3    O2      22.945202   20.700534   23.894393 O.co2      1 MOL1        -0.6749
       4    C2      21.404059   18.924131   23.997928 C.3        1 MOL1        -0.1955
       5    H1      21.221211   19.220140   25.037366 H          1 MOL1         0.0733
       6    H2      21.526486   17.834350   23.991368 H          1 MOL1         0.0733
       7    C3      20.238449   19.345543   23.123555 C.2        1 MOL1        -0.1395
       8    H3      19.957014   20.395522   23.198080 H          1 MOL1         0.0816
       9    C4      19.580851   18.523018   22.300613 C.2        1 MOL1        -0.1394
      10    H4      19.866024   17.474372   22.222661 H          1 MOL1         0.0816
      11    C5      18.420694   18.945933   21.427392 C.3        1 MOL1        -0.1826
      12    H5      17.593507   18.231746   21.537937 H          1 MOL1         0.0736
      13    H6      18.036826   19.924950   21.745792 H          1 MOL1         0.0736
      14    C6      18.841023   19.020264   19.946585 C.3        1 MOL1        -0.2882
      15    H7      19.193351   18.043481   19.589954 H          1 MOL1         0.0749
      16    H8      17.995626   19.327989   19.317557 H          1 MOL1         0.0749
      17    H9      19.651793   19.747626   19.807737 H          1 MOL1         0.0749
@<TRIPOS>BOND
    1     1     2    1
    2     1     3    2
    3     1     4    1
    4     4     5    1
    5     4     6    1
    6     4     7    1
    7     7     8    1
    8     7     9    2
    9     9    10    1
   10     9    11    1
   11    11    12    1
   12    11    13    1
   13    11    14    1
   14    14    15    1
   15    14    16    1
   16    14    17    1
@<TRIPOS>SUBSTRUCTURE
       1 MOL1            1 RESIDUE      1      MOL     
@<SCITEGIC>MOL_PROPERTY
VConf Rank
SciTegic.value.IntegerValue
609

@<SCITEGIC>MOL_PROPERTY
Conf_Id
SciTegic.value.IntegerValue
7

@<SCITEGIC>MOL_PROPERTY
Delta U+W
SciTegic.value.DoubleValue
-0.041

@<SCITEGIC>MOL_PROPERTY
U+W
SciTegic.value.DoubleValue
-49.468

@<SCITEGIC>MOL_PROPERTY
Grad RMS
SciTegic.value.DoubleValue
0.000000

@<SCITEGIC>MOL_PROPERTY
U
SciTegic.value.DoubleValue
14.121

@<SCITEGIC>MOL_PROPERTY
W
SciTegic.value.DoubleValue
-63.589

@<SCITEGIC>MOL_PROPERTY
W(PB)
SciTegic.value.DoubleValue
-65.660

@<SCITEGIC>MOL_PROPERTY
W(SA)
SciTegic.value.DoubleValue
2.071

@<SCITEGIC>MOL_PROPERTY
Valence
SciTegic.value.DoubleValue
15.230

@<SCITEGIC>MOL_PROPERTY
Coulomb
SciTegic.value.DoubleValue
-1.333

@<SCITEGIC>MOL_PROPERTY
VdW
SciTegic.value.DoubleValue
0.224

@<SCITEGIC>MOL_PROPERTY
VdW6
SciTegic.value.DoubleValue
-4.212

@<SCITEGIC>MOL_PROPERTY
VdW12
SciTegic.value.DoubleValue
4.436

@<SCITEGIC>MOL_PROPERTY
Bond
SciTegic.value.DoubleValue
0.044

@<SCITEGIC>MOL_PROPERTY
Angle
SciTegic.value.DoubleValue
2.230

@<SCITEGIC>MOL_PROPERTY
Pdih
SciTegic.value.DoubleValue
12.956

@<SCITEGIC>MOL_PROPERTY
Idih
SciTegic.value.DoubleValue
0.000

@<SCITEGIC>MOL_PROPERTY
Tether
SciTegic.value.DoubleValue
0.000

@<TRIPOS>MOLECULE
guest-s20_confgen4.mol2 : confsearch ligand conformer 610
          17          16           1
SMALL
USER_CHARGES
 
@<TRIPOS>ATOM
       1    C1      17.491626   19.296220   21.450072 C.2        1 MOL1         0.6132
       2    O1      17.518968   20.171524   20.607405 O.co2      1 MOL1        -0.6749
       3    O2      16.720954   19.292978   22.389826 O.co2      1 MOL1        -0.6749
       4    C2      18.457689   18.124332   21.305236 C.3        1 MOL1        -0.1955
       5    H1      18.622619   17.954765   20.234809 H          1 MOL1         0.0733
       6    H2      17.953402   17.225433   21.678593 H          1 MOL1         0.0733
       7    C3      19.797869   18.286815   22.008368 C.2        1 MOL1        -0.1395
       8    H3      20.471993   17.439095   21.892300 H          1 MOL1         0.0816
       9    C4      20.187512   19.348968   22.723213 C.2        1 MOL1        -0.1394
      10    H4      19.533185   20.210059   22.854025 H          1 MOL1         0.0816
      11    C5      21.533201   19.460186   23.404898 C.3        1 MOL1        -0.1826
      12    H5      21.396551   19.795631   24.441876 H          1 MOL1         0.0736
      13    H6      22.022755   18.477775   23.453480 H          1 MOL1         0.0736
      14    C6      22.450291   20.450645   22.661275 C.3        1 MOL1        -0.2882
      15    H7      23.424627   20.528436   23.160952 H          1 MOL1         0.0749
      16    H8      22.622372   20.121872   21.627887 H          1 MOL1         0.0749
      17    H9      22.001792   21.452340   22.631040 H          1 MOL1         0.0749
@<TRIPOS>BOND
    1     1     2    1
    2     1     3    2
    3     1     4    1
    4     4     5    1
    5     4     6    1
    6     4     7    1
    7     7     8    1
    8     7     9    2
    9     9    10    1
   10     9    11    1
   11    11    12    1
   12    11    13    1
   13    11    14    1
   14    14    15    1
   15    14    16    1
   16    14    17    1
@<TRIPOS>SUBSTRUCTURE
       1 MOL1            1 RESIDUE      1      MOL     
@<SCITEGIC>MOL_PROPERTY
VConf Rank
SciTegic.value.IntegerValue
610

@<SCITEGIC>MOL_PROPERTY
Conf_Id
SciTegic.value.IntegerValue
39

@<SCITEGIC>MOL_PROPERTY
Delta U+W
SciTegic.value.DoubleValue
-0.422

@<SCITEGIC>MOL_PROPERTY
U+W
SciTegic.value.DoubleValue
-49.849

@<SCITEGIC>MOL_PROPERTY
Grad RMS
SciTegic.value.DoubleValue
0.000000

@<SCITEGIC>MOL_PROPERTY
U
SciTegic.value.DoubleValue
14.465

@<SCITEGIC>MOL_PROPERTY
W
SciTegic.value.DoubleValue
-64.314

@<SCITEGIC>MOL_PROPERTY
W(PB)
SciTegic.value.DoubleValue
-66.406

@<SCITEGIC>MOL_PROPERTY
W(SA)
SciTegic.value.DoubleValue
2.093

@<SCITEGIC>MOL_PROPERTY
Valence
SciTegic.value.DoubleValue
14.072

@<SCITEGIC>MOL_PROPERTY
Coulomb
SciTegic.value.DoubleValue
-0.199

@<SCITEGIC>MOL_PROPERTY
VdW
SciTegic.value.DoubleValue
0.592

@<SCITEGIC>MOL_PROPERTY
VdW6
SciTegic.value.DoubleValue
-5.019

@<SCITEGIC>MOL_PROPERTY
VdW12
SciTegic.value.DoubleValue
5.611

@<SCITEGIC>MOL_PROPERTY
Bond
SciTegic.value.DoubleValue
0.085

@<SCITEGIC>MOL_PROPERTY
Angle
SciTegic.value.DoubleValue
2.748

@<SCITEGIC>MOL_PROPERTY
Pdih
SciTegic.value.DoubleValue
11.238

@<SCITEGIC>MOL_PROPERTY
Idih
SciTegic.value.DoubleValue
0.001

@<SCITEGIC>MOL_PROPERTY
Tether
SciTegic.value.DoubleValue
0.000

@<TRIPOS>MOLECULE
guest-s20_confgen4.mol2 : confsearch ligand conformer 611
          17          16           1
SMALL
USER_CHARGES
 
@<TRIPOS>ATOM
       1    C1      19.211539   17.174049   24.296915 C.2        1 MOL1         0.6132
       2    O1      18.508992   17.593835   25.195340 O.co2      1 MOL1        -0.6749
       3    O2      20.104654   16.366939   24.463466 O.co2      1 MOL1        -0.6749
       4    C2      18.953372   17.684511   22.885398 C.3        1 MOL1        -0.1955
       5    H1      17.867994   17.735925   22.741100 H          1 MOL1         0.0733
       6    H2      19.336364   16.940865   22.176209 H          1 MOL1         0.0733
       7    C3      19.576840   19.044693   22.636525 C.2        1 MOL1        -0.1395
       8    H3      19.132549   19.868910   23.193727 H          1 MOL1         0.0816
       9    C4      20.600058   19.261019   21.804386 C.2        1 MOL1        -0.1394
      10    H4      21.045785   18.435914   21.249779 H          1 MOL1         0.0816
      11    C5      21.222906   20.617420   21.560338 C.3        1 MOL1        -0.1826
      12    H5      20.900884   21.332364   22.329999 H          1 MOL1         0.0736
      13    H6      22.316075   20.542601   21.637263 H          1 MOL1         0.0736
      14    C6      20.841701   21.159685   20.169047 C.3        1 MOL1        -0.2882
      15    H7      19.752844   21.267485   20.077548 H          1 MOL1         0.0749
      16    H8      21.297041   22.143717   19.997486 H          1 MOL1         0.0749
      17    H9      21.186115   20.482178   19.376713 H          1 MOL1         0.0749
@<TRIPOS>BOND
    1     1     2    1
    2     1     3    2
    3     1     4    1
    4     4     5    1
    5     4     6    1
    6     4     7    1
    7     7     8    1
    8     7     9    2
    9     9    10    1
   10     9    11    1
   11    11    12    1
   12    11    13    1
   13    11    14    1
   14    14    15    1
   15    14    16    1
   16    14    17    1
@<TRIPOS>SUBSTRUCTURE
       1 MOL1            1 RESIDUE      1      MOL     
@<SCITEGIC>MOL_PROPERTY
VConf Rank
SciTegic.value.IntegerValue
611

@<SCITEGIC>MOL_PROPERTY
Conf_Id
SciTegic.value.IntegerValue
38

@<SCITEGIC>MOL_PROPERTY
Delta U+W
SciTegic.value.DoubleValue
0.000

@<SCITEGIC>MOL_PROPERTY
U+W
SciTegic.value.DoubleValue
-49.427

@<SCITEGIC>MOL_PROPERTY
Grad RMS
SciTegic.value.DoubleValue
0.000000

@<SCITEGIC>MOL_PROPERTY
U
SciTegic.value.DoubleValue
13.666

@<SCITEGIC>MOL_PROPERTY
W
SciTegic.value.DoubleValue
-63.093

@<SCITEGIC>MOL_PROPERTY
W(PB)
SciTegic.value.DoubleValue
-65.225

@<SCITEGIC>MOL_PROPERTY
W(SA)
SciTegic.value.DoubleValue
2.132

@<SCITEGIC>MOL_PROPERTY
Valence
SciTegic.value.DoubleValue
15.226

@<SCITEGIC>MOL_PROPERTY
Coulomb
SciTegic.value.DoubleValue
-1.822

@<SCITEGIC>MOL_PROPERTY
VdW
SciTegic.value.DoubleValue
0.261

@<SCITEGIC>MOL_PROPERTY
VdW6
SciTegic.value.DoubleValue
-4.165

@<SCITEGIC>MOL_PROPERTY
VdW12
SciTegic.value.DoubleValue
4.426

@<SCITEGIC>MOL_PROPERTY
Bond
SciTegic.value.DoubleValue
0.044

@<SCITEGIC>MOL_PROPERTY
Angle
SciTegic.value.DoubleValue
2.229

@<SCITEGIC>MOL_PROPERTY
Pdih
SciTegic.value.DoubleValue
12.953

@<SCITEGIC>MOL_PROPERTY
Idih
SciTegic.value.DoubleValue
0.000

@<SCITEGIC>MOL_PROPERTY
Tether
SciTegic.value.DoubleValue
0.000

@<TRIPOS>MOLECULE
guest-s20_confgen4.mol2 : confsearch ligand conformer 612
          17          16           1
SMALL
USER_CHARGES
 
@<TRIPOS>ATOM
       1    C1      22.936169   18.498018   20.964615 C.2        1 MOL1         0.6132
       2    O1      23.510234   17.793616   21.771513 O.co2      1 MOL1        -0.6749
       3    O2      23.495537   19.339031   20.288771 O.co2      1 MOL1        -0.6749
       4    C2      21.434904   18.314808   20.785056 C.3        1 MOL1        -0.1955
       5    H1      21.172001   17.300312   21.108044 H          1 MOL1         0.0733
       6    H2      21.215783   18.376789   19.712838 H          1 MOL1         0.0733
       7    C3      20.628402   19.352563   21.542264 C.2        1 MOL1        -0.1395
       8    H3      20.715654   20.372488   21.168978 H          1 MOL1         0.0816
       9    C4      19.855786   19.079559   22.598086 C.2        1 MOL1        -0.1394
      10    H4      19.771494   18.059973   22.972786 H          1 MOL1         0.0816
      11    C5      19.055402   20.116283   23.354334 C.3        1 MOL1        -0.1826
      12    H5      19.226674   20.002205   24.433308 H          1 MOL1         0.0736
      13    H6      19.388440   21.128771   23.087550 H          1 MOL1         0.0736
      14    C6      17.549657   19.979464   23.055887 C.3        1 MOL1        -0.2882
      15    H7      17.180750   18.987787   23.348997 H          1 MOL1         0.0749
      16    H8      16.974071   20.733814   23.607922 H          1 MOL1         0.0749
      17    H9      17.350567   20.115623   21.984709 H          1 MOL1         0.0749
@<TRIPOS>BOND
    1     1     2    1
    2     1     3    2
    3     1     4    1
    4     4     5    1
    5     4     6    1
    6     4     7    1
    7     7     8    1
    8     7     9    2
    9     9    10    1
   10     9    11    1
   11    11    12    1
   12    11    13    1
   13    11    14    1
   14    14    15    1
   15    14    16    1
   16    14    17    1
@<TRIPOS>SUBSTRUCTURE
       1 MOL1            1 RESIDUE      1      MOL     
@<SCITEGIC>MOL_PROPERTY
VConf Rank
SciTegic.value.IntegerValue
612

@<SCITEGIC>MOL_PROPERTY
Conf_Id
SciTegic.value.IntegerValue
35

@<SCITEGIC>MOL_PROPERTY
Delta U+W
SciTegic.value.DoubleValue
-0.102

@<SCITEGIC>MOL_PROPERTY
U+W
SciTegic.value.DoubleValue
-49.529

@<SCITEGIC>MOL_PROPERTY
Grad RMS
SciTegic.value.DoubleValue
0.000000

@<SCITEGIC>MOL_PROPERTY
U
SciTegic.value.DoubleValue
13.666

@<SCITEGIC>MOL_PROPERTY
W
SciTegic.value.DoubleValue
-63.195

@<SCITEGIC>MOL_PROPERTY
W(PB)
SciTegic.value.DoubleValue
-65.299

@<SCITEGIC>MOL_PROPERTY
W(SA)
SciTegic.value.DoubleValue
2.103

@<SCITEGIC>MOL_PROPERTY
Valence
SciTegic.value.DoubleValue
15.226

@<SCITEGIC>MOL_PROPERTY
Coulomb
SciTegic.value.DoubleValue
-1.822

@<SCITEGIC>MOL_PROPERTY
VdW
SciTegic.value.DoubleValue
0.261

@<SCITEGIC>MOL_PROPERTY
VdW6
SciTegic.value.DoubleValue
-4.165

@<SCITEGIC>MOL_PROPERTY
VdW12
SciTegic.value.DoubleValue
4.426

@<SCITEGIC>MOL_PROPERTY
Bond
SciTegic.value.DoubleValue
0.044

@<SCITEGIC>MOL_PROPERTY
Angle
SciTegic.value.DoubleValue
2.229

@<SCITEGIC>MOL_PROPERTY
Pdih
SciTegic.value.DoubleValue
12.953

@<SCITEGIC>MOL_PROPERTY
Idih
SciTegic.value.DoubleValue
0.000

@<SCITEGIC>MOL_PROPERTY
Tether
SciTegic.value.DoubleValue
0.000

@<TRIPOS>MOLECULE
guest-s20_confgen4.mol2 : confsearch ligand conformer 613
          17          16           1
SMALL
USER_CHARGES
 
@<TRIPOS>ATOM
       1    C1      18.445226   20.459061   20.280748 C.2        1 MOL1         0.6132
       2    O1      19.028392   21.394863   19.769709 O.co2      1 MOL1        -0.6749
       3    O2      17.776443   19.660959   19.654161 O.co2      1 MOL1        -0.6749
       4    C2      18.551954   20.284330   21.789977 C.3        1 MOL1        -0.1955
       5    H1      17.678865   19.715685   22.131946 H          1 MOL1         0.0733
       6    H2      18.486191   21.278244   22.247491 H          1 MOL1         0.0733
       7    C3      19.842729   19.604308   22.205761 C.2        1 MOL1        -0.1395
       8    H3      20.741988   20.193810   22.035730 H          1 MOL1         0.0816
       9    C4      19.902992   18.376507   22.736406 C.2        1 MOL1        -0.1394
      10    H4      18.981885   17.814589   22.887714 H          1 MOL1         0.0816
      11    C5      21.156688   17.635923   23.170425 C.3        1 MOL1        -0.1826
      12    H5      21.063772   17.368747   24.231788 H          1 MOL1         0.0736
      13    H6      21.211897   16.681442   22.629648 H          1 MOL1         0.0736
      14    C6      22.476904   18.409774   22.960163 C.3        1 MOL1        -0.2882
      15    H7      22.479351   19.347332   23.531461 H          1 MOL1         0.0749
      16    H8      23.332495   17.809521   23.295854 H          1 MOL1         0.0749
      17    H9      22.629092   18.648026   21.899236 H          1 MOL1         0.0749
@<TRIPOS>BOND
    1     1     2    1
    2     1     3    2
    3     1     4    1
    4     4     5    1
    5     4     6    1
    6     4     7    1
    7     7     8    1
    8     7     9    2
    9     9    10    1
   10     9    11    1
   11    11    12    1
   12    11    13    1
   13    11    14    1
   14    14    15    1
   15    14    16    1
   16    14    17    1
@<TRIPOS>SUBSTRUCTURE
       1 MOL1            1 RESIDUE      1      MOL     
@<SCITEGIC>MOL_PROPERTY
VConf Rank
SciTegic.value.IntegerValue
613

@<SCITEGIC>MOL_PROPERTY
Conf_Id
SciTegic.value.IntegerValue
19

@<SCITEGIC>MOL_PROPERTY
Delta U+W
SciTegic.value.DoubleValue
-0.496

@<SCITEGIC>MOL_PROPERTY
U+W
SciTegic.value.DoubleValue
-49.923

@<SCITEGIC>MOL_PROPERTY
Grad RMS
SciTegic.value.DoubleValue
0.000000

@<SCITEGIC>MOL_PROPERTY
U
SciTegic.value.DoubleValue
13.863

@<SCITEGIC>MOL_PROPERTY
W
SciTegic.value.DoubleValue
-63.786

@<SCITEGIC>MOL_PROPERTY
W(PB)
SciTegic.value.DoubleValue
-65.856

@<SCITEGIC>MOL_PROPERTY
W(SA)
SciTegic.value.DoubleValue
2.070

@<SCITEGIC>MOL_PROPERTY
Valence
SciTegic.value.DoubleValue
14.117

@<SCITEGIC>MOL_PROPERTY
Coulomb
SciTegic.value.DoubleValue
-1.228

@<SCITEGIC>MOL_PROPERTY
VdW
SciTegic.value.DoubleValue
0.974

@<SCITEGIC>MOL_PROPERTY
VdW6
SciTegic.value.DoubleValue
-4.885

@<SCITEGIC>MOL_PROPERTY
VdW12
SciTegic.value.DoubleValue
5.859

@<SCITEGIC>MOL_PROPERTY
Bond
SciTegic.value.DoubleValue
0.094

@<SCITEGIC>MOL_PROPERTY
Angle
SciTegic.value.DoubleValue
2.818

@<SCITEGIC>MOL_PROPERTY
Pdih
SciTegic.value.DoubleValue
11.205

@<SCITEGIC>MOL_PROPERTY
Idih
SciTegic.value.DoubleValue
0.000

@<SCITEGIC>MOL_PROPERTY
Tether
SciTegic.value.DoubleValue
0.000

@<TRIPOS>MOLECULE
guest-s20_confgen4.mol2 : confsearch ligand conformer 614
          17          16           1
SMALL
USER_CHARGES
 
@<TRIPOS>ATOM
       1    C1      20.721035   20.264020   19.591998 C.2        1 MOL1         0.6132
       2    O1      20.759099   19.290840   18.865166 O.co2      1 MOL1        -0.6749
       3    O2      20.115187   21.282046   19.320753 O.co2      1 MOL1        -0.6749
       4    C2      21.482091   20.211318   20.910270 C.3        1 MOL1        -0.1955
       5    H1      21.978969   21.178501   21.048669 H          1 MOL1         0.0733
       6    H2      22.271171   19.454986   20.821005 H          1 MOL1         0.0733
       7    C3      20.577634   19.916553   22.091725 C.2        1 MOL1        -0.1395
       8    H3      19.864331   20.702307   22.338721 H          1 MOL1         0.0816
       9    C4      20.613742   18.784617   22.801395 C.2        1 MOL1        -0.1394
      10    H4      21.323720   17.997113   22.550740 H          1 MOL1         0.0816
      11    C5      19.708972   18.491472   23.977317 C.3        1 MOL1        -0.1826
      12    H5      20.306033   18.120563   24.821395 H          1 MOL1         0.0736
      13    H6      19.214599   19.410733   24.320484 H          1 MOL1         0.0736
      14    C6      18.639602   17.445899   23.605542 C.3        1 MOL1        -0.2882
      15    H7      19.106195   16.501785   23.295116 H          1 MOL1         0.0749
      16    H8      17.985621   17.237276   24.462193 H          1 MOL1         0.0749
      17    H9      18.013575   17.805980   22.778431 H          1 MOL1         0.0749
@<TRIPOS>BOND
    1     1     2    1
    2     1     3    2
    3     1     4    1
    4     4     5    1
    5     4     6    1
    6     4     7    1
    7     7     8    1
    8     7     9    2
    9     9    10    1
   10     9    11    1
   11    11    12    1
   12    11    13    1
   13    11    14    1
   14    14    15    1
   15    14    16    1
   16    14    17    1
@<TRIPOS>SUBSTRUCTURE
       1 MOL1            1 RESIDUE      1      MOL     
@<SCITEGIC>MOL_PROPERTY
VConf Rank
SciTegic.value.IntegerValue
614

@<SCITEGIC>MOL_PROPERTY
Conf_Id
SciTegic.value.IntegerValue
7

@<SCITEGIC>MOL_PROPERTY
Delta U+W
SciTegic.value.DoubleValue
-0.041

@<SCITEGIC>MOL_PROPERTY
U+W
SciTegic.value.DoubleValue
-49.468

@<SCITEGIC>MOL_PROPERTY
Grad RMS
SciTegic.value.DoubleValue
0.000000

@<SCITEGIC>MOL_PROPERTY
U
SciTegic.value.DoubleValue
14.121

@<SCITEGIC>MOL_PROPERTY
W
SciTegic.value.DoubleValue
-63.589

@<SCITEGIC>MOL_PROPERTY
W(PB)
SciTegic.value.DoubleValue
-65.660

@<SCITEGIC>MOL_PROPERTY
W(SA)
SciTegic.value.DoubleValue
2.071

@<SCITEGIC>MOL_PROPERTY
Valence
SciTegic.value.DoubleValue
15.230

@<SCITEGIC>MOL_PROPERTY
Coulomb
SciTegic.value.DoubleValue
-1.333

@<SCITEGIC>MOL_PROPERTY
VdW
SciTegic.value.DoubleValue
0.224

@<SCITEGIC>MOL_PROPERTY
VdW6
SciTegic.value.DoubleValue
-4.212

@<SCITEGIC>MOL_PROPERTY
VdW12
SciTegic.value.DoubleValue
4.436

@<SCITEGIC>MOL_PROPERTY
Bond
SciTegic.value.DoubleValue
0.044

@<SCITEGIC>MOL_PROPERTY
Angle
SciTegic.value.DoubleValue
2.230

@<SCITEGIC>MOL_PROPERTY
Pdih
SciTegic.value.DoubleValue
12.956

@<SCITEGIC>MOL_PROPERTY
Idih
SciTegic.value.DoubleValue
0.000

@<SCITEGIC>MOL_PROPERTY
Tether
SciTegic.value.DoubleValue
0.000

@<TRIPOS>MOLECULE
guest-s20_confgen4.mol2 : confsearch ligand conformer 615
          17          16           1
SMALL
USER_CHARGES
 
@<TRIPOS>ATOM
       1    C1      20.878853   21.851089   21.619609 C.2        1 MOL1         0.6132
       2    O1      21.418239   22.199840   22.651321 O.co2      1 MOL1        -0.6749
       3    O2      19.977526   22.471309   21.090442 O.co2      1 MOL1        -0.6749
       4    C2      21.378663   20.581431   20.937161 C.3        1 MOL1        -0.1955
       5    H1      22.451683   20.489610   21.142017 H          1 MOL1         0.0733
       6    H2      21.289838   20.725262   19.854044 H          1 MOL1         0.0733
       7    C3      20.670454   19.296037   21.340994 C.2        1 MOL1        -0.1395
       8    H3      21.042569   18.402068   20.842099 H          1 MOL1         0.0816
       9    C4      19.671636   19.192750   22.225692 C.2        1 MOL1        -0.1394
      10    H4      19.281595   20.070782   22.739171 H          1 MOL1         0.0816
      11    C5      18.999394   17.888039   22.591421 C.3        1 MOL1        -0.1826
      12    H5      17.908432   18.010332   22.554446 H          1 MOL1         0.0736
      13    H6      19.253659   17.106163   21.862605 H          1 MOL1         0.0736
      14    C6      19.417003   17.426246   24.001169 C.3        1 MOL1        -0.2882
      15    H7      18.925273   16.480026   24.261801 H          1 MOL1         0.0749
      16    H8      20.502823   17.272387   24.055171 H          1 MOL1         0.0749
      17    H9      19.139767   18.173701   24.756093 H          1 MOL1         0.0749
@<TRIPOS>BOND
    1     1     2    1
    2     1     3    2
    3     1     4    1
    4     4     5    1
    5     4     6    1
    6     4     7    1
    7     7     8    1
    8     7     9    2
    9     9    10    1
   10     9    11    1
   11    11    12    1
   12    11    13    1
   13    11    14    1
   14    14    15    1
   15    14    16    1
   16    14    17    1
@<TRIPOS>SUBSTRUCTURE
       1 MOL1            1 RESIDUE      1      MOL     
@<SCITEGIC>MOL_PROPERTY
VConf Rank
SciTegic.value.IntegerValue
615

@<SCITEGIC>MOL_PROPERTY
Conf_Id
SciTegic.value.IntegerValue
39

@<SCITEGIC>MOL_PROPERTY
Delta U+W
SciTegic.value.DoubleValue
-0.422

@<SCITEGIC>MOL_PROPERTY
U+W
SciTegic.value.DoubleValue
-49.849

@<SCITEGIC>MOL_PROPERTY
Grad RMS
SciTegic.value.DoubleValue
0.000000

@<SCITEGIC>MOL_PROPERTY
U
SciTegic.value.DoubleValue
14.465

@<SCITEGIC>MOL_PROPERTY
W
SciTegic.value.DoubleValue
-64.314

@<SCITEGIC>MOL_PROPERTY
W(PB)
SciTegic.value.DoubleValue
-66.406

@<SCITEGIC>MOL_PROPERTY
W(SA)
SciTegic.value.DoubleValue
2.093

@<SCITEGIC>MOL_PROPERTY
Valence
SciTegic.value.DoubleValue
14.072

@<SCITEGIC>MOL_PROPERTY
Coulomb
SciTegic.value.DoubleValue
-0.199

@<SCITEGIC>MOL_PROPERTY
VdW
SciTegic.value.DoubleValue
0.592

@<SCITEGIC>MOL_PROPERTY
VdW6
SciTegic.value.DoubleValue
-5.019

@<SCITEGIC>MOL_PROPERTY
VdW12
SciTegic.value.DoubleValue
5.611

@<SCITEGIC>MOL_PROPERTY
Bond
SciTegic.value.DoubleValue
0.085

@<SCITEGIC>MOL_PROPERTY
Angle
SciTegic.value.DoubleValue
2.748

@<SCITEGIC>MOL_PROPERTY
Pdih
SciTegic.value.DoubleValue
11.238

@<SCITEGIC>MOL_PROPERTY
Idih
SciTegic.value.DoubleValue
0.001

@<SCITEGIC>MOL_PROPERTY
Tether
SciTegic.value.DoubleValue
0.000

@<TRIPOS>MOLECULE
guest-s20_confgen4.mol2 : confsearch ligand conformer 616
          17          16           1
SMALL
USER_CHARGES
 
@<TRIPOS>ATOM
       1    C1      17.586839   21.089757   22.702538 C.2        1 MOL1         0.6132
       2    O1      17.345148   21.965568   21.895381 O.co2      1 MOL1        -0.6749
       3    O2      17.476675   21.234309   23.904115 O.co2      1 MOL1        -0.6749
       4    C2      18.047535   19.736490   22.177151 C.3        1 MOL1        -0.1955
       5    H1      17.449399   19.500554   21.289414 H          1 MOL1         0.0733
       6    H2      17.813203   18.977166   22.932899 H          1 MOL1         0.0733
       7    C3      19.523944   19.720271   21.829737 C.2        1 MOL1        -0.1395
       8    H3      19.807407   20.334039   20.975255 H          1 MOL1         0.0816
       9    C4      20.445239   19.019978   22.498342 C.2        1 MOL1        -0.1394
      10    H4      20.161554   18.408793   23.354518 H          1 MOL1         0.0816
      11    C5      21.917575   19.007989   22.152794 C.3        1 MOL1        -0.1826
      12    H5      22.157238   19.829020   21.463091 H          1 MOL1         0.0736
      13    H6      22.512789   19.175137   23.060713 H          1 MOL1         0.0736
      14    C6      22.324947   17.667397   21.510982 C.3        1 MOL1        -0.2882
      15    H7      21.760292   17.490426   20.586079 H          1 MOL1         0.0749
      16    H8      23.394347   17.664441   21.263070 H          1 MOL1         0.0749
      17    H9      22.131581   16.830773   22.195160 H          1 MOL1         0.0749
@<TRIPOS>BOND
    1     1     2    1
    2     1     3    2
    3     1     4    1
    4     4     5    1
    5     4     6    1
    6     4     7    1
    7     7     8    1
    8     7     9    2
    9     9    10    1
   10     9    11    1
   11    11    12    1
   12    11    13    1
   13    11    14    1
   14    14    15    1
   15    14    16    1
   16    14    17    1
@<TRIPOS>SUBSTRUCTURE
       1 MOL1            1 RESIDUE      1      MOL     
@<SCITEGIC>MOL_PROPERTY
VConf Rank
SciTegic.value.IntegerValue
616

@<SCITEGIC>MOL_PROPERTY
Conf_Id
SciTegic.value.IntegerValue
38

@<SCITEGIC>MOL_PROPERTY
Delta U+W
SciTegic.value.DoubleValue
0.000

@<SCITEGIC>MOL_PROPERTY
U+W
SciTegic.value.DoubleValue
-49.427

@<SCITEGIC>MOL_PROPERTY
Grad RMS
SciTegic.value.DoubleValue
0.000000

@<SCITEGIC>MOL_PROPERTY
U
SciTegic.value.DoubleValue
13.666

@<SCITEGIC>MOL_PROPERTY
W
SciTegic.value.DoubleValue
-63.093

@<SCITEGIC>MOL_PROPERTY
W(PB)
SciTegic.value.DoubleValue
-65.225

@<SCITEGIC>MOL_PROPERTY
W(SA)
SciTegic.value.DoubleValue
2.132

@<SCITEGIC>MOL_PROPERTY
Valence
SciTegic.value.DoubleValue
15.226

@<SCITEGIC>MOL_PROPERTY
Coulomb
SciTegic.value.DoubleValue
-1.822

@<SCITEGIC>MOL_PROPERTY
VdW
SciTegic.value.DoubleValue
0.261

@<SCITEGIC>MOL_PROPERTY
VdW6
SciTegic.value.DoubleValue
-4.165

@<SCITEGIC>MOL_PROPERTY
VdW12
SciTegic.value.DoubleValue
4.426

@<SCITEGIC>MOL_PROPERTY
Bond
SciTegic.value.DoubleValue
0.044

@<SCITEGIC>MOL_PROPERTY
Angle
SciTegic.value.DoubleValue
2.229

@<SCITEGIC>MOL_PROPERTY
Pdih
SciTegic.value.DoubleValue
12.953

@<SCITEGIC>MOL_PROPERTY
Idih
SciTegic.value.DoubleValue
0.000

@<SCITEGIC>MOL_PROPERTY
Tether
SciTegic.value.DoubleValue
0.000

@<TRIPOS>MOLECULE
guest-s20_confgen4.mol2 : confsearch ligand conformer 617
          17          16           1
SMALL
USER_CHARGES
 
@<TRIPOS>ATOM
       1    C1      21.457409   20.774594   24.526832 C.2        1 MOL1         0.6132
       2    O1      22.161871   21.664940   24.093433 O.co2      1 MOL1        -0.6749
       3    O2      21.748791   20.097006   25.492715 O.co2      1 MOL1        -0.6749
       4    C2      20.134410   20.494587   23.826209 C.3        1 MOL1        -0.1955
       5    H1      19.828494   21.403728   23.294685 H          1 MOL1         0.0733
       6    H2      19.379871   20.305481   24.598490 H          1 MOL1         0.0733
       7    C3      20.217502   19.312904   22.878863 C.2        1 MOL1        -0.1395
       8    H3      20.359673   18.343607   23.355781 H          1 MOL1         0.0816
       9    C4      20.130348   19.409057   21.548679 C.2        1 MOL1        -0.1394
      10    H4      19.991373   20.378992   21.072264 H          1 MOL1         0.0816
      11    C5      20.217390   18.230106   20.605376 C.3        1 MOL1        -0.1826
      12    H5      20.923907   18.455149   19.794992 H          1 MOL1         0.0736
      13    H6      20.608968   17.347030   21.128885 H          1 MOL1         0.0736
      14    C6      18.837164   17.897313   20.005971 C.3        1 MOL1        -0.2882
      15    H7      18.438125   18.751549   19.443408 H          1 MOL1         0.0749
      16    H8      18.906791   17.041592   19.321881 H          1 MOL1         0.0749
      17    H9      18.119438   17.643471   20.797194 H          1 MOL1         0.0749
@<TRIPOS>BOND
    1     1     2    1
    2     1     3    2
    3     1     4    1
    4     4     5    1
    5     4     6    1
    6     4     7    1
    7     7     8    1
    8     7     9    2
    9     9    10    1
   10     9    11    1
   11    11    12    1
   12    11    13    1
   13    11    14    1
   14    14    15    1
   15    14    16    1
   16    14    17    1
@<TRIPOS>SUBSTRUCTURE
       1 MOL1            1 RESIDUE      1      MOL     
@<SCITEGIC>MOL_PROPERTY
VConf Rank
SciTegic.value.IntegerValue
617

@<SCITEGIC>MOL_PROPERTY
Conf_Id
SciTegic.value.IntegerValue
35

@<SCITEGIC>MOL_PROPERTY
Delta U+W
SciTegic.value.DoubleValue
-0.102

@<SCITEGIC>MOL_PROPERTY
U+W
SciTegic.value.DoubleValue
-49.529

@<SCITEGIC>MOL_PROPERTY
Grad RMS
SciTegic.value.DoubleValue
0.000000

@<SCITEGIC>MOL_PROPERTY
U
SciTegic.value.DoubleValue
13.666

@<SCITEGIC>MOL_PROPERTY
W
SciTegic.value.DoubleValue
-63.195

@<SCITEGIC>MOL_PROPERTY
W(PB)
SciTegic.value.DoubleValue
-65.299

@<SCITEGIC>MOL_PROPERTY
W(SA)
SciTegic.value.DoubleValue
2.103

@<SCITEGIC>MOL_PROPERTY
Valence
SciTegic.value.DoubleValue
15.226

@<SCITEGIC>MOL_PROPERTY
Coulomb
SciTegic.value.DoubleValue
-1.822

@<SCITEGIC>MOL_PROPERTY
VdW
SciTegic.value.DoubleValue
0.261

@<SCITEGIC>MOL_PROPERTY
VdW6
SciTegic.value.DoubleValue
-4.165

@<SCITEGIC>MOL_PROPERTY
VdW12
SciTegic.value.DoubleValue
4.426

@<SCITEGIC>MOL_PROPERTY
Bond
SciTegic.value.DoubleValue
0.044

@<SCITEGIC>MOL_PROPERTY
Angle
SciTegic.value.DoubleValue
2.229

@<SCITEGIC>MOL_PROPERTY
Pdih
SciTegic.value.DoubleValue
12.953

@<SCITEGIC>MOL_PROPERTY
Idih
SciTegic.value.DoubleValue
0.000

@<SCITEGIC>MOL_PROPERTY
Tether
SciTegic.value.DoubleValue
0.000

@<TRIPOS>MOLECULE
guest-s20_confgen4.mol2 : confsearch ligand conformer 618
          17          16           1
SMALL
USER_CHARGES
 
@<TRIPOS>ATOM
       1    C1      22.349578   20.976136   21.391595 C.2        1 MOL1         0.6132
       2    O1      22.959369   20.524018   20.442535 O.co2      1 MOL1        -0.6749
       3    O2      21.973012   22.129510   21.460695 O.co2      1 MOL1        -0.6749
       4    C2      22.050319   20.047477   22.561096 C.3        1 MOL1        -0.1955
       5    H1      21.908142   20.661249   23.458679 H          1 MOL1         0.0733
       6    H2      22.938813   19.429066   22.733309 H          1 MOL1         0.0733
       7    C3      20.842980   19.164725   22.307154 C.2        1 MOL1        -0.1395
       8    H3      20.981274   18.419723   21.525530 H          1 MOL1         0.0816
       9    C4      19.685238   19.273348   22.970890 C.2        1 MOL1        -0.1394
      10    H4      19.582486   20.034220   23.743936 H          1 MOL1         0.0816
      11    C5      18.439081   18.428468   22.766286 C.3        1 MOL1        -0.1826
      12    H5      18.174259   17.947175   23.717460 H          1 MOL1         0.0736
      13    H6      17.595798   19.089819   22.525433 H          1 MOL1         0.0736
      14    C6      18.557746   17.346069   21.670678 C.3        1 MOL1        -0.2882
      15    H7      19.358365   16.632784   21.906552 H          1 MOL1         0.0749
      16    H8      17.620036   16.781995   21.583790 H          1 MOL1         0.0749
      17    H9      18.770368   17.797339   20.692600 H          1 MOL1         0.0749
@<TRIPOS>BOND
    1     1     2    1
    2     1     3    2
    3     1     4    1
    4     4     5    1
    5     4     6    1
    6     4     7    1
    7     7     8    1
    8     7     9    2
    9     9    10    1
   10     9    11    1
   11    11    12    1
   12    11    13    1
   13    11    14    1
   14    14    15    1
   15    14    16    1
   16    14    17    1
@<TRIPOS>SUBSTRUCTURE
       1 MOL1            1 RESIDUE      1      MOL     
@<SCITEGIC>MOL_PROPERTY
VConf Rank
SciTegic.value.IntegerValue
618

@<SCITEGIC>MOL_PROPERTY
Conf_Id
SciTegic.value.IntegerValue
19

@<SCITEGIC>MOL_PROPERTY
Delta U+W
SciTegic.value.DoubleValue
-0.496

@<SCITEGIC>MOL_PROPERTY
U+W
SciTegic.value.DoubleValue
-49.923

@<SCITEGIC>MOL_PROPERTY
Grad RMS
SciTegic.value.DoubleValue
0.000000

@<SCITEGIC>MOL_PROPERTY
U
SciTegic.value.DoubleValue
13.863

@<SCITEGIC>MOL_PROPERTY
W
SciTegic.value.DoubleValue
-63.786

@<SCITEGIC>MOL_PROPERTY
W(PB)
SciTegic.value.DoubleValue
-65.856

@<SCITEGIC>MOL_PROPERTY
W(SA)
SciTegic.value.DoubleValue
2.070

@<SCITEGIC>MOL_PROPERTY
Valence
SciTegic.value.DoubleValue
14.117

@<SCITEGIC>MOL_PROPERTY
Coulomb
SciTegic.value.DoubleValue
-1.228

@<SCITEGIC>MOL_PROPERTY
VdW
SciTegic.value.DoubleValue
0.974

@<SCITEGIC>MOL_PROPERTY
VdW6
SciTegic.value.DoubleValue
-4.885

@<SCITEGIC>MOL_PROPERTY
VdW12
SciTegic.value.DoubleValue
5.859

@<SCITEGIC>MOL_PROPERTY
Bond
SciTegic.value.DoubleValue
0.094

@<SCITEGIC>MOL_PROPERTY
Angle
SciTegic.value.DoubleValue
2.818

@<SCITEGIC>MOL_PROPERTY
Pdih
SciTegic.value.DoubleValue
11.205

@<SCITEGIC>MOL_PROPERTY
Idih
SciTegic.value.DoubleValue
0.000

@<SCITEGIC>MOL_PROPERTY
Tether
SciTegic.value.DoubleValue
0.000

@<TRIPOS>MOLECULE
guest-s20_confgen4.mol2 : confsearch ligand conformer 619
          17          16           1
SMALL
USER_CHARGES
 
@<TRIPOS>ATOM
       1    C1      21.601409   18.367513   19.752195 C.2        1 MOL1         0.6132
       2    O1      22.170178   19.407192   19.483158 O.co2      1 MOL1        -0.6749
       3    O2      22.143775   17.280115   19.732011 O.co2      1 MOL1        -0.6749
       4    C2      20.125788   18.426795   20.124825 C.3        1 MOL1        -0.1955
       5    H1      19.621272   17.590264   19.627668 H          1 MOL1         0.0733
       6    H2      19.703514   19.349355   19.708625 H          1 MOL1         0.0733
       7    C3      19.901725   18.353969   21.623243 C.2        1 MOL1        -0.1395
       8    H3      20.155464   17.400513   22.085579 H          1 MOL1         0.0816
       9    C4      19.436144   19.364879   22.363184 C.2        1 MOL1        -0.1394
      10    H4      19.187454   20.319722   21.901138 H          1 MOL1         0.0816
      11    C5      19.216215   19.291117   23.857683 C.3        1 MOL1        -0.1826
      12    H5      18.219170   19.679666   24.105577 H          1 MOL1         0.0736
      13    H6      19.241665   18.247021   24.198893 H          1 MOL1         0.0736
      14    C6      20.286344   20.101138   24.615101 C.3        1 MOL1        -0.2882
      15    H7      20.257656   21.158692   24.321533 H          1 MOL1         0.0749
      16    H8      20.122293   20.043826   25.699015 H          1 MOL1         0.0749
      17    H9      21.291509   19.714232   24.401493 H          1 MOL1         0.0749
@<TRIPOS>BOND
    1     1     2    1
    2     1     3    2
    3     1     4    1
    4     4     5    1
    5     4     6    1
    6     4     7    1
    7     7     8    1
    8     7     9    2
    9     9    10    1
   10     9    11    1
   11    11    12    1
   12    11    13    1
   13    11    14    1
   14    14    15    1
   15    14    16    1
   16    14    17    1
@<TRIPOS>SUBSTRUCTURE
       1 MOL1            1 RESIDUE      1      MOL     
@<SCITEGIC>MOL_PROPERTY
VConf Rank
SciTegic.value.IntegerValue
619

@<SCITEGIC>MOL_PROPERTY
Conf_Id
SciTegic.value.IntegerValue
7

@<SCITEGIC>MOL_PROPERTY
Delta U+W
SciTegic.value.DoubleValue
-0.041

@<SCITEGIC>MOL_PROPERTY
U+W
SciTegic.value.DoubleValue
-49.468

@<SCITEGIC>MOL_PROPERTY
Grad RMS
SciTegic.value.DoubleValue
0.000000

@<SCITEGIC>MOL_PROPERTY
U
SciTegic.value.DoubleValue
14.121

@<SCITEGIC>MOL_PROPERTY
W
SciTegic.value.DoubleValue
-63.589

@<SCITEGIC>MOL_PROPERTY
W(PB)
SciTegic.value.DoubleValue
-65.660

@<SCITEGIC>MOL_PROPERTY
W(SA)
SciTegic.value.DoubleValue
2.071

@<SCITEGIC>MOL_PROPERTY
Valence
SciTegic.value.DoubleValue
15.230

@<SCITEGIC>MOL_PROPERTY
Coulomb
SciTegic.value.DoubleValue
-1.333

@<SCITEGIC>MOL_PROPERTY
VdW
SciTegic.value.DoubleValue
0.224

@<SCITEGIC>MOL_PROPERTY
VdW6
SciTegic.value.DoubleValue
-4.212

@<SCITEGIC>MOL_PROPERTY
VdW12
SciTegic.value.DoubleValue
4.436

@<SCITEGIC>MOL_PROPERTY
Bond
SciTegic.value.DoubleValue
0.044

@<SCITEGIC>MOL_PROPERTY
Angle
SciTegic.value.DoubleValue
2.230

@<SCITEGIC>MOL_PROPERTY
Pdih
SciTegic.value.DoubleValue
12.956

@<SCITEGIC>MOL_PROPERTY
Idih
SciTegic.value.DoubleValue
0.000

@<SCITEGIC>MOL_PROPERTY
Tether
SciTegic.value.DoubleValue
0.000

@<TRIPOS>MOLECULE
guest-s20_confgen4.mol2 : confsearch ligand conformer 620
          17          16           1
SMALL
USER_CHARGES
 
@<TRIPOS>ATOM
       1    C1      17.530773   18.565275   21.657031 C.2        1 MOL1         0.6132
       2    O1      17.423725   19.024023   20.536726 O.co2      1 MOL1        -0.6749
       3    O2      16.761874   18.820155   22.563074 O.co2      1 MOL1        -0.6749
       4    C2      18.675624   17.595541   21.933632 C.3        1 MOL1        -0.1955
       5    H1      18.876156   17.039798   21.010211 H          1 MOL1         0.0733
       6    H2      18.320410   16.855182   22.659863 H          1 MOL1         0.0733
       7    C3      19.964836   18.227859   22.438591 C.2        1 MOL1        -0.1395
       8    H3      20.768729   17.518089   22.629712 H          1 MOL1         0.0816
       9    C4      20.169989   19.533030   22.651747 C.2        1 MOL1        -0.1394
      10    H4      19.383317   20.263797   22.467740 H          1 MOL1         0.0816
      11    C5      21.473166   20.111280   23.157019 C.3        1 MOL1        -0.1826
      12    H5      21.273927   20.807919   23.982560 H          1 MOL1         0.0736
      13    H6      22.115234   19.317366   23.562733 H          1 MOL1         0.0736
      14    C6      22.224373   20.849485   22.031952 C.3        1 MOL1        -0.2882
      15    H7      23.168314   21.268130   22.404472 H          1 MOL1         0.0749
      16    H8      22.457454   20.165719   21.205071 H          1 MOL1         0.0749
      17    H9      21.619506   21.674426   21.633121 H          1 MOL1         0.0749
@<TRIPOS>BOND
    1     1     2    1
    2     1     3    2
    3     1     4    1
    4     4     5    1
    5     4     6    1
    6     4     7    1
    7     7     8    1
    8     7     9    2
    9     9    10    1
   10     9    11    1
   11    11    12    1
   12    11    13    1
   13    11    14    1
   14    14    15    1
   15    14    16    1
   16    14    17    1
@<TRIPOS>SUBSTRUCTURE
       1 MOL1            1 RESIDUE      1      MOL     
@<SCITEGIC>MOL_PROPERTY
VConf Rank
SciTegic.value.IntegerValue
620

@<SCITEGIC>MOL_PROPERTY
Conf_Id
SciTegic.value.IntegerValue
39

@<SCITEGIC>MOL_PROPERTY
Delta U+W
SciTegic.value.DoubleValue
-0.422

@<SCITEGIC>MOL_PROPERTY
U+W
SciTegic.value.DoubleValue
-49.849

@<SCITEGIC>MOL_PROPERTY
Grad RMS
SciTegic.value.DoubleValue
0.000000

@<SCITEGIC>MOL_PROPERTY
U
SciTegic.value.DoubleValue
14.465

@<SCITEGIC>MOL_PROPERTY
W
SciTegic.value.DoubleValue
-64.314

@<SCITEGIC>MOL_PROPERTY
W(PB)
SciTegic.value.DoubleValue
-66.406

@<SCITEGIC>MOL_PROPERTY
W(SA)
SciTegic.value.DoubleValue
2.093

@<SCITEGIC>MOL_PROPERTY
Valence
SciTegic.value.DoubleValue
14.072

@<SCITEGIC>MOL_PROPERTY
Coulomb
SciTegic.value.DoubleValue
-0.199

@<SCITEGIC>MOL_PROPERTY
VdW
SciTegic.value.DoubleValue
0.592

@<SCITEGIC>MOL_PROPERTY
VdW6
SciTegic.value.DoubleValue
-5.019

@<SCITEGIC>MOL_PROPERTY
VdW12
SciTegic.value.DoubleValue
5.611

@<SCITEGIC>MOL_PROPERTY
Bond
SciTegic.value.DoubleValue
0.085

@<SCITEGIC>MOL_PROPERTY
Angle
SciTegic.value.DoubleValue
2.748

@<SCITEGIC>MOL_PROPERTY
Pdih
SciTegic.value.DoubleValue
11.238

@<SCITEGIC>MOL_PROPERTY
Idih
SciTegic.value.DoubleValue
0.001

@<SCITEGIC>MOL_PROPERTY
Tether
SciTegic.value.DoubleValue
0.000

@<TRIPOS>MOLECULE
guest-s20_confgen4.mol2 : confsearch ligand conformer 621
          17          16           1
SMALL
USER_CHARGES
 
@<TRIPOS>ATOM
       1    C1      19.242954   16.711458   23.749079 C.2        1 MOL1         0.6132
       2    O1      18.069644   16.400156   23.690816 O.co2      1 MOL1        -0.6749
       3    O2      19.904956   16.649255   24.766283 O.co2      1 MOL1        -0.6749
       4    C2      19.919976   17.200775   22.475574 C.3        1 MOL1        -0.1955
       5    H1      19.569730   16.573431   21.647760 H          1 MOL1         0.0733
       6    H2      20.998847   17.030059   22.573204 H          1 MOL1         0.0733
       7    C3      19.624562   18.659793   22.184465 C.2        1 MOL1        -0.1395
       8    H3      18.591598   18.880843   21.917401 H          1 MOL1         0.0816
       9    C4      20.535019   19.636505   22.242162 C.2        1 MOL1        -0.1394
      10    H4      21.567093   19.415207   22.512181 H          1 MOL1         0.0816
      11    C5      20.237786   21.091374   21.955229 C.3        1 MOL1        -0.1826
      12    H5      19.153356   21.267941   21.947783 H          1 MOL1         0.0736
      13    H6      20.653896   21.719381   22.754600 H          1 MOL1         0.0736
      14    C6      20.833914   21.521792   20.600817 C.3        1 MOL1        -0.2882
      15    H7      20.412726   20.923918   19.781825 H          1 MOL1         0.0749
      16    H8      20.615566   22.578417   20.398447 H          1 MOL1         0.0749
      17    H9      21.924089   21.391803   20.593617 H          1 MOL1         0.0749
@<TRIPOS>BOND
    1     1     2    1
    2     1     3    2
    3     1     4    1
    4     4     5    1
    5     4     6    1
    6     4     7    1
    7     7     8    1
    8     7     9    2
    9     9    10    1
   10     9    11    1
   11    11    12    1
   12    11    13    1
   13    11    14    1
   14    14    15    1
   15    14    16    1
   16    14    17    1
@<TRIPOS>SUBSTRUCTURE
       1 MOL1            1 RESIDUE      1      MOL     
@<SCITEGIC>MOL_PROPERTY
VConf Rank
SciTegic.value.IntegerValue
621

@<SCITEGIC>MOL_PROPERTY
Conf_Id
SciTegic.value.IntegerValue
38

@<SCITEGIC>MOL_PROPERTY
Delta U+W
SciTegic.value.DoubleValue
0.000

@<SCITEGIC>MOL_PROPERTY
U+W
SciTegic.value.DoubleValue
-49.427

@<SCITEGIC>MOL_PROPERTY
Grad RMS
SciTegic.value.DoubleValue
0.000000

@<SCITEGIC>MOL_PROPERTY
U
SciTegic.value.DoubleValue
13.666

@<SCITEGIC>MOL_PROPERTY
W
SciTegic.value.DoubleValue
-63.093

@<SCITEGIC>MOL_PROPERTY
W(PB)
SciTegic.value.DoubleValue
-65.225

@<SCITEGIC>MOL_PROPERTY
W(SA)
SciTegic.value.DoubleValue
2.132

@<SCITEGIC>MOL_PROPERTY
Valence
SciTegic.value.DoubleValue
15.226

@<SCITEGIC>MOL_PROPERTY
Coulomb
SciTegic.value.DoubleValue
-1.822

@<SCITEGIC>MOL_PROPERTY
VdW
SciTegic.value.DoubleValue
0.261

@<SCITEGIC>MOL_PROPERTY
VdW6
SciTegic.value.DoubleValue
-4.165

@<SCITEGIC>MOL_PROPERTY
VdW12
SciTegic.value.DoubleValue
4.426

@<SCITEGIC>MOL_PROPERTY
Bond
SciTegic.value.DoubleValue
0.044

@<SCITEGIC>MOL_PROPERTY
Angle
SciTegic.value.DoubleValue
2.229

@<SCITEGIC>MOL_PROPERTY
Pdih
SciTegic.value.DoubleValue
12.953

@<SCITEGIC>MOL_PROPERTY
Idih
SciTegic.value.DoubleValue
0.000

@<SCITEGIC>MOL_PROPERTY
Tether
SciTegic.value.DoubleValue
0.000

@<TRIPOS>MOLECULE
guest-s20_confgen4.mol2 : confsearch ligand conformer 622
          17          16           1
SMALL
USER_CHARGES
 
@<TRIPOS>ATOM
       1    C1      20.124486   16.821247   24.112510 C.2        1 MOL1         0.6132
       2    O1      20.548278   15.839645   23.534863 O.co2      1 MOL1        -0.6749
       3    O2      19.233618   16.782650   24.938236 O.co2      1 MOL1        -0.6749
       4    C2      20.745921   18.173698   23.789556 C.3        1 MOL1        -0.1955
       5    H1      21.754086   18.002264   23.393509 H          1 MOL1         0.0733
       6    H2      20.860490   18.723083   24.731127 H          1 MOL1         0.0733
       7    C3      19.908710   18.979762   22.814834 C.2        1 MOL1        -0.1395
       8    H3      18.950691   19.326690   23.200893 H          1 MOL1         0.0816
       9    C4      20.279817   19.264730   21.562915 C.2        1 MOL1        -0.1394
      10    H4      21.236522   18.914800   21.176489 H          1 MOL1         0.0816
      11    C5      19.441943   20.065270   20.591099 C.3        1 MOL1        -0.1826
      12    H5      19.389964   19.541075   19.627226 H          1 MOL1         0.0736
      13    H6      18.409859   20.155455   20.957007 H          1 MOL1         0.0736
      14    C6      20.032774   21.472781   20.379223 C.3        1 MOL1        -0.2882
      15    H7      21.052533   21.413038   19.976790 H          1 MOL1         0.0749
      16    H8      19.420992   22.048606   19.672658 H          1 MOL1         0.0749
      17    H9      20.070842   22.026311   21.326722 H          1 MOL1         0.0749
@<TRIPOS>BOND
    1     1     2    1
    2     1     3    2
    3     1     4    1
    4     4     5    1
    5     4     6    1
    6     4     7    1
    7     7     8    1
    8     7     9    2
    9     9    10    1
   10     9    11    1
   11    11    12    1
   12    11    13    1
   13    11    14    1
   14    14    15    1
   15    14    16    1
   16    14    17    1
@<TRIPOS>SUBSTRUCTURE
       1 MOL1            1 RESIDUE      1      MOL     
@<SCITEGIC>MOL_PROPERTY
VConf Rank
SciTegic.value.IntegerValue
622

@<SCITEGIC>MOL_PROPERTY
Conf_Id
SciTegic.value.IntegerValue
35

@<SCITEGIC>MOL_PROPERTY
Delta U+W
SciTegic.value.DoubleValue
-0.102

@<SCITEGIC>MOL_PROPERTY
U+W
SciTegic.value.DoubleValue
-49.529

@<SCITEGIC>MOL_PROPERTY
Grad RMS
SciTegic.value.DoubleValue
0.000000

@<SCITEGIC>MOL_PROPERTY
U
SciTegic.value.DoubleValue
13.666

@<SCITEGIC>MOL_PROPERTY
W
SciTegic.value.DoubleValue
-63.195

@<SCITEGIC>MOL_PROPERTY
W(PB)
SciTegic.value.DoubleValue
-65.299

@<SCITEGIC>MOL_PROPERTY
W(SA)
SciTegic.value.DoubleValue
2.103

@<SCITEGIC>MOL_PROPERTY
Valence
SciTegic.value.DoubleValue
15.226

@<SCITEGIC>MOL_PROPERTY
Coulomb
SciTegic.value.DoubleValue
-1.822

@<SCITEGIC>MOL_PROPERTY
VdW
SciTegic.value.DoubleValue
0.261

@<SCITEGIC>MOL_PROPERTY
VdW6
SciTegic.value.DoubleValue
-4.165

@<SCITEGIC>MOL_PROPERTY
VdW12
SciTegic.value.DoubleValue
4.426

@<SCITEGIC>MOL_PROPERTY
Bond
SciTegic.value.DoubleValue
0.044

@<SCITEGIC>MOL_PROPERTY
Angle
SciTegic.value.DoubleValue
2.229

@<SCITEGIC>MOL_PROPERTY
Pdih
SciTegic.value.DoubleValue
12.953

@<SCITEGIC>MOL_PROPERTY
Idih
SciTegic.value.DoubleValue
0.000

@<SCITEGIC>MOL_PROPERTY
Tether
SciTegic.value.DoubleValue
0.000

@<TRIPOS>MOLECULE
guest-s20_confgen4.mol2 : confsearch ligand conformer 623
          17          16           1
SMALL
USER_CHARGES
 
@<TRIPOS>ATOM
       1    C1      17.739032   19.399095   23.767748 C.2        1 MOL1         0.6132
       2    O1      16.776078   19.344703   23.028335 O.co2      1 MOL1        -0.6749
       3    O2      17.807619   18.806483   24.826500 O.co2      1 MOL1        -0.6749
       4    C2      18.919163   20.265184   23.347183 C.3        1 MOL1        -0.1955
       5    H1      19.473161   20.551392   24.249267 H          1 MOL1         0.0733
       6    H2      18.518733   21.187627   22.910989 H          1 MOL1         0.0733
       7    C3      19.824498   19.567867   22.349424 C.2        1 MOL1        -0.1395
       8    H3      19.377242   19.398049   21.371562 H          1 MOL1         0.0816
       9    C4      21.075315   19.175895   22.622422 C.2        1 MOL1        -0.1394
      10    H4      21.487673   19.359104   23.614127 H          1 MOL1         0.0816
      11    C5      22.032769   18.471807   21.675780 C.3        1 MOL1        -0.1826
      12    H5      22.948689   19.071095   21.583845 H          1 MOL1         0.0736
      13    H6      22.346323   17.521201   22.128056 H          1 MOL1         0.0736
      14    C6      21.468852   18.195107   20.264589 C.3        1 MOL1        -0.2882
      15    H7      21.194392   19.130530   19.759555 H          1 MOL1         0.0749
      16    H8      22.217377   17.685396   19.644159 H          1 MOL1         0.0749
      17    H9      20.579949   17.552586   20.314679 H          1 MOL1         0.0749
@<TRIPOS>BOND
    1     1     2    1
    2     1     3    2
    3     1     4    1
    4     4     5    1
    5     4     6    1
    6     4     7    1
    7     7     8    1
    8     7     9    2
    9     9    10    1
   10     9    11    1
   11    11    12    1
   12    11    13    1
   13    11    14    1
   14    14    15    1
   15    14    16    1
   16    14    17    1
@<TRIPOS>SUBSTRUCTURE
       1 MOL1            1 RESIDUE      1      MOL     
@<SCITEGIC>MOL_PROPERTY
VConf Rank
SciTegic.value.IntegerValue
623

@<SCITEGIC>MOL_PROPERTY
Conf_Id
SciTegic.value.IntegerValue
19

@<SCITEGIC>MOL_PROPERTY
Delta U+W
SciTegic.value.DoubleValue
-0.496

@<SCITEGIC>MOL_PROPERTY
U+W
SciTegic.value.DoubleValue
-49.923

@<SCITEGIC>MOL_PROPERTY
Grad RMS
SciTegic.value.DoubleValue
0.000000

@<SCITEGIC>MOL_PROPERTY
U
SciTegic.value.DoubleValue
13.863

@<SCITEGIC>MOL_PROPERTY
W
SciTegic.value.DoubleValue
-63.786

@<SCITEGIC>MOL_PROPERTY
W(PB)
SciTegic.value.DoubleValue
-65.856

@<SCITEGIC>MOL_PROPERTY
W(SA)
SciTegic.value.DoubleValue
2.070

@<SCITEGIC>MOL_PROPERTY
Valence
SciTegic.value.DoubleValue
14.117

@<SCITEGIC>MOL_PROPERTY
Coulomb
SciTegic.value.DoubleValue
-1.228

@<SCITEGIC>MOL_PROPERTY
VdW
SciTegic.value.DoubleValue
0.974

@<SCITEGIC>MOL_PROPERTY
VdW6
SciTegic.value.DoubleValue
-4.885

@<SCITEGIC>MOL_PROPERTY
VdW12
SciTegic.value.DoubleValue
5.859

@<SCITEGIC>MOL_PROPERTY
Bond
SciTegic.value.DoubleValue
0.094

@<SCITEGIC>MOL_PROPERTY
Angle
SciTegic.value.DoubleValue
2.818

@<SCITEGIC>MOL_PROPERTY
Pdih
SciTegic.value.DoubleValue
11.205

@<SCITEGIC>MOL_PROPERTY
Idih
SciTegic.value.DoubleValue
0.000

@<SCITEGIC>MOL_PROPERTY
Tether
SciTegic.value.DoubleValue
0.000

@<TRIPOS>MOLECULE
guest-s20_confgen4.mol2 : confsearch ligand conformer 624
          17          16           1
SMALL
USER_CHARGES
 
@<TRIPOS>ATOM
       1    C1      18.060301   19.350178   20.177414 C.2        1 MOL1         0.6132
       2    O1      18.706695   19.484129   19.157099 O.co2      1 MOL1        -0.6749
       3    O2      17.105659   18.604443   20.275098 O.co2      1 MOL1        -0.6749
       4    C2      18.459837   20.168384   21.398372 C.3        1 MOL1        -0.1955
       5    H1      17.541370   20.539309   21.867753 H          1 MOL1         0.0733
       6    H2      19.021545   21.045424   21.054950 H          1 MOL1         0.0733
       7    C3      19.267327   19.363006   22.398417 C.2        1 MOL1        -0.1395
       8    H3      18.722385   18.564030   22.900306 H          1 MOL1         0.0816
       9    C4      20.558240   19.578623   22.669098 C.2        1 MOL1        -0.1394
      10    H4      21.104001   20.374377   22.163153 H          1 MOL1         0.0816
      11    C5      21.362356   18.772481   23.664522 C.3        1 MOL1        -0.1826
      12    H5      21.915858   19.449418   24.329288 H          1 MOL1         0.0736
      13    H6      20.696471   18.176963   24.304181 H          1 MOL1         0.0736
      14    C6      22.352119   17.834707   22.946231 C.3        1 MOL1        -0.2882
      15    H7      23.056241   18.407411   22.328455 H          1 MOL1         0.0749
      16    H8      22.932625   17.251877   23.673136 H          1 MOL1         0.0749
      17    H9      21.818546   17.131247   22.293448 H          1 MOL1         0.0749
@<TRIPOS>BOND
    1     1     2    1
    2     1     3    2
    3     1     4    1
    4     4     5    1
    5     4     6    1
    6     4     7    1
    7     7     8    1
    8     7     9    2
    9     9    10    1
   10     9    11    1
   11    11    12    1
   12    11    13    1
   13    11    14    1
   14    14    15    1
   15    14    16    1
   16    14    17    1
@<TRIPOS>SUBSTRUCTURE
       1 MOL1            1 RESIDUE      1      MOL     
@<SCITEGIC>MOL_PROPERTY
VConf Rank
SciTegic.value.IntegerValue
624

@<SCITEGIC>MOL_PROPERTY
Conf_Id
SciTegic.value.IntegerValue
7

@<SCITEGIC>MOL_PROPERTY
Delta U+W
SciTegic.value.DoubleValue
-0.041

@<SCITEGIC>MOL_PROPERTY
U+W
SciTegic.value.DoubleValue
-49.468

@<SCITEGIC>MOL_PROPERTY
Grad RMS
SciTegic.value.DoubleValue
0.000000

@<SCITEGIC>MOL_PROPERTY
U
SciTegic.value.DoubleValue
14.121

@<SCITEGIC>MOL_PROPERTY
W
SciTegic.value.DoubleValue
-63.589

@<SCITEGIC>MOL_PROPERTY
W(PB)
SciTegic.value.DoubleValue
-65.660

@<SCITEGIC>MOL_PROPERTY
W(SA)
SciTegic.value.DoubleValue
2.071

@<SCITEGIC>MOL_PROPERTY
Valence
SciTegic.value.DoubleValue
15.230

@<SCITEGIC>MOL_PROPERTY
Coulomb
SciTegic.value.DoubleValue
-1.333

@<SCITEGIC>MOL_PROPERTY
VdW
SciTegic.value.DoubleValue
0.224

@<SCITEGIC>MOL_PROPERTY
VdW6
SciTegic.value.DoubleValue
-4.212

@<SCITEGIC>MOL_PROPERTY
VdW12
SciTegic.value.DoubleValue
4.436

@<SCITEGIC>MOL_PROPERTY
Bond
SciTegic.value.DoubleValue
0.044

@<SCITEGIC>MOL_PROPERTY
Angle
SciTegic.value.DoubleValue
2.230

@<SCITEGIC>MOL_PROPERTY
Pdih
SciTegic.value.DoubleValue
12.956

@<SCITEGIC>MOL_PROPERTY
Idih
SciTegic.value.DoubleValue
0.000

@<SCITEGIC>MOL_PROPERTY
Tether
SciTegic.value.DoubleValue
0.000

@<TRIPOS>MOLECULE
guest-s20_confgen4.mol2 : confsearch ligand conformer 625
          17          16           1
SMALL
USER_CHARGES
 
@<TRIPOS>ATOM
       1    C1      21.291173   17.518731   24.055461 C.2        1 MOL1         0.6132
       2    O1      21.266987   18.179950   25.074872 O.co2      1 MOL1        -0.6749
       3    O2      22.300641   17.009946   23.609149 O.co2      1 MOL1        -0.6749
       4    C2      19.979016   17.291803   23.310931 C.3        1 MOL1        -0.1955
       5    H1      19.171840   17.265885   24.052257 H          1 MOL1         0.0733
       6    H2      20.013472   16.289753   22.867727 H          1 MOL1         0.0733
       7    C3      19.649386   18.315232   22.233520 C.2        1 MOL1        -0.1395
       8    H3      18.708859   18.134453   21.714604 H          1 MOL1         0.0816
       9    C4      20.398055   19.372291   21.897192 C.2        1 MOL1        -0.1394
      10    H4      21.342175   19.576387   22.400892 H          1 MOL1         0.0816
      11    C5      20.024877   20.361079   20.815075 C.3        1 MOL1        -0.1826
      12    H5      20.885720   20.528936   20.153794 H          1 MOL1         0.0736
      13    H6      19.218658   19.958301   20.186637 H          1 MOL1         0.0736
      14    C6      19.574882   21.703703   21.423272 C.3        1 MOL1        -0.2882
      15    H7      19.306701   22.417651   20.633705 H          1 MOL1         0.0749
      16    H8      18.698013   21.564529   22.069281 H          1 MOL1         0.0749
      17    H9      20.376950   22.148441   22.026887 H          1 MOL1         0.0749
@<TRIPOS>BOND
    1     1     2    1
    2     1     3    2
    3     1     4    1
    4     4     5    1
    5     4     6    1
    6     4     7    1
    7     7     8    1
    8     7     9    2
    9     9    10    1
   10     9    11    1
   11    11    12    1
   12    11    13    1
   13    11    14    1
   14    14    15    1
   15    14    16    1
   16    14    17    1
@<TRIPOS>SUBSTRUCTURE
       1 MOL1            1 RESIDUE      1      MOL     
@<SCITEGIC>MOL_PROPERTY
VConf Rank
SciTegic.value.IntegerValue
625

@<SCITEGIC>MOL_PROPERTY
Conf_Id
SciTegic.value.IntegerValue
39

@<SCITEGIC>MOL_PROPERTY
Delta U+W
SciTegic.value.DoubleValue
-0.422

@<SCITEGIC>MOL_PROPERTY
U+W
SciTegic.value.DoubleValue
-49.849

@<SCITEGIC>MOL_PROPERTY
Grad RMS
SciTegic.value.DoubleValue
0.000000

@<SCITEGIC>MOL_PROPERTY
U
SciTegic.value.DoubleValue
14.465

@<SCITEGIC>MOL_PROPERTY
W
SciTegic.value.DoubleValue
-64.314

@<SCITEGIC>MOL_PROPERTY
W(PB)
SciTegic.value.DoubleValue
-66.406

@<SCITEGIC>MOL_PROPERTY
W(SA)
SciTegic.value.DoubleValue
2.093

@<SCITEGIC>MOL_PROPERTY
Valence
SciTegic.value.DoubleValue
14.072

@<SCITEGIC>MOL_PROPERTY
Coulomb
SciTegic.value.DoubleValue
-0.199

@<SCITEGIC>MOL_PROPERTY
VdW
SciTegic.value.DoubleValue
0.592

@<SCITEGIC>MOL_PROPERTY
VdW6
SciTegic.value.DoubleValue
-5.019

@<SCITEGIC>MOL_PROPERTY
VdW12
SciTegic.value.DoubleValue
5.611

@<SCITEGIC>MOL_PROPERTY
Bond
SciTegic.value.DoubleValue
0.085

@<SCITEGIC>MOL_PROPERTY
Angle
SciTegic.value.DoubleValue
2.748

@<SCITEGIC>MOL_PROPERTY
Pdih
SciTegic.value.DoubleValue
11.238

@<SCITEGIC>MOL_PROPERTY
Idih
SciTegic.value.DoubleValue
0.001

@<SCITEGIC>MOL_PROPERTY
Tether
SciTegic.value.DoubleValue
0.000

@<TRIPOS>MOLECULE
guest-s20_confgen4.mol2 : confsearch ligand conformer 626
          17          16           1
SMALL
USER_CHARGES
 
@<TRIPOS>ATOM
       1    C1      18.142522   16.804401   22.333566 C.2        1 MOL1         0.6132
       2    O1      18.617593   15.769420   22.757928 O.co2      1 MOL1        -0.6749
       3    O2      17.338478   16.851241   21.423545 O.co2      1 MOL1        -0.6749
       4    C2      18.575700   18.112345   22.982597 C.3        1 MOL1        -0.1955
       5    H1      18.628103   17.947876   24.065054 H          1 MOL1         0.0733
       6    H2      17.790510   18.858009   22.809098 H          1 MOL1         0.0733
       7    C3      19.914623   18.602198   22.464838 C.2        1 MOL1        -0.1395
       8    H3      20.772304   17.989367   22.740562 H          1 MOL1         0.0816
       9    C4      20.075657   19.699468   21.718987 C.2        1 MOL1        -0.1394
      10    H4      19.217221   20.310169   21.441148 H          1 MOL1         0.0816
      11    C5      21.411078   20.184314   21.200436 C.3        1 MOL1        -0.1826
      12    H5      22.170469   19.396285   21.298187 H          1 MOL1         0.0736
      13    H6      21.331488   20.414209   20.129292 H          1 MOL1         0.0736
      14    C6      21.878168   21.440020   21.962072 C.3        1 MOL1        -0.2882
      15    H7      21.989839   21.227141   23.033433 H          1 MOL1         0.0749
      16    H8      22.847256   21.787484   21.580991 H          1 MOL1         0.0749
      17    H9      21.154703   22.258162   21.849504 H          1 MOL1         0.0749
@<TRIPOS>BOND
    1     1     2    1
    2     1     3    2
    3     1     4    1
    4     4     5    1
    5     4     6    1
    6     4     7    1
    7     7     8    1
    8     7     9    2
    9     9    10    1
   10     9    11    1
   11    11    12    1
   12    11    13    1
   13    11    14    1
   14    14    15    1
   15    14    16    1
   16    14    17    1
@<TRIPOS>SUBSTRUCTURE
       1 MOL1            1 RESIDUE      1      MOL     
@<SCITEGIC>MOL_PROPERTY
VConf Rank
SciTegic.value.IntegerValue
626

@<SCITEGIC>MOL_PROPERTY
Conf_Id
SciTegic.value.IntegerValue
38

@<SCITEGIC>MOL_PROPERTY
Delta U+W
SciTegic.value.DoubleValue
0.000

@<SCITEGIC>MOL_PROPERTY
U+W
SciTegic.value.DoubleValue
-49.427

@<SCITEGIC>MOL_PROPERTY
Grad RMS
SciTegic.value.DoubleValue
0.000000

@<SCITEGIC>MOL_PROPERTY
U
SciTegic.value.DoubleValue
13.666

@<SCITEGIC>MOL_PROPERTY
W
SciTegic.value.DoubleValue
-63.093

@<SCITEGIC>MOL_PROPERTY
W(PB)
SciTegic.value.DoubleValue
-65.225

@<SCITEGIC>MOL_PROPERTY
W(SA)
SciTegic.value.DoubleValue
2.132

@<SCITEGIC>MOL_PROPERTY
Valence
SciTegic.value.DoubleValue
15.226

@<SCITEGIC>MOL_PROPERTY
Coulomb
SciTegic.value.DoubleValue
-1.822

@<SCITEGIC>MOL_PROPERTY
VdW
SciTegic.value.DoubleValue
0.261

@<SCITEGIC>MOL_PROPERTY
VdW6
SciTegic.value.DoubleValue
-4.165

@<SCITEGIC>MOL_PROPERTY
VdW12
SciTegic.value.DoubleValue
4.426

@<SCITEGIC>MOL_PROPERTY
Bond
SciTegic.value.DoubleValue
0.044

@<SCITEGIC>MOL_PROPERTY
Angle
SciTegic.value.DoubleValue
2.229

@<SCITEGIC>MOL_PROPERTY
Pdih
SciTegic.value.DoubleValue
12.953

@<SCITEGIC>MOL_PROPERTY
Idih
SciTegic.value.DoubleValue
0.000

@<SCITEGIC>MOL_PROPERTY
Tether
SciTegic.value.DoubleValue
0.000

@<TRIPOS>MOLECULE
guest-s20_confgen4.mol2 : confsearch ligand conformer 627
          17          16           1
SMALL
USER_CHARGES
 
@<TRIPOS>ATOM
       1    C1      23.145065   18.679422   21.546037 C.2        1 MOL1         0.6132
       2    O1      23.549626   17.871882   22.359073 O.co2      1 MOL1        -0.6749
       3    O2      23.810238   19.609527   21.134444 O.co2      1 MOL1        -0.6749
       4    C2      21.729589   18.515673   21.008245 C.3        1 MOL1        -0.1955
       5    H1      21.438357   17.464660   21.123115 H          1 MOL1         0.0733
       6    H2      21.753481   18.726028   19.932751 H          1 MOL1         0.0733
       7    C3      20.736971   19.433199   21.696432 C.2        1 MOL1        -0.1395
       8    H3      20.868154   20.495753   21.494019 H          1 MOL1         0.0816
       9    C4      19.758458   19.011256   22.503095 C.2        1 MOL1        -0.1394
      10    H4      19.629830   17.948854   22.707587 H          1 MOL1         0.0816
      11    C5      18.772051   19.927926   23.191600 C.3        1 MOL1        -0.1826
      12    H5      18.701945   19.664804   24.255735 H          1 MOL1         0.0736
      13    H6      19.119112   20.969434   23.146549 H          1 MOL1         0.0736
      14    C6      17.377084   19.826729   22.544386 C.3        1 MOL1        -0.2882
      15    H7      16.988445   18.801963   22.609527 H          1 MOL1         0.0749
      16    H8      16.665571   20.493510   23.048605 H          1 MOL1         0.0749
      17    H9      17.417548   20.110485   21.484459 H          1 MOL1         0.0749
@<TRIPOS>BOND
    1     1     2    1
    2     1     3    2
    3     1     4    1
    4     4     5    1
    5     4     6    1
    6     4     7    1
    7     7     8    1
    8     7     9    2
    9     9    10    1
   10     9    11    1
   11    11    12    1
   12    11    13    1
   13    11    14    1
   14    14    15    1
   15    14    16    1
   16    14    17    1
@<TRIPOS>SUBSTRUCTURE
       1 MOL1            1 RESIDUE      1      MOL     
@<SCITEGIC>MOL_PROPERTY
VConf Rank
SciTegic.value.IntegerValue
627

@<SCITEGIC>MOL_PROPERTY
Conf_Id
SciTegic.value.IntegerValue
35

@<SCITEGIC>MOL_PROPERTY
Delta U+W
SciTegic.value.DoubleValue
-0.102

@<SCITEGIC>MOL_PROPERTY
U+W
SciTegic.value.DoubleValue
-49.529

@<SCITEGIC>MOL_PROPERTY
Grad RMS
SciTegic.value.DoubleValue
0.000000

@<SCITEGIC>MOL_PROPERTY
U
SciTegic.value.DoubleValue
13.666

@<SCITEGIC>MOL_PROPERTY
W
SciTegic.value.DoubleValue
-63.195

@<SCITEGIC>MOL_PROPERTY
W(PB)
SciTegic.value.DoubleValue
-65.299

@<SCITEGIC>MOL_PROPERTY
W(SA)
SciTegic.value.DoubleValue
2.103

@<SCITEGIC>MOL_PROPERTY
Valence
SciTegic.value.DoubleValue
15.226

@<SCITEGIC>MOL_PROPERTY
Coulomb
SciTegic.value.DoubleValue
-1.822

@<SCITEGIC>MOL_PROPERTY
VdW
SciTegic.value.DoubleValue
0.261

@<SCITEGIC>MOL_PROPERTY
VdW6
SciTegic.value.DoubleValue
-4.165

@<SCITEGIC>MOL_PROPERTY
VdW12
SciTegic.value.DoubleValue
4.426

@<SCITEGIC>MOL_PROPERTY
Bond
SciTegic.value.DoubleValue
0.044

@<SCITEGIC>MOL_PROPERTY
Angle
SciTegic.value.DoubleValue
2.229

@<SCITEGIC>MOL_PROPERTY
Pdih
SciTegic.value.DoubleValue
12.953

@<SCITEGIC>MOL_PROPERTY
Idih
SciTegic.value.DoubleValue
0.000

@<SCITEGIC>MOL_PROPERTY
Tether
SciTegic.value.DoubleValue
0.000

@<TRIPOS>MOLECULE
guest-s20_confgen4.mol2 : confsearch ligand conformer 628
          17          16           1
SMALL
USER_CHARGES
 
@<TRIPOS>ATOM
       1    C1      21.288137   21.616288   23.314417 C.2        1 MOL1         0.6132
       2    O1      21.338011   21.544341   24.526567 O.co2      1 MOL1        -0.6749
       3    O2      22.190608   22.056180   22.629660 O.co2      1 MOL1        -0.6749
       4    C2      20.020983   21.137312   22.618288 C.3        1 MOL1        -0.1955
       5    H1      19.950531   21.643450   21.648006 H          1 MOL1         0.0733
       6    H2      19.164525   21.469952   23.216066 H          1 MOL1         0.0733
       7    C3      19.984950   19.629955   22.451009 C.2        1 MOL1        -0.1395
       8    H3      19.893066   19.071732   23.381081 H          1 MOL1         0.0816
       9    C4      20.063641   19.007454   21.268211 C.2        1 MOL1        -0.1394
      10    H4      20.159355   19.599624   20.358673 H          1 MOL1         0.0816
      11    C5      20.037649   17.507277   21.028663 C.3        1 MOL1        -0.1826
      12    H5      19.207405   17.268684   20.350227 H          1 MOL1         0.0736
      13    H6      20.950529   17.216356   20.491509 H          1 MOL1         0.0736
      14    C6      19.908723   16.645412   22.304043 C.3        1 MOL1        -0.2882
      15    H7      18.977519   16.871489   22.839908 H          1 MOL1         0.0749
      16    H8      19.898290   15.578048   22.047810 H          1 MOL1         0.0749
      17    H9      20.752942   16.819568   22.984081 H          1 MOL1         0.0749
@<TRIPOS>BOND
    1     1     2    1
    2     1     3    2
    3     1     4    1
    4     4     5    1
    5     4     6    1
    6     4     7    1
    7     7     8    1
    8     7     9    2
    9     9    10    1
   10     9    11    1
   11    11    12    1
   12    11    13    1
   13    11    14    1
   14    14    15    1
   15    14    16    1
   16    14    17    1
@<TRIPOS>SUBSTRUCTURE
       1 MOL1            1 RESIDUE      1      MOL     
@<SCITEGIC>MOL_PROPERTY
VConf Rank
SciTegic.value.IntegerValue
628

@<SCITEGIC>MOL_PROPERTY
Conf_Id
SciTegic.value.IntegerValue
19

@<SCITEGIC>MOL_PROPERTY
Delta U+W
SciTegic.value.DoubleValue
-0.496

@<SCITEGIC>MOL_PROPERTY
U+W
SciTegic.value.DoubleValue
-49.923

@<SCITEGIC>MOL_PROPERTY
Grad RMS
SciTegic.value.DoubleValue
0.000000

@<SCITEGIC>MOL_PROPERTY
U
SciTegic.value.DoubleValue
13.863

@<SCITEGIC>MOL_PROPERTY
W
SciTegic.value.DoubleValue
-63.786

@<SCITEGIC>MOL_PROPERTY
W(PB)
SciTegic.value.DoubleValue
-65.856

@<SCITEGIC>MOL_PROPERTY
W(SA)
SciTegic.value.DoubleValue
2.070

@<SCITEGIC>MOL_PROPERTY
Valence
SciTegic.value.DoubleValue
14.117

@<SCITEGIC>MOL_PROPERTY
Coulomb
SciTegic.value.DoubleValue
-1.228

@<SCITEGIC>MOL_PROPERTY
VdW
SciTegic.value.DoubleValue
0.974

@<SCITEGIC>MOL_PROPERTY
VdW6
SciTegic.value.DoubleValue
-4.885

@<SCITEGIC>MOL_PROPERTY
VdW12
SciTegic.value.DoubleValue
5.859

@<SCITEGIC>MOL_PROPERTY
Bond
SciTegic.value.DoubleValue
0.094

@<SCITEGIC>MOL_PROPERTY
Angle
SciTegic.value.DoubleValue
2.818

@<SCITEGIC>MOL_PROPERTY
Pdih
SciTegic.value.DoubleValue
11.205

@<SCITEGIC>MOL_PROPERTY
Idih
SciTegic.value.DoubleValue
0.000

@<SCITEGIC>MOL_PROPERTY
Tether
SciTegic.value.DoubleValue
0.000

@<TRIPOS>MOLECULE
guest-s20_confgen4.mol2 : confsearch ligand conformer 629
          17          16           1
SMALL
USER_CHARGES
 
@<TRIPOS>ATOM
       1    C1      20.254445   18.138004   24.996058 C.2        1 MOL1         0.6132
       2    O1      21.129833   18.835098   25.469945 O.co2      1 MOL1        -0.6749
       3    O2      19.185102   17.940461   25.538722 O.co2      1 MOL1        -0.6749
       4    C2      20.513426   17.465626   23.654170 C.3        1 MOL1        -0.1955
       5    H1      20.128707   16.440956   23.713566 H          1 MOL1         0.0733
       6    H2      21.598185   17.393321   23.510215 H          1 MOL1         0.0733
       7    C3      19.859684   18.201415   22.500047 C.2        1 MOL1        -0.1395
       8    H3      18.770307   18.180872   22.492856 H          1 MOL1         0.0816
       9    C4      20.532988   18.848256   21.543765 C.2        1 MOL1        -0.1394
      10    H4      21.622182   18.872822   21.554315 H          1 MOL1         0.0816
      11    C5      19.879094   19.583806   20.395407 C.3        1 MOL1        -0.1826
      12    H5      20.357863   19.295799   19.449704 H          1 MOL1         0.0736
      13    H6      18.820396   19.302133   20.311580 H          1 MOL1         0.0736
      14    C6      19.987334   21.109687   20.582392 C.3        1 MOL1        -0.2882
      15    H7      21.037950   21.424832   20.630502 H          1 MOL1         0.0749
      16    H8      19.510912   21.638456   19.746633 H          1 MOL1         0.0749
      17    H9      19.493168   21.424462   21.511046 H          1 MOL1         0.0749
@<TRIPOS>BOND
    1     1     2    1
    2     1     3    2
    3     1     4    1
    4     4     5    1
    5     4     6    1
    6     4     7    1
    7     7     8    1
    8     7     9    2
    9     9    10    1
   10     9    11    1
   11    11    12    1
   12    11    13    1
   13    11    14    1
   14    14    15    1
   15    14    16    1
   16    14    17    1
@<TRIPOS>SUBSTRUCTURE
       1 MOL1            1 RESIDUE      1      MOL     
@<SCITEGIC>MOL_PROPERTY
VConf Rank
SciTegic.value.IntegerValue
629

@<SCITEGIC>MOL_PROPERTY
Conf_Id
SciTegic.value.IntegerValue
7

@<SCITEGIC>MOL_PROPERTY
Delta U+W
SciTegic.value.DoubleValue
-0.041

@<SCITEGIC>MOL_PROPERTY
U+W
SciTegic.value.DoubleValue
-49.468

@<SCITEGIC>MOL_PROPERTY
Grad RMS
SciTegic.value.DoubleValue
0.000000

@<SCITEGIC>MOL_PROPERTY
U
SciTegic.value.DoubleValue
14.121

@<SCITEGIC>MOL_PROPERTY
W
SciTegic.value.DoubleValue
-63.589

@<SCITEGIC>MOL_PROPERTY
W(PB)
SciTegic.value.DoubleValue
-65.660

@<SCITEGIC>MOL_PROPERTY
W(SA)
SciTegic.value.DoubleValue
2.071

@<SCITEGIC>MOL_PROPERTY
Valence
SciTegic.value.DoubleValue
15.230

@<SCITEGIC>MOL_PROPERTY
Coulomb
SciTegic.value.DoubleValue
-1.333

@<SCITEGIC>MOL_PROPERTY
VdW
SciTegic.value.DoubleValue
0.224

@<SCITEGIC>MOL_PROPERTY
VdW6
SciTegic.value.DoubleValue
-4.212

@<SCITEGIC>MOL_PROPERTY
VdW12
SciTegic.value.DoubleValue
4.436

@<SCITEGIC>MOL_PROPERTY
Bond
SciTegic.value.DoubleValue
0.044

@<SCITEGIC>MOL_PROPERTY
Angle
SciTegic.value.DoubleValue
2.230

@<SCITEGIC>MOL_PROPERTY
Pdih
SciTegic.value.DoubleValue
12.956

@<SCITEGIC>MOL_PROPERTY
Idih
SciTegic.value.DoubleValue
0.000

@<SCITEGIC>MOL_PROPERTY
Tether
SciTegic.value.DoubleValue
0.000

@<TRIPOS>MOLECULE
guest-s20_confgen4.mol2 : confsearch ligand conformer 630
          17          16           1
SMALL
USER_CHARGES
 
@<TRIPOS>ATOM
       1    C1      19.167787   21.826608   22.689463 C.2        1 MOL1         0.6132
       2    O1      20.180917   22.481642   22.542868 O.co2      1 MOL1        -0.6749
       3    O2      18.462494   21.893035   23.677001 O.co2      1 MOL1        -0.6749
       4    C2      18.743392   20.891241   21.561387 C.3        1 MOL1        -0.1955
       5    H1      19.064784   21.339469   20.613987 H          1 MOL1         0.0733
       6    H2      17.647663   20.876789   21.531583 H          1 MOL1         0.0733
       7    C3      19.270110   19.466295   21.656120 C.2        1 MOL1        -0.1395
       8    H3      18.955217   18.815637   20.841238 H          1 MOL1         0.0816
       9    C4      20.057295   18.981276   22.623638 C.2        1 MOL1        -0.1394
      10    H4      20.387232   19.610787   23.449223 H          1 MOL1         0.0816
      11    C5      20.553105   17.553068   22.671975 C.3        1 MOL1        -0.1826
      12    H5      20.390229   17.138184   23.675898 H          1 MOL1         0.0736
      13    H6      19.983189   16.923665   21.974693 H          1 MOL1         0.0736
      14    C6      22.051673   17.475123   22.320898 C.3        1 MOL1        -0.2882
      15    H7      22.406309   16.436927   22.358886 H          1 MOL1         0.0749
      16    H8      22.235680   17.861480   21.309729 H          1 MOL1         0.0749
      17    H9      22.650331   18.065848   23.026667 H          1 MOL1         0.0749
@<TRIPOS>BOND
    1     1     2    1
    2     1     3    2
    3     1     4    1
    4     4     5    1
    5     4     6    1
    6     4     7    1
    7     7     8    1
    8     7     9    2
    9     9    10    1
   10     9    11    1
   11    11    12    1
   12    11    13    1
   13    11    14    1
   14    14    15    1
   15    14    16    1
   16    14    17    1
@<TRIPOS>SUBSTRUCTURE
       1 MOL1            1 RESIDUE      1      MOL     
@<SCITEGIC>MOL_PROPERTY
VConf Rank
SciTegic.value.IntegerValue
630

@<SCITEGIC>MOL_PROPERTY
Conf_Id
SciTegic.value.IntegerValue
39

@<SCITEGIC>MOL_PROPERTY
Delta U+W
SciTegic.value.DoubleValue
-0.422

@<SCITEGIC>MOL_PROPERTY
U+W
SciTegic.value.DoubleValue
-49.849

@<SCITEGIC>MOL_PROPERTY
Grad RMS
SciTegic.value.DoubleValue
0.000000

@<SCITEGIC>MOL_PROPERTY
U
SciTegic.value.DoubleValue
14.465

@<SCITEGIC>MOL_PROPERTY
W
SciTegic.value.DoubleValue
-64.314

@<SCITEGIC>MOL_PROPERTY
W(PB)
SciTegic.value.DoubleValue
-66.406

@<SCITEGIC>MOL_PROPERTY
W(SA)
SciTegic.value.DoubleValue
2.093

@<SCITEGIC>MOL_PROPERTY
Valence
SciTegic.value.DoubleValue
14.072

@<SCITEGIC>MOL_PROPERTY
Coulomb
SciTegic.value.DoubleValue
-0.199

@<SCITEGIC>MOL_PROPERTY
VdW
SciTegic.value.DoubleValue
0.592

@<SCITEGIC>MOL_PROPERTY
VdW6
SciTegic.value.DoubleValue
-5.019

@<SCITEGIC>MOL_PROPERTY
VdW12
SciTegic.value.DoubleValue
5.611

@<SCITEGIC>MOL_PROPERTY
Bond
SciTegic.value.DoubleValue
0.085

@<SCITEGIC>MOL_PROPERTY
Angle
SciTegic.value.DoubleValue
2.748

@<SCITEGIC>MOL_PROPERTY
Pdih
SciTegic.value.DoubleValue
11.238

@<SCITEGIC>MOL_PROPERTY
Idih
SciTegic.value.DoubleValue
0.001

@<SCITEGIC>MOL_PROPERTY
Tether
SciTegic.value.DoubleValue
0.000

@<TRIPOS>MOLECULE
guest-s20_confgen4.mol2 : confsearch ligand conformer 631
          17          16           1
SMALL
USER_CHARGES
 
@<TRIPOS>ATOM
       1    C1      21.690582   17.732071   19.838305 C.2        1 MOL1         0.6132
       2    O1      21.260496   16.640027   19.522986 O.co2      1 MOL1        -0.6749
       3    O2      22.875115   17.984572   19.938019 O.co2      1 MOL1        -0.6749
       4    C2      20.688919   18.844743   20.118011 C.3        1 MOL1        -0.1955
       5    H1      19.893181   18.775578   19.367327 H          1 MOL1         0.0733
       6    H2      21.192620   19.806590   19.963820 H          1 MOL1         0.0733
       7    C3      20.098395   18.757666   21.512445 C.2        1 MOL1        -0.1395
       8    H3      19.447708   17.901790   21.689319 H          1 MOL1         0.0816
       9    C4      20.334791   19.643490   22.484895 C.2        1 MOL1        -0.1394
      10    H4      20.987916   20.497472   22.308247 H          1 MOL1         0.0816
      11    C5      19.748073   19.552990   23.875899 C.3        1 MOL1        -0.1826
      12    H5      19.324571   18.554252   24.050221 H          1 MOL1         0.0736
      13    H6      20.541232   19.693747   24.622640 H          1 MOL1         0.0736
      14    C6      18.651477   20.615512   24.084672 C.3        1 MOL1        -0.2882
      15    H7      17.833956   20.478747   23.364564 H          1 MOL1         0.0749
      16    H8      18.230016   20.545334   25.095875 H          1 MOL1         0.0749
      17    H9      19.056662   21.627529   23.953997 H          1 MOL1         0.0749
@<TRIPOS>BOND
    1     1     2    1
    2     1     3    2
    3     1     4    1
    4     4     5    1
    5     4     6    1
    6     4     7    1
    7     7     8    1
    8     7     9    2
    9     9    10    1
   10     9    11    1
   11    11    12    1
   12    11    13    1
   13    11    14    1
   14    14    15    1
   15    14    16    1
   16    14    17    1
@<TRIPOS>SUBSTRUCTURE
       1 MOL1            1 RESIDUE      1      MOL     
@<SCITEGIC>MOL_PROPERTY
VConf Rank
SciTegic.value.IntegerValue
631

@<SCITEGIC>MOL_PROPERTY
Conf_Id
SciTegic.value.IntegerValue
38

@<SCITEGIC>MOL_PROPERTY
Delta U+W
SciTegic.value.DoubleValue
0.000

@<SCITEGIC>MOL_PROPERTY
U+W
SciTegic.value.DoubleValue
-49.427

@<SCITEGIC>MOL_PROPERTY
Grad RMS
SciTegic.value.DoubleValue
0.000000

@<SCITEGIC>MOL_PROPERTY
U
SciTegic.value.DoubleValue
13.666

@<SCITEGIC>MOL_PROPERTY
W
SciTegic.value.DoubleValue
-63.093

@<SCITEGIC>MOL_PROPERTY
W(PB)
SciTegic.value.DoubleValue
-65.225

@<SCITEGIC>MOL_PROPERTY
W(SA)
SciTegic.value.DoubleValue
2.132

@<SCITEGIC>MOL_PROPERTY
Valence
SciTegic.value.DoubleValue
15.226

@<SCITEGIC>MOL_PROPERTY
Coulomb
SciTegic.value.DoubleValue
-1.822

@<SCITEGIC>MOL_PROPERTY
VdW
SciTegic.value.DoubleValue
0.261

@<SCITEGIC>MOL_PROPERTY
VdW6
SciTegic.value.DoubleValue
-4.165

@<SCITEGIC>MOL_PROPERTY
VdW12
SciTegic.value.DoubleValue
4.426

@<SCITEGIC>MOL_PROPERTY
Bond
SciTegic.value.DoubleValue
0.044

@<SCITEGIC>MOL_PROPERTY
Angle
SciTegic.value.DoubleValue
2.229

@<SCITEGIC>MOL_PROPERTY
Pdih
SciTegic.value.DoubleValue
12.953

@<SCITEGIC>MOL_PROPERTY
Idih
SciTegic.value.DoubleValue
0.000

@<SCITEGIC>MOL_PROPERTY
Tether
SciTegic.value.DoubleValue
0.000

@<TRIPOS>MOLECULE
guest-s20_confgen4.mol2 : confsearch ligand conformer 632
          17          16           1
SMALL
USER_CHARGES
 
@<TRIPOS>ATOM
       1    C1      22.716896   20.776946   21.201121 C.2        1 MOL1         0.6132
       2    O1      22.679158   21.920922   21.609425 O.co2      1 MOL1        -0.6749
       3    O2      23.178563   20.463671   20.121453 O.co2      1 MOL1        -0.6749
       4    C2      22.160844   19.673573   22.091614 C.3        1 MOL1        -0.1955
       5    H1      22.188473   20.024327   23.130291 H          1 MOL1         0.0733
       6    H2      22.839480   18.815373   22.024877 H          1 MOL1         0.0733
       7    C3      20.756681   19.259230   21.694889 C.2        1 MOL1        -0.1395
       8    H3      20.675477   18.751979   20.734002 H          1 MOL1         0.0816
       9    C4      19.669125   19.482950   22.438797 C.2        1 MOL1        -0.1394
      10    H4      19.750629   19.993061   23.398070 H          1 MOL1         0.0816
      11    C5      18.269229   19.072596   22.039771 C.3        1 MOL1        -0.1826
      12    H5      17.581958   19.918552   22.175969 H          1 MOL1         0.0736
      13    H6      18.235460   18.807361   20.974065 H          1 MOL1         0.0736
      14    C6      17.782667   17.875125   22.879045 C.3        1 MOL1        -0.2882
      15    H7      17.769753   18.125425   23.947975 H          1 MOL1         0.0749
      16    H8      16.766186   17.582413   22.585492 H          1 MOL1         0.0749
      17    H9      18.440945   17.007600   22.738801 H          1 MOL1         0.0749
@<TRIPOS>BOND
    1     1     2    1
    2     1     3    2
    3     1     4    1
    4     4     5    1
    5     4     6    1
    6     4     7    1
    7     7     8    1
    8     7     9    2
    9     9    10    1
   10     9    11    1
   11    11    12    1
   12    11    13    1
   13    11    14    1
   14    14    15    1
   15    14    16    1
   16    14    17    1
@<TRIPOS>SUBSTRUCTURE
       1 MOL1            1 RESIDUE      1      MOL     
@<SCITEGIC>MOL_PROPERTY
VConf Rank
SciTegic.value.IntegerValue
632

@<SCITEGIC>MOL_PROPERTY
Conf_Id
SciTegic.value.IntegerValue
35

@<SCITEGIC>MOL_PROPERTY
Delta U+W
SciTegic.value.DoubleValue
-0.102

@<SCITEGIC>MOL_PROPERTY
U+W
SciTegic.value.DoubleValue
-49.529

@<SCITEGIC>MOL_PROPERTY
Grad RMS
SciTegic.value.DoubleValue
0.000000

@<SCITEGIC>MOL_PROPERTY
U
SciTegic.value.DoubleValue
13.666

@<SCITEGIC>MOL_PROPERTY
W
SciTegic.value.DoubleValue
-63.195

@<SCITEGIC>MOL_PROPERTY
W(PB)
SciTegic.value.DoubleValue
-65.299

@<SCITEGIC>MOL_PROPERTY
W(SA)
SciTegic.value.DoubleValue
2.103

@<SCITEGIC>MOL_PROPERTY
Valence
SciTegic.value.DoubleValue
15.226

@<SCITEGIC>MOL_PROPERTY
Coulomb
SciTegic.value.DoubleValue
-1.822

@<SCITEGIC>MOL_PROPERTY
VdW
SciTegic.value.DoubleValue
0.261

@<SCITEGIC>MOL_PROPERTY
VdW6
SciTegic.value.DoubleValue
-4.165

@<SCITEGIC>MOL_PROPERTY
VdW12
SciTegic.value.DoubleValue
4.426

@<SCITEGIC>MOL_PROPERTY
Bond
SciTegic.value.DoubleValue
0.044

@<SCITEGIC>MOL_PROPERTY
Angle
SciTegic.value.DoubleValue
2.229

@<SCITEGIC>MOL_PROPERTY
Pdih
SciTegic.value.DoubleValue
12.953

@<SCITEGIC>MOL_PROPERTY
Idih
SciTegic.value.DoubleValue
0.000

@<SCITEGIC>MOL_PROPERTY
Tether
SciTegic.value.DoubleValue
0.000

@<TRIPOS>MOLECULE
guest-s20_confgen4.mol2 : confsearch ligand conformer 633
          17          16           1
SMALL
USER_CHARGES
 
@<TRIPOS>ATOM
       1    C1      18.246312   16.981580   21.641098 C.2        1 MOL1         0.6132
       2    O1      18.497967   16.454098   20.575545 O.co2      1 MOL1        -0.6749
       3    O2      17.962098   16.361942   22.647140 O.co2      1 MOL1        -0.6749
       4    C2      18.280288   18.502455   21.715111 C.3        1 MOL1        -0.1955
       5    H1      17.642156   18.819558   22.548669 H          1 MOL1         0.0733
       6    H2      17.825577   18.892491   20.797168 H          1 MOL1         0.0733
       7    C3      19.688641   19.044789   21.869454 C.2        1 MOL1        -0.1395
       8    H3      20.329125   18.899380   21.001281 H          1 MOL1         0.0816
       9    C4      20.138130   19.652845   22.974416 C.2        1 MOL1        -0.1394
      10    H4      19.469057   19.776448   23.825385 H          1 MOL1         0.0816
      11    C5      21.532067   20.214583   23.197975 C.3        1 MOL1        -0.1826
      12    H5      21.451215   21.281772   23.445112 H          1 MOL1         0.0736
      13    H6      21.969926   19.738495   24.085748 H          1 MOL1         0.0736
      14    C6      22.501744   20.045945   22.007465 C.3        1 MOL1        -0.2882
      15    H7      22.120980   20.557329   21.113649 H          1 MOL1         0.0749
      16    H8      23.483560   20.474473   22.247112 H          1 MOL1         0.0749
      17    H9      22.648023   18.984938   21.765891 H          1 MOL1         0.0749
@<TRIPOS>BOND
    1     1     2    1
    2     1     3    2
    3     1     4    1
    4     4     5    1
    5     4     6    1
    6     4     7    1
    7     7     8    1
    8     7     9    2
    9     9    10    1
   10     9    11    1
   11    11    12    1
   12    11    13    1
   13    11    14    1
   14    14    15    1
   15    14    16    1
   16    14    17    1
@<TRIPOS>SUBSTRUCTURE
       1 MOL1            1 RESIDUE      1      MOL     
@<SCITEGIC>MOL_PROPERTY
VConf Rank
SciTegic.value.IntegerValue
633

@<SCITEGIC>MOL_PROPERTY
Conf_Id
SciTegic.value.IntegerValue
19

@<SCITEGIC>MOL_PROPERTY
Delta U+W
SciTegic.value.DoubleValue
-0.496

@<SCITEGIC>MOL_PROPERTY
U+W
SciTegic.value.DoubleValue
-49.923

@<SCITEGIC>MOL_PROPERTY
Grad RMS
SciTegic.value.DoubleValue
0.000000

@<SCITEGIC>MOL_PROPERTY
U
SciTegic.value.DoubleValue
13.863

@<SCITEGIC>MOL_PROPERTY
W
SciTegic.value.DoubleValue
-63.786

@<SCITEGIC>MOL_PROPERTY
W(PB)
SciTegic.value.DoubleValue
-65.856

@<SCITEGIC>MOL_PROPERTY
W(SA)
SciTegic.value.DoubleValue
2.070

@<SCITEGIC>MOL_PROPERTY
Valence
SciTegic.value.DoubleValue
14.117

@<SCITEGIC>MOL_PROPERTY
Coulomb
SciTegic.value.DoubleValue
-1.228

@<SCITEGIC>MOL_PROPERTY
VdW
SciTegic.value.DoubleValue
0.974

@<SCITEGIC>MOL_PROPERTY
VdW6
SciTegic.value.DoubleValue
-4.885

@<SCITEGIC>MOL_PROPERTY
VdW12
SciTegic.value.DoubleValue
5.859

@<SCITEGIC>MOL_PROPERTY
Bond
SciTegic.value.DoubleValue
0.094

@<SCITEGIC>MOL_PROPERTY
Angle
SciTegic.value.DoubleValue
2.818

@<SCITEGIC>MOL_PROPERTY
Pdih
SciTegic.value.DoubleValue
11.205

@<SCITEGIC>MOL_PROPERTY
Idih
SciTegic.value.DoubleValue
0.000

@<SCITEGIC>MOL_PROPERTY
Tether
SciTegic.value.DoubleValue
0.000

@<TRIPOS>MOLECULE
guest-s20_confgen4.mol2 : confsearch ligand conformer 634
          17          16           1
SMALL
USER_CHARGES
 
@<TRIPOS>ATOM
       1    C1      22.514004   20.735879   22.735359 C.2        1 MOL1         0.6132
       2    O1      23.059404   20.136907   23.641220 O.co2      1 MOL1        -0.6749
       3    O2      23.102731   21.162559   21.761527 O.co2      1 MOL1        -0.6749
       4    C2      21.012753   20.975452   22.828502 C.3        1 MOL1        -0.1955
       5    H1      20.816338   22.001225   22.495793 H          1 MOL1         0.0733
       6    H2      20.721059   20.919046   23.884147 H          1 MOL1         0.0733
       7    C3      20.214927   19.994350   21.990840 C.2        1 MOL1        -0.1395
       8    H3      20.336685   20.096721   20.912920 H          1 MOL1         0.0816
       9    C4      19.414646   19.051338   22.497293 C.2        1 MOL1        -0.1394
      10    H4      19.297274   18.946098   23.575351 H          1 MOL1         0.0816
      11    C5      18.622235   18.072121   21.660303 C.3        1 MOL1        -0.1826
      12    H5      17.582079   18.040350   22.011853 H          1 MOL1         0.0736
      13    H6      18.591026   18.399715   20.612011 H          1 MOL1         0.0736
      14    C6      19.233271   16.659299   21.734866 C.3        1 MOL1        -0.2882
      15    H7      19.241425   16.290172   22.768841 H          1 MOL1         0.0749
      16    H8      18.654710   15.952940   21.125447 H          1 MOL1         0.0749
      17    H9      20.267010   16.661835   21.364650 H          1 MOL1         0.0749
@<TRIPOS>BOND
    1     1     2    1
    2     1     3    2
    3     1     4    1
    4     4     5    1
    5     4     6    1
    6     4     7    1
    7     7     8    1
    8     7     9    2
    9     9    10    1
   10     9    11    1
   11    11    12    1
   12    11    13    1
   13    11    14    1
   14    14    15    1
   15    14    16    1
   16    14    17    1
@<TRIPOS>SUBSTRUCTURE
       1 MOL1            1 RESIDUE      1      MOL     
@<SCITEGIC>MOL_PROPERTY
VConf Rank
SciTegic.value.IntegerValue
634

@<SCITEGIC>MOL_PROPERTY
Conf_Id
SciTegic.value.IntegerValue
7

@<SCITEGIC>MOL_PROPERTY
Delta U+W
SciTegic.value.DoubleValue
-0.041

@<SCITEGIC>MOL_PROPERTY
U+W
SciTegic.value.DoubleValue
-49.468

@<SCITEGIC>MOL_PROPERTY
Grad RMS
SciTegic.value.DoubleValue
0.000000

@<SCITEGIC>MOL_PROPERTY
U
SciTegic.value.DoubleValue
14.121

@<SCITEGIC>MOL_PROPERTY
W
SciTegic.value.DoubleValue
-63.589

@<SCITEGIC>MOL_PROPERTY
W(PB)
SciTegic.value.DoubleValue
-65.660

@<SCITEGIC>MOL_PROPERTY
W(SA)
SciTegic.value.DoubleValue
2.071

@<SCITEGIC>MOL_PROPERTY
Valence
SciTegic.value.DoubleValue
15.230

@<SCITEGIC>MOL_PROPERTY
Coulomb
SciTegic.value.DoubleValue
-1.333

@<SCITEGIC>MOL_PROPERTY
VdW
SciTegic.value.DoubleValue
0.224

@<SCITEGIC>MOL_PROPERTY
VdW6
SciTegic.value.DoubleValue
-4.212

@<SCITEGIC>MOL_PROPERTY
VdW12
SciTegic.value.DoubleValue
4.436

@<SCITEGIC>MOL_PROPERTY
Bond
SciTegic.value.DoubleValue
0.044

@<SCITEGIC>MOL_PROPERTY
Angle
SciTegic.value.DoubleValue
2.230

@<SCITEGIC>MOL_PROPERTY
Pdih
SciTegic.value.DoubleValue
12.956

@<SCITEGIC>MOL_PROPERTY
Idih
SciTegic.value.DoubleValue
0.000

@<SCITEGIC>MOL_PROPERTY
Tether
SciTegic.value.DoubleValue
0.000

@<TRIPOS>MOLECULE
guest-s20_confgen4.mol2 : confsearch ligand conformer 635
          17          16           1
SMALL
USER_CHARGES
 
@<TRIPOS>ATOM
       1    C1      22.353049   20.870398   22.629193 C.2        1 MOL1         0.6132
       2    O1      23.030762   20.542223   21.675254 O.co2      1 MOL1        -0.6749
       3    O2      22.752705   20.846058   23.776697 O.co2      1 MOL1        -0.6749
       4    C2      20.933632   21.366001   22.369945 C.3        1 MOL1        -0.1955
       5    H1      20.925914   21.869908   21.396402 H          1 MOL1         0.0733
       6    H2      20.707722   22.140585   23.112040 H          1 MOL1         0.0733
       7    C3      19.849089   20.298425   22.400329 C.2        1 MOL1        -0.1395
       8    H3      18.843755   20.673611   22.213022 H          1 MOL1         0.0816
       9    C4      20.036367   18.993044   22.628153 C.2        1 MOL1        -0.1394
      10    H4      21.031353   18.591824   22.817253 H          1 MOL1         0.0816
      11    C5      18.921279   17.971239   22.649025 C.3        1 MOL1        -0.1826
      12    H5      19.013450   17.340574   23.543612 H          1 MOL1         0.0736
      13    H6      17.943910   18.468947   22.713758 H          1 MOL1         0.0736
      14    C6      18.959408   17.084406   21.389220 C.3        1 MOL1        -0.2882
      15    H7      18.149134   16.344089   21.410343 H          1 MOL1         0.0749
      16    H8      18.843091   17.691373   20.481665 H          1 MOL1         0.0749
      17    H9      19.912787   16.544366   21.319344 H          1 MOL1         0.0749
@<TRIPOS>BOND
    1     1     2    1
    2     1     3    2
    3     1     4    1
    4     4     5    1
    5     4     6    1
    6     4     7    1
    7     7     8    1
    8     7     9    2
    9     9    10    1
   10     9    11    1
   11    11    12    1
   12    11    13    1
   13    11    14    1
   14    14    15    1
   15    14    16    1
   16    14    17    1
@<TRIPOS>SUBSTRUCTURE
       1 MOL1            1 RESIDUE      1      MOL     
@<SCITEGIC>MOL_PROPERTY
VConf Rank
SciTegic.value.IntegerValue
635

@<SCITEGIC>MOL_PROPERTY
Conf_Id
SciTegic.value.IntegerValue
39

@<SCITEGIC>MOL_PROPERTY
Delta U+W
SciTegic.value.DoubleValue
-0.422

@<SCITEGIC>MOL_PROPERTY
U+W
SciTegic.value.DoubleValue
-49.849

@<SCITEGIC>MOL_PROPERTY
Grad RMS
SciTegic.value.DoubleValue
0.000000

@<SCITEGIC>MOL_PROPERTY
U
SciTegic.value.DoubleValue
14.465

@<SCITEGIC>MOL_PROPERTY
W
SciTegic.value.DoubleValue
-64.314

@<SCITEGIC>MOL_PROPERTY
W(PB)
SciTegic.value.DoubleValue
-66.406

@<SCITEGIC>MOL_PROPERTY
W(SA)
SciTegic.value.DoubleValue
2.093

@<SCITEGIC>MOL_PROPERTY
Valence
SciTegic.value.DoubleValue
14.072

@<SCITEGIC>MOL_PROPERTY
Coulomb
SciTegic.value.DoubleValue
-0.199

@<SCITEGIC>MOL_PROPERTY
VdW
SciTegic.value.DoubleValue
0.592

@<SCITEGIC>MOL_PROPERTY
VdW6
SciTegic.value.DoubleValue
-5.019

@<SCITEGIC>MOL_PROPERTY
VdW12
SciTegic.value.DoubleValue
5.611

@<SCITEGIC>MOL_PROPERTY
Bond
SciTegic.value.DoubleValue
0.085

@<SCITEGIC>MOL_PROPERTY
Angle
SciTegic.value.DoubleValue
2.748

@<SCITEGIC>MOL_PROPERTY
Pdih
SciTegic.value.DoubleValue
11.238

@<SCITEGIC>MOL_PROPERTY
Idih
SciTegic.value.DoubleValue
0.001

@<SCITEGIC>MOL_PROPERTY
Tether
SciTegic.value.DoubleValue
0.000

@<TRIPOS>MOLECULE
guest-s20_confgen4.mol2 : confsearch ligand conformer 636
          17          16           1
SMALL
USER_CHARGES
 
@<TRIPOS>ATOM
       1    C1      18.553453   21.728680   23.358191 C.2        1 MOL1         0.6132
       2    O1      17.344079   21.723304   23.238417 O.co2      1 MOL1        -0.6749
       3    O2      19.235089   22.728801   23.248870 O.co2      1 MOL1        -0.6749
       4    C2      19.250118   20.410117   23.667470 C.3        1 MOL1        -0.1955
       5    H1      18.638675   19.872280   24.401213 H          1 MOL1         0.0733
       6    H2      20.208697   20.633689   24.150979 H          1 MOL1         0.0733
       7    C3      19.451343   19.555409   22.430649 C.2        1 MOL1        -0.1395
       8    H3      18.539060   19.159409   21.985538 H          1 MOL1         0.0816
       9    C4      20.643520   19.284445   21.890723 C.2        1 MOL1        -0.1394
      10    H4      21.555130   19.683201   22.334595 H          1 MOL1         0.0816
      11    C5      20.841963   18.435078   20.655200 C.3        1 MOL1        -0.1826
      12    H5      19.887619   18.291734   20.129935 H          1 MOL1         0.0736
      13    H6      21.512904   18.950633   19.954789 H          1 MOL1         0.0736
      14    C6      21.436048   17.060095   21.017894 C.3        1 MOL1        -0.2882
      15    H7      20.769098   16.514449   21.698372 H          1 MOL1         0.0749
      16    H8      21.578348   16.448604   20.117386 H          1 MOL1         0.0749
      17    H9      22.410569   17.172182   21.511020 H          1 MOL1         0.0749
@<TRIPOS>BOND
    1     1     2    1
    2     1     3    2
    3     1     4    1
    4     4     5    1
    5     4     6    1
    6     4     7    1
    7     7     8    1
    8     7     9    2
    9     9    10    1
   10     9    11    1
   11    11    12    1
   12    11    13    1
   13    11    14    1
   14    14    15    1
   15    14    16    1
   16    14    17    1
@<TRIPOS>SUBSTRUCTURE
       1 MOL1            1 RESIDUE      1      MOL     
@<SCITEGIC>MOL_PROPERTY
VConf Rank
SciTegic.value.IntegerValue
636

@<SCITEGIC>MOL_PROPERTY
Conf_Id
SciTegic.value.IntegerValue
38

@<SCITEGIC>MOL_PROPERTY
Delta U+W
SciTegic.value.DoubleValue
0.000

@<SCITEGIC>MOL_PROPERTY
U+W
SciTegic.value.DoubleValue
-49.427

@<SCITEGIC>MOL_PROPERTY
Grad RMS
SciTegic.value.DoubleValue
0.000000

@<SCITEGIC>MOL_PROPERTY
U
SciTegic.value.DoubleValue
13.666

@<SCITEGIC>MOL_PROPERTY
W
SciTegic.value.DoubleValue
-63.093

@<SCITEGIC>MOL_PROPERTY
W(PB)
SciTegic.value.DoubleValue
-65.225

@<SCITEGIC>MOL_PROPERTY
W(SA)
SciTegic.value.DoubleValue
2.132

@<SCITEGIC>MOL_PROPERTY
Valence
SciTegic.value.DoubleValue
15.226

@<SCITEGIC>MOL_PROPERTY
Coulomb
SciTegic.value.DoubleValue
-1.822

@<SCITEGIC>MOL_PROPERTY
VdW
SciTegic.value.DoubleValue
0.261

@<SCITEGIC>MOL_PROPERTY
VdW6
SciTegic.value.DoubleValue
-4.165

@<SCITEGIC>MOL_PROPERTY
VdW12
SciTegic.value.DoubleValue
4.426

@<SCITEGIC>MOL_PROPERTY
Bond
SciTegic.value.DoubleValue
0.044

@<SCITEGIC>MOL_PROPERTY
Angle
SciTegic.value.DoubleValue
2.229

@<SCITEGIC>MOL_PROPERTY
Pdih
SciTegic.value.DoubleValue
12.953

@<SCITEGIC>MOL_PROPERTY
Idih
SciTegic.value.DoubleValue
0.000

@<SCITEGIC>MOL_PROPERTY
Tether
SciTegic.value.DoubleValue
0.000

@<TRIPOS>MOLECULE
guest-s20_confgen4.mol2 : confsearch ligand conformer 637
          17          16           1
SMALL
USER_CHARGES
 
@<TRIPOS>ATOM
       1    C1      18.339813   19.637502   24.718619 C.2        1 MOL1         0.6132
       2    O1      17.165382   19.510418   24.433347 O.co2      1 MOL1        -0.6749
       3    O2      18.749909   20.437210   25.536694 O.co2      1 MOL1        -0.6749
       4    C2      19.354092   18.743139   24.017935 C.3        1 MOL1        -0.1955
       5    H1      18.834358   17.842626   23.669235 H          1 MOL1         0.0733
       6    H2      20.088522   18.420439   24.764919 H          1 MOL1         0.0733
       7    C3      20.053248   19.446176   22.870039 C.2        1 MOL1        -0.1395
       8    H3      20.720841   20.257378   23.158956 H          1 MOL1         0.0816
       9    C4      19.888965   19.127756   21.582464 C.2        1 MOL1        -0.1394
      10    H4      19.218814   18.318570   21.294063 H          1 MOL1         0.0816
      11    C5      20.583930   19.832494   20.438922 C.3        1 MOL1        -0.1826
      12    H5      19.851166   20.090586   19.662406 H          1 MOL1         0.0736
      13    H6      21.026066   20.778043   20.781957 H          1 MOL1         0.0736
      14    C6      21.686905   18.945065   19.829844 C.3        1 MOL1        -0.2882
      15    H7      21.266388   18.007376   19.443409 H          1 MOL1         0.0749
      16    H8      22.187063   19.461441   19.000215 H          1 MOL1         0.0749
      17    H9      22.446063   18.694887   20.582633 H          1 MOL1         0.0749
@<TRIPOS>BOND
    1     1     2    1
    2     1     3    2
    3     1     4    1
    4     4     5    1
    5     4     6    1
    6     4     7    1
    7     7     8    1
    8     7     9    2
    9     9    10    1
   10     9    11    1
   11    11    12    1
   12    11    13    1
   13    11    14    1
   14    14    15    1
   15    14    16    1
   16    14    17    1
@<TRIPOS>SUBSTRUCTURE
       1 MOL1            1 RESIDUE      1      MOL     
@<SCITEGIC>MOL_PROPERTY
VConf Rank
SciTegic.value.IntegerValue
637

@<SCITEGIC>MOL_PROPERTY
Conf_Id
SciTegic.value.IntegerValue
35

@<SCITEGIC>MOL_PROPERTY
Delta U+W
SciTegic.value.DoubleValue
-0.102

@<SCITEGIC>MOL_PROPERTY
U+W
SciTegic.value.DoubleValue
-49.529

@<SCITEGIC>MOL_PROPERTY
Grad RMS
SciTegic.value.DoubleValue
0.000000

@<SCITEGIC>MOL_PROPERTY
U
SciTegic.value.DoubleValue
13.666

@<SCITEGIC>MOL_PROPERTY
W
SciTegic.value.DoubleValue
-63.195

@<SCITEGIC>MOL_PROPERTY
W(PB)
SciTegic.value.DoubleValue
-65.299

@<SCITEGIC>MOL_PROPERTY
W(SA)
SciTegic.value.DoubleValue
2.103

@<SCITEGIC>MOL_PROPERTY
Valence
SciTegic.value.DoubleValue
15.226

@<SCITEGIC>MOL_PROPERTY
Coulomb
SciTegic.value.DoubleValue
-1.822

@<SCITEGIC>MOL_PROPERTY
VdW
SciTegic.value.DoubleValue
0.261

@<SCITEGIC>MOL_PROPERTY
VdW6
SciTegic.value.DoubleValue
-4.165

@<SCITEGIC>MOL_PROPERTY
VdW12
SciTegic.value.DoubleValue
4.426

@<SCITEGIC>MOL_PROPERTY
Bond
SciTegic.value.DoubleValue
0.044

@<SCITEGIC>MOL_PROPERTY
Angle
SciTegic.value.DoubleValue
2.229

@<SCITEGIC>MOL_PROPERTY
Pdih
SciTegic.value.DoubleValue
12.953

@<SCITEGIC>MOL_PROPERTY
Idih
SciTegic.value.DoubleValue
0.000

@<SCITEGIC>MOL_PROPERTY
Tether
SciTegic.value.DoubleValue
0.000

@<TRIPOS>MOLECULE
guest-s20_confgen4.mol2 : confsearch ligand conformer 638
          17          16           1
SMALL
USER_CHARGES
 
@<TRIPOS>ATOM
       1    C1      18.616460   21.382375   23.158458 C.2        1 MOL1         0.6132
       2    O1      17.928899   21.811243   22.252751 O.co2      1 MOL1        -0.6749
       3    O2      18.201905   21.192452   24.284923 O.co2      1 MOL1        -0.6749
       4    C2      20.079419   21.075829   22.866099 C.3        1 MOL1        -0.1955
       5    H1      20.635401   21.125156   23.810046 H          1 MOL1         0.0733
       6    H2      20.467024   21.875082   22.223863 H          1 MOL1         0.0733
       7    C3      20.267016   19.729621   22.192351 C.2        1 MOL1        -0.1395
       8    H3      19.871829   19.669383   21.179785 H          1 MOL1         0.0816
       9    C4      20.861598   18.679922   22.773139 C.2        1 MOL1        -0.1394
      10    H4      21.241039   18.776538   23.789886 H          1 MOL1         0.0816
      11    C5      21.079079   17.306576   22.160594 C.3        1 MOL1        -0.1826
      12    H5      22.153224   17.077219   22.171308 H          1 MOL1         0.0736
      13    H6      20.609561   16.550754   22.804649 H          1 MOL1         0.0736
      14    C6      20.543970   17.142543   20.720878 C.3        1 MOL1        -0.2882
      15    H7      21.032545   17.848121   20.036147 H          1 MOL1         0.0749
      16    H8      20.737824   16.127118   20.351607 H          1 MOL1         0.0749
      17    H9      19.460071   17.313191   20.681736 H          1 MOL1         0.0749
@<TRIPOS>BOND
    1     1     2    1
    2     1     3    2
    3     1     4    1
    4     4     5    1
    5     4     6    1
    6     4     7    1
    7     7     8    1
    8     7     9    2
    9     9    10    1
   10     9    11    1
   11    11    12    1
   12    11    13    1
   13    11    14    1
   14    14    15    1
   15    14    16    1
   16    14    17    1
@<TRIPOS>SUBSTRUCTURE
       1 MOL1            1 RESIDUE      1      MOL     
@<SCITEGIC>MOL_PROPERTY
VConf Rank
SciTegic.value.IntegerValue
638

@<SCITEGIC>MOL_PROPERTY
Conf_Id
SciTegic.value.IntegerValue
19

@<SCITEGIC>MOL_PROPERTY
Delta U+W
SciTegic.value.DoubleValue
-0.496

@<SCITEGIC>MOL_PROPERTY
U+W
SciTegic.value.DoubleValue
-49.923

@<SCITEGIC>MOL_PROPERTY
Grad RMS
SciTegic.value.DoubleValue
0.000000

@<SCITEGIC>MOL_PROPERTY
U
SciTegic.value.DoubleValue
13.863

@<SCITEGIC>MOL_PROPERTY
W
SciTegic.value.DoubleValue
-63.786

@<SCITEGIC>MOL_PROPERTY
W(PB)
SciTegic.value.DoubleValue
-65.856

@<SCITEGIC>MOL_PROPERTY
W(SA)
SciTegic.value.DoubleValue
2.070

@<SCITEGIC>MOL_PROPERTY
Valence
SciTegic.value.DoubleValue
14.117

@<SCITEGIC>MOL_PROPERTY
Coulomb
SciTegic.value.DoubleValue
-1.228

@<SCITEGIC>MOL_PROPERTY
VdW
SciTegic.value.DoubleValue
0.974

@<SCITEGIC>MOL_PROPERTY
VdW6
SciTegic.value.DoubleValue
-4.885

@<SCITEGIC>MOL_PROPERTY
VdW12
SciTegic.value.DoubleValue
5.859

@<SCITEGIC>MOL_PROPERTY
Bond
SciTegic.value.DoubleValue
0.094

@<SCITEGIC>MOL_PROPERTY
Angle
SciTegic.value.DoubleValue
2.818

@<SCITEGIC>MOL_PROPERTY
Pdih
SciTegic.value.DoubleValue
11.205

@<SCITEGIC>MOL_PROPERTY
Idih
SciTegic.value.DoubleValue
0.000

@<SCITEGIC>MOL_PROPERTY
Tether
SciTegic.value.DoubleValue
0.000

@<TRIPOS>MOLECULE
guest-s20_confgen4.mol2 : confsearch ligand conformer 639
          17          16           1
SMALL
USER_CHARGES
 
@<TRIPOS>ATOM
       1    C1      20.514271   17.557576   24.706179 C.2        1 MOL1         0.6132
       2    O1      20.417975   18.427372   25.549384 O.co2      1 MOL1        -0.6749
       3    O2      19.945136   16.486155   24.777904 O.co2      1 MOL1        -0.6749
       4    C2      21.404608   17.817925   23.498145 C.3        1 MOL1        -0.1955
       5    H1      21.970011   16.901031   23.295387 H          1 MOL1         0.0733
       6    H2      22.133512   18.591121   23.769291 H          1 MOL1         0.0733
       7    C3      20.612806   18.224034   22.269777 C.2        1 MOL1        -0.1395
       8    H3      19.977388   17.445914   21.847891 H          1 MOL1         0.0816
       9    C4      20.655441   19.439967   21.716690 C.2        1 MOL1        -0.1394
      10    H4      21.287071   20.219189   22.142032 H          1 MOL1         0.0816
      11    C5      19.862846   19.843731   20.493536 C.3        1 MOL1        -0.1826
      12    H5      20.521785   20.349313   19.774712 H          1 MOL1         0.0736
      13    H6      19.462788   18.956040   19.984452 H          1 MOL1         0.0736
      14    C6      18.700021   20.781439   20.872394 C.3        1 MOL1        -0.2882
      15    H7      19.074447   21.696783   21.349234 H          1 MOL1         0.0749
      16    H8      18.128015   21.070929   19.981287 H          1 MOL1         0.0749
      17    H9      18.013457   20.287490   21.572626 H          1 MOL1         0.0749
@<TRIPOS>BOND
    1     1     2    1
    2     1     3    2
    3     1     4    1
    4     4     5    1
    5     4     6    1
    6     4     7    1
    7     7     8    1
    8     7     9    2
    9     9    10    1
   10     9    11    1
   11    11    12    1
   12    11    13    1
   13    11    14    1
   14    14    15    1
   15    14    16    1
   16    14    17    1
@<TRIPOS>SUBSTRUCTURE
       1 MOL1            1 RESIDUE      1      MOL     
@<SCITEGIC>MOL_PROPERTY
VConf Rank
SciTegic.value.IntegerValue
639

@<SCITEGIC>MOL_PROPERTY
Conf_Id
SciTegic.value.IntegerValue
7

@<SCITEGIC>MOL_PROPERTY
Delta U+W
SciTegic.value.DoubleValue
-0.041

@<SCITEGIC>MOL_PROPERTY
U+W
SciTegic.value.DoubleValue
-49.468

@<SCITEGIC>MOL_PROPERTY
Grad RMS
SciTegic.value.DoubleValue
0.000000

@<SCITEGIC>MOL_PROPERTY
U
SciTegic.value.DoubleValue
14.121

@<SCITEGIC>MOL_PROPERTY
W
SciTegic.value.DoubleValue
-63.589

@<SCITEGIC>MOL_PROPERTY
W(PB)
SciTegic.value.DoubleValue
-65.660

@<SCITEGIC>MOL_PROPERTY
W(SA)
SciTegic.value.DoubleValue
2.071

@<SCITEGIC>MOL_PROPERTY
Valence
SciTegic.value.DoubleValue
15.230

@<SCITEGIC>MOL_PROPERTY
Coulomb
SciTegic.value.DoubleValue
-1.333

@<SCITEGIC>MOL_PROPERTY
VdW
SciTegic.value.DoubleValue
0.224

@<SCITEGIC>MOL_PROPERTY
VdW6
SciTegic.value.DoubleValue
-4.212

@<SCITEGIC>MOL_PROPERTY
VdW12
SciTegic.value.DoubleValue
4.436

@<SCITEGIC>MOL_PROPERTY
Bond
SciTegic.value.DoubleValue
0.044

@<SCITEGIC>MOL_PROPERTY
Angle
SciTegic.value.DoubleValue
2.230

@<SCITEGIC>MOL_PROPERTY
Pdih
SciTegic.value.DoubleValue
12.956

@<SCITEGIC>MOL_PROPERTY
Idih
SciTegic.value.DoubleValue
0.000

@<SCITEGIC>MOL_PROPERTY
Tether
SciTegic.value.DoubleValue
0.000

@<TRIPOS>MOLECULE
guest-s20_confgen4.mol2 : confsearch ligand conformer 640
          17          16           1
SMALL
USER_CHARGES
 
@<TRIPOS>ATOM
       1    C1      19.722476   17.241188   24.091991 C.2        1 MOL1         0.6132
       2    O1      19.139472   16.426570   23.403880 O.co2      1 MOL1        -0.6749
       3    O2      19.293120   17.655574   25.150773 O.co2      1 MOL1        -0.6749
       4    C2      21.079245   17.750180   23.614829 C.3        1 MOL1        -0.1955
       5    H1      21.566207   16.939871   23.059820 H          1 MOL1         0.0733
       6    H2      21.701954   17.926058   24.499713 H          1 MOL1         0.0733
       7    C3      21.044879   19.007121   22.757045 C.2        1 MOL1        -0.1395
       8    H3      22.023720   19.353196   22.427428 H          1 MOL1         0.0816
       9    C4      19.947852   19.682899   22.395309 C.2        1 MOL1        -0.1394
      10    H4      18.957068   19.357755   22.710527 H          1 MOL1         0.0816
      11    C5      19.968486   20.930649   21.540536 C.3        1 MOL1        -0.1826
      12    H5      19.342087   21.706098   22.001864 H          1 MOL1         0.0736
      13    H6      20.986047   21.340942   21.482387 H          1 MOL1         0.0736
      14    C6      19.455684   20.635401   20.117546 C.3        1 MOL1        -0.2882
      15    H7      19.471521   21.544383   19.502273 H          1 MOL1         0.0749
      16    H8      20.083023   19.880073   19.626101 H          1 MOL1         0.0749
      17    H9      18.424565   20.259113   20.143232 H          1 MOL1         0.0749
@<TRIPOS>BOND
    1     1     2    1
    2     1     3    2
    3     1     4    1
    4     4     5    1
    5     4     6    1
    6     4     7    1
    7     7     8    1
    8     7     9    2
    9     9    10    1
   10     9    11    1
   11    11    12    1
   12    11    13    1
   13    11    14    1
   14    14    15    1
   15    14    16    1
   16    14    17    1
@<TRIPOS>SUBSTRUCTURE
       1 MOL1            1 RESIDUE      1      MOL     
@<SCITEGIC>MOL_PROPERTY
VConf Rank
SciTegic.value.IntegerValue
640

@<SCITEGIC>MOL_PROPERTY
Conf_Id
SciTegic.value.IntegerValue
39

@<SCITEGIC>MOL_PROPERTY
Delta U+W
SciTegic.value.DoubleValue
-0.422

@<SCITEGIC>MOL_PROPERTY
U+W
SciTegic.value.DoubleValue
-49.849

@<SCITEGIC>MOL_PROPERTY
Grad RMS
SciTegic.value.DoubleValue
0.000000

@<SCITEGIC>MOL_PROPERTY
U
SciTegic.value.DoubleValue
14.465

@<SCITEGIC>MOL_PROPERTY
W
SciTegic.value.DoubleValue
-64.314

@<SCITEGIC>MOL_PROPERTY
W(PB)
SciTegic.value.DoubleValue
-66.406

@<SCITEGIC>MOL_PROPERTY
W(SA)
SciTegic.value.DoubleValue
2.093

@<SCITEGIC>MOL_PROPERTY
Valence
SciTegic.value.DoubleValue
14.072

@<SCITEGIC>MOL_PROPERTY
Coulomb
SciTegic.value.DoubleValue
-0.199

@<SCITEGIC>MOL_PROPERTY
VdW
SciTegic.value.DoubleValue
0.592

@<SCITEGIC>MOL_PROPERTY
VdW6
SciTegic.value.DoubleValue
-5.019

@<SCITEGIC>MOL_PROPERTY
VdW12
SciTegic.value.DoubleValue
5.611

@<SCITEGIC>MOL_PROPERTY
Bond
SciTegic.value.DoubleValue
0.085

@<SCITEGIC>MOL_PROPERTY
Angle
SciTegic.value.DoubleValue
2.748

@<SCITEGIC>MOL_PROPERTY
Pdih
SciTegic.value.DoubleValue
11.238

@<SCITEGIC>MOL_PROPERTY
Idih
SciTegic.value.DoubleValue
0.001

@<SCITEGIC>MOL_PROPERTY
Tether
SciTegic.value.DoubleValue
0.000

@<TRIPOS>MOLECULE
guest-s20_confgen4.mol2 : confsearch ligand conformer 641
          17          16           1
SMALL
USER_CHARGES
 
@<TRIPOS>ATOM
       1    C1      20.446838   21.332301   19.725264 C.2        1 MOL1         0.6132
       2    O1      19.645791   22.245080   19.679223 O.co2      1 MOL1        -0.6749
       3    O2      20.849325   20.741287   18.742653 O.co2      1 MOL1        -0.6749
       4    C2      20.978000   20.911389   21.089194 C.3        1 MOL1        -0.1955
       5    H1      21.164249   21.821220   21.671455 H          1 MOL1         0.0733
       6    H2      21.947443   20.419976   20.943131 H          1 MOL1         0.0733
       7    C3      20.015611   20.005034   21.832882 C.2        1 MOL1        -0.1395
       8    H3      19.087900   20.476619   22.155621 H          1 MOL1         0.0816
       9    C4      20.247763   18.714762   22.092750 C.2        1 MOL1        -0.1394
      10    H4      21.174340   18.243075   21.767132 H          1 MOL1         0.0816
      11    C5      19.285305   17.811566   22.831149 C.3        1 MOL1        -0.1826
      12    H5      18.292149   18.277348   22.893672 H          1 MOL1         0.0736
      13    H6      19.158509   16.872209   22.276113 H          1 MOL1         0.0736
      14    C6      19.794609   17.503613   24.252710 C.3        1 MOL1        -0.2882
      15    H7      19.904795   18.427321   24.835996 H          1 MOL1         0.0749
      16    H8      19.092478   16.847417   24.783281 H          1 MOL1         0.0749
      17    H9      20.770606   17.001893   24.219015 H          1 MOL1         0.0749
@<TRIPOS>BOND
    1     1     2    1
    2     1     3    2
    3     1     4    1
    4     4     5    1
    5     4     6    1
    6     4     7    1
    7     7     8    1
    8     7     9    2
    9     9    10    1
   10     9    11    1
   11    11    12    1
   12    11    13    1
   13    11    14    1
   14    14    15    1
   15    14    16    1
   16    14    17    1
@<TRIPOS>SUBSTRUCTURE
       1 MOL1            1 RESIDUE      1      MOL     
@<SCITEGIC>MOL_PROPERTY
VConf Rank
SciTegic.value.IntegerValue
641

@<SCITEGIC>MOL_PROPERTY
Conf_Id
SciTegic.value.IntegerValue
38

@<SCITEGIC>MOL_PROPERTY
Delta U+W
SciTegic.value.DoubleValue
0.000

@<SCITEGIC>MOL_PROPERTY
U+W
SciTegic.value.DoubleValue
-49.427

@<SCITEGIC>MOL_PROPERTY
Grad RMS
SciTegic.value.DoubleValue
0.000000

@<SCITEGIC>MOL_PROPERTY
U
SciTegic.value.DoubleValue
13.666

@<SCITEGIC>MOL_PROPERTY
W
SciTegic.value.DoubleValue
-63.093

@<SCITEGIC>MOL_PROPERTY
W(PB)
SciTegic.value.DoubleValue
-65.225

@<SCITEGIC>MOL_PROPERTY
W(SA)
SciTegic.value.DoubleValue
2.132

@<SCITEGIC>MOL_PROPERTY
Valence
SciTegic.value.DoubleValue
15.226

@<SCITEGIC>MOL_PROPERTY
Coulomb
SciTegic.value.DoubleValue
-1.822

@<SCITEGIC>MOL_PROPERTY
VdW
SciTegic.value.DoubleValue
0.261

@<SCITEGIC>MOL_PROPERTY
VdW6
SciTegic.value.DoubleValue
-4.165

@<SCITEGIC>MOL_PROPERTY
VdW12
SciTegic.value.DoubleValue
4.426

@<SCITEGIC>MOL_PROPERTY
Bond
SciTegic.value.DoubleValue
0.044

@<SCITEGIC>MOL_PROPERTY
Angle
SciTegic.value.DoubleValue
2.229

@<SCITEGIC>MOL_PROPERTY
Pdih
SciTegic.value.DoubleValue
12.953

@<SCITEGIC>MOL_PROPERTY
Idih
SciTegic.value.DoubleValue
0.000

@<SCITEGIC>MOL_PROPERTY
Tether
SciTegic.value.DoubleValue
0.000

@<TRIPOS>MOLECULE
guest-s20_confgen4.mol2 : confsearch ligand conformer 642
          17          16           1
SMALL
USER_CHARGES
 
@<TRIPOS>ATOM
       1    C1      20.165536   21.075303   19.508329 C.2        1 MOL1         0.6132
       2    O1      20.429795   22.217802   19.827205 O.co2      1 MOL1        -0.6749
       3    O2      19.383804   20.788395   18.623152 O.co2      1 MOL1        -0.6749
       4    C2      20.854488   19.939745   20.253620 C.3        1 MOL1        -0.1955
       5    H1      21.787635   20.326149   20.680900 H          1 MOL1         0.0733
       6    H2      21.130968   19.175510   19.518086 H          1 MOL1         0.0733
       7    C3      19.974273   19.332773   21.329516 C.2        1 MOL1        -0.1395
       8    H3      19.104334   18.786957   20.965521 H          1 MOL1         0.0816
       9    C4      20.210195   19.438006   22.640811 C.2        1 MOL1        -0.1394
      10    H4      21.078536   19.986641   23.004191 H          1 MOL1         0.0816
      11    C5      19.329217   18.835465   23.712325 C.3        1 MOL1        -0.1826
      12    H5      19.113988   19.588800   24.482192 H          1 MOL1         0.0736
      13    H6      18.361804   18.532084   23.288896 H          1 MOL1         0.0736
      14    C6      20.006340   17.613982   24.363896 C.3        1 MOL1        -0.2882
      15    H7      20.959620   17.896590   24.829533 H          1 MOL1         0.0749
      16    H8      19.362721   17.181543   25.140965 H          1 MOL1         0.0749
      17    H9      20.208272   16.835359   23.616520 H          1 MOL1         0.0749
@<TRIPOS>BOND
    1     1     2    1
    2     1     3    2
    3     1     4    1
    4     4     5    1
    5     4     6    1
    6     4     7    1
    7     7     8    1
    8     7     9    2
    9     9    10    1
   10     9    11    1
   11    11    12    1
   12    11    13    1
   13    11    14    1
   14    14    15    1
   15    14    16    1
   16    14    17    1
@<TRIPOS>SUBSTRUCTURE
       1 MOL1            1 RESIDUE      1      MOL     
@<SCITEGIC>MOL_PROPERTY
VConf Rank
SciTegic.value.IntegerValue
642

@<SCITEGIC>MOL_PROPERTY
Conf_Id
SciTegic.value.IntegerValue
35

@<SCITEGIC>MOL_PROPERTY
Delta U+W
SciTegic.value.DoubleValue
-0.102

@<SCITEGIC>MOL_PROPERTY
U+W
SciTegic.value.DoubleValue
-49.529

@<SCITEGIC>MOL_PROPERTY
Grad RMS
SciTegic.value.DoubleValue
0.000000

@<SCITEGIC>MOL_PROPERTY
U
SciTegic.value.DoubleValue
13.666

@<SCITEGIC>MOL_PROPERTY
W
SciTegic.value.DoubleValue
-63.195

@<SCITEGIC>MOL_PROPERTY
W(PB)
SciTegic.value.DoubleValue
-65.299

@<SCITEGIC>MOL_PROPERTY
W(SA)
SciTegic.value.DoubleValue
2.103

@<SCITEGIC>MOL_PROPERTY
Valence
SciTegic.value.DoubleValue
15.226

@<SCITEGIC>MOL_PROPERTY
Coulomb
SciTegic.value.DoubleValue
-1.822

@<SCITEGIC>MOL_PROPERTY
VdW
SciTegic.value.DoubleValue
0.261

@<SCITEGIC>MOL_PROPERTY
VdW6
SciTegic.value.DoubleValue
-4.165

@<SCITEGIC>MOL_PROPERTY
VdW12
SciTegic.value.DoubleValue
4.426

@<SCITEGIC>MOL_PROPERTY
Bond
SciTegic.value.DoubleValue
0.044

@<SCITEGIC>MOL_PROPERTY
Angle
SciTegic.value.DoubleValue
2.229

@<SCITEGIC>MOL_PROPERTY
Pdih
SciTegic.value.DoubleValue
12.953

@<SCITEGIC>MOL_PROPERTY
Idih
SciTegic.value.DoubleValue
0.000

@<SCITEGIC>MOL_PROPERTY
Tether
SciTegic.value.DoubleValue
0.000

@<TRIPOS>MOLECULE
guest-s20_confgen4.mol2 : confsearch ligand conformer 643
          17          16           1
SMALL
USER_CHARGES
 
@<TRIPOS>ATOM
       1    C1      20.803419   20.977428   24.403518 C.2        1 MOL1         0.6132
       2    O1      20.369941   20.535361   25.449293 O.co2      1 MOL1        -0.6749
       3    O2      21.909700   21.466989   24.288100 O.co2      1 MOL1        -0.6749
       4    C2      19.906169   20.922518   23.174037 C.3        1 MOL1        -0.1955
       5    H1      20.232241   21.703269   22.476405 H          1 MOL1         0.0733
       6    H2      18.888770   21.180103   23.490358 H          1 MOL1         0.0733
       7    C3      19.915054   19.558865   22.509375 C.2        1 MOL1        -0.1395
       8    H3      19.454864   18.764989   23.095102 H          1 MOL1         0.0816
       9    C4      20.444020   19.319229   21.302941 C.2        1 MOL1        -0.1394
      10    H4      20.900169   20.138297   20.747837 H          1 MOL1         0.0816
      11    C5      20.490753   17.982750   20.581672 C.3        1 MOL1        -0.1826
      12    H5      19.991772   18.084942   19.608491 H          1 MOL1         0.0736
      13    H6      21.536741   17.737844   20.352651 H          1 MOL1         0.0736
      14    C6      19.855484   16.803783   21.351410 C.3        1 MOL1        -0.2882
      15    H7      18.792137   16.990692   21.550814 H          1 MOL1         0.0749
      16    H8      19.929983   15.877687   20.766752 H          1 MOL1         0.0749
      17    H9      20.365647   16.638376   22.309462 H          1 MOL1         0.0749
@<TRIPOS>BOND
    1     1     2    1
    2     1     3    2
    3     1     4    1
    4     4     5    1
    5     4     6    1
    6     4     7    1
    7     7     8    1
    8     7     9    2
    9     9    10    1
   10     9    11    1
   11    11    12    1
   12    11    13    1
   13    11    14    1
   14    14    15    1
   15    14    16    1
   16    14    17    1
@<TRIPOS>SUBSTRUCTURE
       1 MOL1            1 RESIDUE      1      MOL     
@<SCITEGIC>MOL_PROPERTY
VConf Rank
SciTegic.value.IntegerValue
643

@<SCITEGIC>MOL_PROPERTY
Conf_Id
SciTegic.value.IntegerValue
19

@<SCITEGIC>MOL_PROPERTY
Delta U+W
SciTegic.value.DoubleValue
-0.496

@<SCITEGIC>MOL_PROPERTY
U+W
SciTegic.value.DoubleValue
-49.923

@<SCITEGIC>MOL_PROPERTY
Grad RMS
SciTegic.value.DoubleValue
0.000000

@<SCITEGIC>MOL_PROPERTY
U
SciTegic.value.DoubleValue
13.863

@<SCITEGIC>MOL_PROPERTY
W
SciTegic.value.DoubleValue
-63.786

@<SCITEGIC>MOL_PROPERTY
W(PB)
SciTegic.value.DoubleValue
-65.856

@<SCITEGIC>MOL_PROPERTY
W(SA)
SciTegic.value.DoubleValue
2.070

@<SCITEGIC>MOL_PROPERTY
Valence
SciTegic.value.DoubleValue
14.117

@<SCITEGIC>MOL_PROPERTY
Coulomb
SciTegic.value.DoubleValue
-1.228

@<SCITEGIC>MOL_PROPERTY
VdW
SciTegic.value.DoubleValue
0.974

@<SCITEGIC>MOL_PROPERTY
VdW6
SciTegic.value.DoubleValue
-4.885

@<SCITEGIC>MOL_PROPERTY
VdW12
SciTegic.value.DoubleValue
5.859

@<SCITEGIC>MOL_PROPERTY
Bond
SciTegic.value.DoubleValue
0.094

@<SCITEGIC>MOL_PROPERTY
Angle
SciTegic.value.DoubleValue
2.818

@<SCITEGIC>MOL_PROPERTY
Pdih
SciTegic.value.DoubleValue
11.205

@<SCITEGIC>MOL_PROPERTY
Idih
SciTegic.value.DoubleValue
0.000

@<SCITEGIC>MOL_PROPERTY
Tether
SciTegic.value.DoubleValue
0.000

@<TRIPOS>MOLECULE
guest-s20_confgen4.mol2 : confsearch ligand conformer 644
          17          16           1
SMALL
USER_CHARGES
 
@<TRIPOS>ATOM
       1    C1      21.975606   19.558504   24.463701 C.2        1 MOL1         0.6132
       2    O1      21.210521   19.904839   25.342057 O.co2      1 MOL1        -0.6749
       3    O2      22.865946   18.747982   24.629082 O.co2      1 MOL1        -0.6749
       4    C2      21.818872   20.180715   23.082356 C.3        1 MOL1        -0.1955
       5    H1      22.821496   20.407340   22.701738 H          1 MOL1         0.0733
       6    H2      21.294301   21.137242   23.194320 H          1 MOL1         0.0733
       7    C3      21.087877   19.269803   22.114548 C.2        1 MOL1        -0.1395
       8    H3      21.624279   18.364144   21.832998 H          1 MOL1         0.0816
       9    C4      19.869591   19.517680   21.624088 C.2        1 MOL1        -0.1394
      10    H4      19.331547   20.420913   21.909987 H          1 MOL1         0.0816
      11    C5      19.141229   18.606590   20.661414 C.3        1 MOL1        -0.1826
      12    H5      18.744530   19.194281   19.822504 H          1 MOL1         0.0736
      13    H6      19.833480   17.869892   20.230982 H          1 MOL1         0.0736
      14    C6      17.984928   17.869414   21.364643 C.3        1 MOL1        -0.2882
      15    H7      17.255931   18.582380   21.771666 H          1 MOL1         0.0749
      16    H8      17.460164   17.209423   20.661718 H          1 MOL1         0.0749
      17    H9      18.361279   17.254866   22.193119 H          1 MOL1         0.0749
@<TRIPOS>BOND
    1     1     2    1
    2     1     3    2
    3     1     4    1
    4     4     5    1
    5     4     6    1
    6     4     7    1
    7     7     8    1
    8     7     9    2
    9     9    10    1
   10     9    11    1
   11    11    12    1
   12    11    13    1
   13    11    14    1
   14    14    15    1
   15    14    16    1
   16    14    17    1
@<TRIPOS>SUBSTRUCTURE
       1 MOL1            1 RESIDUE      1      MOL     
@<SCITEGIC>MOL_PROPERTY
VConf Rank
SciTegic.value.IntegerValue
644

@<SCITEGIC>MOL_PROPERTY
Conf_Id
SciTegic.value.IntegerValue
7

@<SCITEGIC>MOL_PROPERTY
Delta U+W
SciTegic.value.DoubleValue
-0.041

@<SCITEGIC>MOL_PROPERTY
U+W
SciTegic.value.DoubleValue
-49.468

@<SCITEGIC>MOL_PROPERTY
Grad RMS
SciTegic.value.DoubleValue
0.000000

@<SCITEGIC>MOL_PROPERTY
U
SciTegic.value.DoubleValue
14.121

@<SCITEGIC>MOL_PROPERTY
W
SciTegic.value.DoubleValue
-63.589

@<SCITEGIC>MOL_PROPERTY
W(PB)
SciTegic.value.DoubleValue
-65.660

@<SCITEGIC>MOL_PROPERTY
W(SA)
SciTegic.value.DoubleValue
2.071

@<SCITEGIC>MOL_PROPERTY
Valence
SciTegic.value.DoubleValue
15.230

@<SCITEGIC>MOL_PROPERTY
Coulomb
SciTegic.value.DoubleValue
-1.333

@<SCITEGIC>MOL_PROPERTY
VdW
SciTegic.value.DoubleValue
0.224

@<SCITEGIC>MOL_PROPERTY
VdW6
SciTegic.value.DoubleValue
-4.212

@<SCITEGIC>MOL_PROPERTY
VdW12
SciTegic.value.DoubleValue
4.436

@<SCITEGIC>MOL_PROPERTY
Bond
SciTegic.value.DoubleValue
0.044

@<SCITEGIC>MOL_PROPERTY
Angle
SciTegic.value.DoubleValue
2.230

@<SCITEGIC>MOL_PROPERTY
Pdih
SciTegic.value.DoubleValue
12.956

@<SCITEGIC>MOL_PROPERTY
Idih
SciTegic.value.DoubleValue
0.000

@<SCITEGIC>MOL_PROPERTY
Tether
SciTegic.value.DoubleValue
0.000

@<TRIPOS>MOLECULE
guest-s20_confgen4.mol2 : confsearch ligand conformer 645
          17          16           1
SMALL
USER_CHARGES
 
@<TRIPOS>ATOM
       1    C1      21.219090   21.783631   22.634885 C.2        1 MOL1         0.6132
       2    O1      21.657132   21.681166   23.763872 O.co2      1 MOL1        -0.6749
       3    O2      20.461436   22.667748   22.286489 O.co2      1 MOL1        -0.6749
       4    C2      21.666118   20.763933   21.591832 C.3        1 MOL1        -0.1955
       5    H1      22.689188   20.456938   21.838510 H          1 MOL1         0.0733
       6    H2      21.730371   21.278032   20.625760 H          1 MOL1         0.0733
       7    C3      20.782511   19.531945   21.456472 C.2        1 MOL1        -0.1395
       8    H3      21.119512   18.817353   20.706583 H          1 MOL1         0.0816
       9    C4      19.674607   19.277048   22.162567 C.2        1 MOL1        -0.1394
      10    H4      19.316417   19.974409   22.918954 H          1 MOL1         0.0816
      11    C5      18.829282   18.034938   21.987831 C.3        1 MOL1        -0.1826
      12    H5      17.770470   18.315807   21.906905 H          1 MOL1         0.0736
      13    H6      19.090764   17.519347   21.053515 H          1 MOL1         0.0736
      14    C6      19.014963   17.067683   23.173148 C.3        1 MOL1        -0.2882
      15    H7      18.398348   16.169024   23.041785 H          1 MOL1         0.0749
      16    H8      20.063263   16.752410   23.258383 H          1 MOL1         0.0749
      17    H9      18.723935   17.545660   24.117764 H          1 MOL1         0.0749
@<TRIPOS>BOND
    1     1     2    1
    2     1     3    2
    3     1     4    1
    4     4     5    1
    5     4     6    1
    6     4     7    1
    7     7     8    1
    8     7     9    2
    9     9    10    1
   10     9    11    1
   11    11    12    1
   12    11    13    1
   13    11    14    1
   14    14    15    1
   15    14    16    1
   16    14    17    1
@<TRIPOS>SUBSTRUCTURE
       1 MOL1            1 RESIDUE      1      MOL     
@<SCITEGIC>MOL_PROPERTY
VConf Rank
SciTegic.value.IntegerValue
645

@<SCITEGIC>MOL_PROPERTY
Conf_Id
SciTegic.value.IntegerValue
39

@<SCITEGIC>MOL_PROPERTY
Delta U+W
SciTegic.value.DoubleValue
-0.422

@<SCITEGIC>MOL_PROPERTY
U+W
SciTegic.value.DoubleValue
-49.849

@<SCITEGIC>MOL_PROPERTY
Grad RMS
SciTegic.value.DoubleValue
0.000000

@<SCITEGIC>MOL_PROPERTY
U
SciTegic.value.DoubleValue
14.465

@<SCITEGIC>MOL_PROPERTY
W
SciTegic.value.DoubleValue
-64.314

@<SCITEGIC>MOL_PROPERTY
W(PB)
SciTegic.value.DoubleValue
-66.406

@<SCITEGIC>MOL_PROPERTY
W(SA)
SciTegic.value.DoubleValue
2.093

@<SCITEGIC>MOL_PROPERTY
Valence
SciTegic.value.DoubleValue
14.072

@<SCITEGIC>MOL_PROPERTY
Coulomb
SciTegic.value.DoubleValue
-0.199

@<SCITEGIC>MOL_PROPERTY
VdW
SciTegic.value.DoubleValue
0.592

@<SCITEGIC>MOL_PROPERTY
VdW6
SciTegic.value.DoubleValue
-5.019

@<SCITEGIC>MOL_PROPERTY
VdW12
SciTegic.value.DoubleValue
5.611

@<SCITEGIC>MOL_PROPERTY
Bond
SciTegic.value.DoubleValue
0.085

@<SCITEGIC>MOL_PROPERTY
Angle
SciTegic.value.DoubleValue
2.748

@<SCITEGIC>MOL_PROPERTY
Pdih
SciTegic.value.DoubleValue
11.238

@<SCITEGIC>MOL_PROPERTY
Idih
SciTegic.value.DoubleValue
0.001

@<SCITEGIC>MOL_PROPERTY
Tether
SciTegic.value.DoubleValue
0.000

@<TRIPOS>MOLECULE
guest-s20_confgen4.mol2 : confsearch ligand conformer 646
          17          16           1
SMALL
USER_CHARGES
 
@<TRIPOS>ATOM
       1    C1      17.231299   17.995021   22.421540 C.2        1 MOL1         0.6132
       2    O1      16.968332   17.061907   21.688663 O.co2      1 MOL1        -0.6749
       3    O2      16.437183   18.869293   22.707628 O.co2      1 MOL1        -0.6749
       4    C2      18.631179   18.067808   23.017058 C.3        1 MOL1        -0.1955
       5    H1      18.923206   17.053073   23.311238 H          1 MOL1         0.0733
       6    H2      18.582992   18.666441   23.934640 H          1 MOL1         0.0733
       7    C3      19.646170   18.641119   22.046567 C.2        1 MOL1        -0.1395
       8    H3      19.867208   18.016268   21.181752 H          1 MOL1         0.0816
       9    C4      20.248118   19.824329   22.201164 C.2        1 MOL1        -0.1394
      10    H4      20.024405   20.449972   23.064636 H          1 MOL1         0.0816
      11    C5      21.257153   20.396078   21.230456 C.3        1 MOL1        -0.1826
      12    H5      21.233684   19.842963   20.281386 H          1 MOL1         0.0736
      13    H6      20.996665   21.436911   20.995198 H          1 MOL1         0.0736
      14    C6      22.681424   20.342857   21.816700 C.3        1 MOL1        -0.2882
      15    H7      22.974199   19.307651   22.036318 H          1 MOL1         0.0749
      16    H8      23.409005   20.759620   21.108167 H          1 MOL1         0.0749
      17    H9      22.743489   20.920796   22.748131 H          1 MOL1         0.0749
@<TRIPOS>BOND
    1     1     2    1
    2     1     3    2
    3     1     4    1
    4     4     5    1
    5     4     6    1
    6     4     7    1
    7     7     8    1
    8     7     9    2
    9     9    10    1
   10     9    11    1
   11    11    12    1
   12    11    13    1
   13    11    14    1
   14    14    15    1
   15    14    16    1
   16    14    17    1
@<TRIPOS>SUBSTRUCTURE
       1 MOL1            1 RESIDUE      1      MOL     
@<SCITEGIC>MOL_PROPERTY
VConf Rank
SciTegic.value.IntegerValue
646

@<SCITEGIC>MOL_PROPERTY
Conf_Id
SciTegic.value.IntegerValue
38

@<SCITEGIC>MOL_PROPERTY
Delta U+W
SciTegic.value.DoubleValue
0.000

@<SCITEGIC>MOL_PROPERTY
U+W
SciTegic.value.DoubleValue
-49.427

@<SCITEGIC>MOL_PROPERTY
Grad RMS
SciTegic.value.DoubleValue
0.000000

@<SCITEGIC>MOL_PROPERTY
U
SciTegic.value.DoubleValue
13.666

@<SCITEGIC>MOL_PROPERTY
W
SciTegic.value.DoubleValue
-63.093

@<SCITEGIC>MOL_PROPERTY
W(PB)
SciTegic.value.DoubleValue
-65.225

@<SCITEGIC>MOL_PROPERTY
W(SA)
SciTegic.value.DoubleValue
2.132

@<SCITEGIC>MOL_PROPERTY
Valence
SciTegic.value.DoubleValue
15.226

@<SCITEGIC>MOL_PROPERTY
Coulomb
SciTegic.value.DoubleValue
-1.822

@<SCITEGIC>MOL_PROPERTY
VdW
SciTegic.value.DoubleValue
0.261

@<SCITEGIC>MOL_PROPERTY
VdW6
SciTegic.value.DoubleValue
-4.165

@<SCITEGIC>MOL_PROPERTY
VdW12
SciTegic.value.DoubleValue
4.426

@<SCITEGIC>MOL_PROPERTY
Bond
SciTegic.value.DoubleValue
0.044

@<SCITEGIC>MOL_PROPERTY
Angle
SciTegic.value.DoubleValue
2.229

@<SCITEGIC>MOL_PROPERTY
Pdih
SciTegic.value.DoubleValue
12.953

@<SCITEGIC>MOL_PROPERTY
Idih
SciTegic.value.DoubleValue
0.000

@<SCITEGIC>MOL_PROPERTY
Tether
SciTegic.value.DoubleValue
0.000

@<TRIPOS>MOLECULE
guest-s20_confgen4.mol2 : confsearch ligand conformer 647
          17          16           1
SMALL
USER_CHARGES
 
@<TRIPOS>ATOM
       1    C1      17.226344   20.020133   23.233314 C.2        1 MOL1         0.6132
       2    O1      17.258766   19.994288   24.447850 O.co2      1 MOL1        -0.6749
       3    O2      16.270665   19.652682   22.578623 O.co2      1 MOL1        -0.6749
       4    C2      18.446648   20.546363   22.489308 C.3        1 MOL1        -0.1955
       5    H1      19.004747   21.203457   23.167094 H          1 MOL1         0.0733
       6    H2      18.090768   21.168794   21.660190 H          1 MOL1         0.0733
       7    C3      19.330574   19.432203   21.961990 C.2        1 MOL1        -0.1395
       8    H3      18.896116   18.832761   21.162542 H          1 MOL1         0.0816
       9    C4      20.558730   19.168109   22.418187 C.2        1 MOL1        -0.1394
      10    H4      20.991313   19.765908   23.219792 H          1 MOL1         0.0816
      11    C5      21.437150   18.054200   21.893873 C.3        1 MOL1        -0.1826
      12    H5      21.846052   17.477620   22.734639 H          1 MOL1         0.0736
      13    H6      20.847569   17.352706   21.287638 H          1 MOL1         0.0736
      14    C6      22.594344   18.614684   21.044273 C.3        1 MOL1        -0.2882
      15    H7      23.223941   19.290903   21.637369 H          1 MOL1         0.0749
      16    H8      23.228599   17.801881   20.667236 H          1 MOL1         0.0749
      17    H9      22.209197   19.174412   20.181738 H          1 MOL1         0.0749
@<TRIPOS>BOND
    1     1     2    1
    2     1     3    2
    3     1     4    1
    4     4     5    1
    5     4     6    1
    6     4     7    1
    7     7     8    1
    8     7     9    2
    9     9    10    1
   10     9    11    1
   11    11    12    1
   12    11    13    1
   13    11    14    1
   14    14    15    1
   15    14    16    1
   16    14    17    1
@<TRIPOS>SUBSTRUCTURE
       1 MOL1            1 RESIDUE      1      MOL     
@<SCITEGIC>MOL_PROPERTY
VConf Rank
SciTegic.value.IntegerValue
647

@<SCITEGIC>MOL_PROPERTY
Conf_Id
SciTegic.value.IntegerValue
35

@<SCITEGIC>MOL_PROPERTY
Delta U+W
SciTegic.value.DoubleValue
-0.102

@<SCITEGIC>MOL_PROPERTY
U+W
SciTegic.value.DoubleValue
-49.529

@<SCITEGIC>MOL_PROPERTY
Grad RMS
SciTegic.value.DoubleValue
0.000000

@<SCITEGIC>MOL_PROPERTY
U
SciTegic.value.DoubleValue
13.666

@<SCITEGIC>MOL_PROPERTY
W
SciTegic.value.DoubleValue
-63.195

@<SCITEGIC>MOL_PROPERTY
W(PB)
SciTegic.value.DoubleValue
-65.299

@<SCITEGIC>MOL_PROPERTY
W(SA)
SciTegic.value.DoubleValue
2.103

@<SCITEGIC>MOL_PROPERTY
Valence
SciTegic.value.DoubleValue
15.226

@<SCITEGIC>MOL_PROPERTY
Coulomb
SciTegic.value.DoubleValue
-1.822

@<SCITEGIC>MOL_PROPERTY
VdW
SciTegic.value.DoubleValue
0.261

@<SCITEGIC>MOL_PROPERTY
VdW6
SciTegic.value.DoubleValue
-4.165

@<SCITEGIC>MOL_PROPERTY
VdW12
SciTegic.value.DoubleValue
4.426

@<SCITEGIC>MOL_PROPERTY
Bond
SciTegic.value.DoubleValue
0.044

@<SCITEGIC>MOL_PROPERTY
Angle
SciTegic.value.DoubleValue
2.229

@<SCITEGIC>MOL_PROPERTY
Pdih
SciTegic.value.DoubleValue
12.953

@<SCITEGIC>MOL_PROPERTY
Idih
SciTegic.value.DoubleValue
0.000

@<SCITEGIC>MOL_PROPERTY
Tether
SciTegic.value.DoubleValue
0.000

@<TRIPOS>MOLECULE
guest-s20_confgen4.mol2 : confsearch ligand conformer 648
          17          16           1
SMALL
USER_CHARGES
 
@<TRIPOS>ATOM
       1    C1      22.041339   21.095027   21.014009 C.2        1 MOL1         0.6132
       2    O1      22.771633   21.551265   21.871615 O.co2      1 MOL1        -0.6749
       3    O2      22.430323   20.742782   19.917896 O.co2      1 MOL1        -0.6749
       4    C2      20.556636   20.967430   21.328764 C.3        1 MOL1        -0.1955
       5    H1      20.004075   20.967067   20.381525 H          1 MOL1         0.0733
       6    H2      20.252195   21.866531   21.876891 H          1 MOL1         0.0733
       7    C3      20.240687   19.728303   22.144943 C.2        1 MOL1        -0.1395
       8    H3      20.632459   19.741182   23.160541 H          1 MOL1         0.0816
       9    C4      19.543371   18.684572   21.679016 C.2        1 MOL1        -0.1394
      10    H4      19.170822   18.705672   20.655372 H          1 MOL1         0.0816
      11    C5      19.194750   17.414813   22.437148 C.3        1 MOL1        -0.1826
      12    H5      18.103238   17.292136   22.444714 H          1 MOL1         0.0736
      13    H6      19.584964   16.550435   21.882977 H          1 MOL1         0.0736
      14    C6      19.717437   17.358223   23.889603 C.3        1 MOL1        -0.2882
      15    H7      19.303502   18.179242   24.489593 H          1 MOL1         0.0749
      16    H8      19.426417   16.413443   24.366811 H          1 MOL1         0.0749
      17    H9      20.813015   17.424997   23.916799 H          1 MOL1         0.0749
@<TRIPOS>BOND
    1     1     2    1
    2     1     3    2
    3     1     4    1
    4     4     5    1
    5     4     6    1
    6     4     7    1
    7     7     8    1
    8     7     9    2
    9     9    10    1
   10     9    11    1
   11    11    12    1
   12    11    13    1
   13    11    14    1
   14    14    15    1
   15    14    16    1
   16    14    17    1
@<TRIPOS>SUBSTRUCTURE
       1 MOL1            1 RESIDUE      1      MOL     
@<SCITEGIC>MOL_PROPERTY
VConf Rank
SciTegic.value.IntegerValue
648

@<SCITEGIC>MOL_PROPERTY
Conf_Id
SciTegic.value.IntegerValue
19

@<SCITEGIC>MOL_PROPERTY
Delta U+W
SciTegic.value.DoubleValue
-0.496

@<SCITEGIC>MOL_PROPERTY
U+W
SciTegic.value.DoubleValue
-49.923

@<SCITEGIC>MOL_PROPERTY
Grad RMS
SciTegic.value.DoubleValue
0.000000

@<SCITEGIC>MOL_PROPERTY
U
SciTegic.value.DoubleValue
13.863

@<SCITEGIC>MOL_PROPERTY
W
SciTegic.value.DoubleValue
-63.786

@<SCITEGIC>MOL_PROPERTY
W(PB)
SciTegic.value.DoubleValue
-65.856

@<SCITEGIC>MOL_PROPERTY
W(SA)
SciTegic.value.DoubleValue
2.070

@<SCITEGIC>MOL_PROPERTY
Valence
SciTegic.value.DoubleValue
14.117

@<SCITEGIC>MOL_PROPERTY
Coulomb
SciTegic.value.DoubleValue
-1.228

@<SCITEGIC>MOL_PROPERTY
VdW
SciTegic.value.DoubleValue
0.974

@<SCITEGIC>MOL_PROPERTY
VdW6
SciTegic.value.DoubleValue
-4.885

@<SCITEGIC>MOL_PROPERTY
VdW12
SciTegic.value.DoubleValue
5.859

@<SCITEGIC>MOL_PROPERTY
Bond
SciTegic.value.DoubleValue
0.094

@<SCITEGIC>MOL_PROPERTY
Angle
SciTegic.value.DoubleValue
2.818

@<SCITEGIC>MOL_PROPERTY
Pdih
SciTegic.value.DoubleValue
11.205

@<SCITEGIC>MOL_PROPERTY
Idih
SciTegic.value.DoubleValue
0.000

@<SCITEGIC>MOL_PROPERTY
Tether
SciTegic.value.DoubleValue
0.000

@<TRIPOS>MOLECULE
guest-s20_confgen4.mol2 : confsearch ligand conformer 649
          17          16           1
SMALL
USER_CHARGES
 
@<TRIPOS>ATOM
       1    C1      22.156519   21.103727   21.529180 C.2        1 MOL1         0.6132
       2    O1      22.227132   21.750024   22.555886 O.co2      1 MOL1        -0.6749
       3    O2      23.128354   20.722773   20.906754 O.co2      1 MOL1        -0.6749
       4    C2      20.775933   20.760444   20.985154 C.3        1 MOL1        -0.1955
       5    H1      20.799964   20.901478   19.898408 H          1 MOL1         0.0733
       6    H2      20.058507   21.485945   21.387152 H          1 MOL1         0.0733
       7    C3      20.357341   19.340804   21.317069 C.2        1 MOL1        -0.1395
       8    H3      20.933596   18.558681   20.823683 H          1 MOL1         0.0816
       9    C4      19.364522   19.026801   22.154880 C.2        1 MOL1        -0.1394
      10    H4      18.792000   19.809243   22.651934 H          1 MOL1         0.0816
      11    C5      18.950638   17.610501   22.486739 C.3        1 MOL1        -0.1826
      12    H5      17.860073   17.512592   22.399538 H          1 MOL1         0.0736
      13    H6      19.389193   16.903672   21.768915 H          1 MOL1         0.0736
      14    C6      19.388698   17.225880   23.913330 C.3        1 MOL1        -0.2882
      15    H7      18.933062   17.893528   24.656343 H          1 MOL1         0.0749
      16    H8      19.086284   16.197192   24.148729 H          1 MOL1         0.0749
      17    H9      20.479761   17.292723   24.017229 H          1 MOL1         0.0749
@<TRIPOS>BOND
    1     1     2    1
    2     1     3    2
    3     1     4    1
    4     4     5    1
    5     4     6    1
    6     4     7    1
    7     7     8    1
    8     7     9    2
    9     9    10    1
   10     9    11    1
   11    11    12    1
   12    11    13    1
   13    11    14    1
   14    14    15    1
   15    14    16    1
   16    14    17    1
@<TRIPOS>SUBSTRUCTURE
       1 MOL1            1 RESIDUE      1      MOL     
@<SCITEGIC>MOL_PROPERTY
VConf Rank
SciTegic.value.IntegerValue
649

@<SCITEGIC>MOL_PROPERTY
Conf_Id
SciTegic.value.IntegerValue
7

@<SCITEGIC>MOL_PROPERTY
Delta U+W
SciTegic.value.DoubleValue
-0.041

@<SCITEGIC>MOL_PROPERTY
U+W
SciTegic.value.DoubleValue
-49.468

@<SCITEGIC>MOL_PROPERTY
Grad RMS
SciTegic.value.DoubleValue
0.000000

@<SCITEGIC>MOL_PROPERTY
U
SciTegic.value.DoubleValue
14.121

@<SCITEGIC>MOL_PROPERTY
W
SciTegic.value.DoubleValue
-63.589

@<SCITEGIC>MOL_PROPERTY
W(PB)
SciTegic.value.DoubleValue
-65.660

@<SCITEGIC>MOL_PROPERTY
W(SA)
SciTegic.value.DoubleValue
2.071

@<SCITEGIC>MOL_PROPERTY
Valence
SciTegic.value.DoubleValue
15.230

@<SCITEGIC>MOL_PROPERTY
Coulomb
SciTegic.value.DoubleValue
-1.333

@<SCITEGIC>MOL_PROPERTY
VdW
SciTegic.value.DoubleValue
0.224

@<SCITEGIC>MOL_PROPERTY
VdW6
SciTegic.value.DoubleValue
-4.212

@<SCITEGIC>MOL_PROPERTY
VdW12
SciTegic.value.DoubleValue
4.436

@<SCITEGIC>MOL_PROPERTY
Bond
SciTegic.value.DoubleValue
0.044

@<SCITEGIC>MOL_PROPERTY
Angle
SciTegic.value.DoubleValue
2.230

@<SCITEGIC>MOL_PROPERTY
Pdih
SciTegic.value.DoubleValue
12.956

@<SCITEGIC>MOL_PROPERTY
Idih
SciTegic.value.DoubleValue
0.000

@<SCITEGIC>MOL_PROPERTY
Tether
SciTegic.value.DoubleValue
0.000

@<TRIPOS>MOLECULE
guest-s20_confgen4.mol2 : confsearch ligand conformer 650
          17          16           1
SMALL
USER_CHARGES
 
@<TRIPOS>ATOM
       1    C1      19.488508   20.784506   20.045798 C.2        1 MOL1         0.6132
       2    O1      19.793954   20.020797   19.151123 O.co2      1 MOL1        -0.6749
       3    O2      19.907263   21.922378   20.129307 O.co2      1 MOL1        -0.6749
       4    C2      18.504888   20.298116   21.105748 C.3        1 MOL1        -0.1955
       5    H1      17.817280   19.591011   20.627245 H          1 MOL1         0.0733
       6    H2      17.892010   21.153595   21.412760 H          1 MOL1         0.0733
       7    C3      19.129188   19.650789   22.333793 C.2        1 MOL1        -0.1395
       8    H3      18.409560   19.311013   23.077589 H          1 MOL1         0.0816
       9    C4      20.438080   19.476563   22.551605 C.2        1 MOL1        -0.1394
      10    H4      21.178512   19.806245   21.823729 H          1 MOL1         0.0816
      11    C5      21.008187   18.826907   23.792922 C.3        1 MOL1        -0.1826
      12    H5      21.821604   19.446087   24.194777 H          1 MOL1         0.0736
      13    H6      20.243710   18.761881   24.579370 H          1 MOL1         0.0736
      14    C6      21.542415   17.414928   23.483162 C.3        1 MOL1        -0.2882
      15    H7      21.956063   16.948916   24.386925 H          1 MOL1         0.0749
      16    H8      20.739694   16.769135   23.103445 H          1 MOL1         0.0749
      17    H9      22.336490   17.454208   22.725956 H          1 MOL1         0.0749
@<TRIPOS>BOND
    1     1     2    1
    2     1     3    2
    3     1     4    1
    4     4     5    1
    5     4     6    1
    6     4     7    1
    7     7     8    1
    8     7     9    2
    9     9    10    1
   10     9    11    1
   11    11    12    1
   12    11    13    1
   13    11    14    1
   14    14    15    1
   15    14    16    1
   16    14    17    1
@<TRIPOS>SUBSTRUCTURE
       1 MOL1            1 RESIDUE      1      MOL     
@<SCITEGIC>MOL_PROPERTY
VConf Rank
SciTegic.value.IntegerValue
650

@<SCITEGIC>MOL_PROPERTY
Conf_Id
SciTegic.value.IntegerValue
39

@<SCITEGIC>MOL_PROPERTY
Delta U+W
SciTegic.value.DoubleValue
-0.422

@<SCITEGIC>MOL_PROPERTY
U+W
SciTegic.value.DoubleValue
-49.849

@<SCITEGIC>MOL_PROPERTY
Grad RMS
SciTegic.value.DoubleValue
0.000000

@<SCITEGIC>MOL_PROPERTY
U
SciTegic.value.DoubleValue
14.465

@<SCITEGIC>MOL_PROPERTY
W
SciTegic.value.DoubleValue
-64.314

@<SCITEGIC>MOL_PROPERTY
W(PB)
SciTegic.value.DoubleValue
-66.406

@<SCITEGIC>MOL_PROPERTY
W(SA)
SciTegic.value.DoubleValue
2.093

@<SCITEGIC>MOL_PROPERTY
Valence
SciTegic.value.DoubleValue
14.072

@<SCITEGIC>MOL_PROPERTY
Coulomb
SciTegic.value.DoubleValue
-0.199

@<SCITEGIC>MOL_PROPERTY
VdW
SciTegic.value.DoubleValue
0.592

@<SCITEGIC>MOL_PROPERTY
VdW6
SciTegic.value.DoubleValue
-5.019

@<SCITEGIC>MOL_PROPERTY
VdW12
SciTegic.value.DoubleValue
5.611

@<SCITEGIC>MOL_PROPERTY
Bond
SciTegic.value.DoubleValue
0.085

@<SCITEGIC>MOL_PROPERTY
Angle
SciTegic.value.DoubleValue
2.748

@<SCITEGIC>MOL_PROPERTY
Pdih
SciTegic.value.DoubleValue
11.238

@<SCITEGIC>MOL_PROPERTY
Idih
SciTegic.value.DoubleValue
0.001

@<SCITEGIC>MOL_PROPERTY
Tether
SciTegic.value.DoubleValue
0.000

@<TRIPOS>MOLECULE
guest-s20_confgen4.mol2 : confsearch ligand conformer 651
          17          16           1
SMALL
USER_CHARGES
 
@<TRIPOS>ATOM
       1    C1      17.676340   21.244727   22.567111 C.2        1 MOL1         0.6132
       2    O1      16.680854   20.768477   23.076182 O.co2      1 MOL1        -0.6749
       3    O2      17.646100   22.057190   21.663891 O.co2      1 MOL1        -0.6749
       4    C2      19.034587   20.801907   23.095015 C.3        1 MOL1        -0.1955
       5    H1      18.965407   20.739740   24.187195 H          1 MOL1         0.0733
       6    H2      19.764943   21.586678   22.864028 H          1 MOL1         0.0733
       7    C3      19.472472   19.466607   22.524072 C.2        1 MOL1        -0.1395
       8    H3      18.883137   18.608025   22.844578 H          1 MOL1         0.0816
       9    C4      20.499599   19.309647   21.683477 C.2        1 MOL1        -0.1394
      10    H4      21.086628   20.169009   21.361056 H          1 MOL1         0.0816
      11    C5      20.932439   17.977870   21.112215 C.3        1 MOL1        -0.1826
      12    H5      20.153335   17.219726   21.271698 H          1 MOL1         0.0736
      13    H6      21.067879   18.066938   20.025819 H          1 MOL1         0.0736
      14    C6      22.248394   17.500218   21.756554 C.3        1 MOL1        -0.2882
      15    H7      22.129811   17.379023   22.841381 H          1 MOL1         0.0749
      16    H8      22.557717   16.533831   21.337625 H          1 MOL1         0.0749
      17    H9      23.056070   18.222496   21.579344 H          1 MOL1         0.0749
@<TRIPOS>BOND
    1     1     2    1
    2     1     3    2
    3     1     4    1
    4     4     5    1
    5     4     6    1
    6     4     7    1
    7     7     8    1
    8     7     9    2
    9     9    10    1
   10     9    11    1
   11    11    12    1
   12    11    13    1
   13    11    14    1
   14    14    15    1
   15    14    16    1
   16    14    17    1
@<TRIPOS>SUBSTRUCTURE
       1 MOL1            1 RESIDUE      1      MOL     
@<SCITEGIC>MOL_PROPERTY
VConf Rank
SciTegic.value.IntegerValue
651

@<SCITEGIC>MOL_PROPERTY
Conf_Id
SciTegic.value.IntegerValue
38

@<SCITEGIC>MOL_PROPERTY
Delta U+W
SciTegic.value.DoubleValue
0.000

@<SCITEGIC>MOL_PROPERTY
U+W
SciTegic.value.DoubleValue
-49.427

@<SCITEGIC>MOL_PROPERTY
Grad RMS
SciTegic.value.DoubleValue
0.000000

@<SCITEGIC>MOL_PROPERTY
U
SciTegic.value.DoubleValue
13.666

@<SCITEGIC>MOL_PROPERTY
W
SciTegic.value.DoubleValue
-63.093

@<SCITEGIC>MOL_PROPERTY
W(PB)
SciTegic.value.DoubleValue
-65.225

@<SCITEGIC>MOL_PROPERTY
W(SA)
SciTegic.value.DoubleValue
2.132

@<SCITEGIC>MOL_PROPERTY
Valence
SciTegic.value.DoubleValue
15.226

@<SCITEGIC>MOL_PROPERTY
Coulomb
SciTegic.value.DoubleValue
-1.822

@<SCITEGIC>MOL_PROPERTY
VdW
SciTegic.value.DoubleValue
0.261

@<SCITEGIC>MOL_PROPERTY
VdW6
SciTegic.value.DoubleValue
-4.165

@<SCITEGIC>MOL_PROPERTY
VdW12
SciTegic.value.DoubleValue
4.426

@<SCITEGIC>MOL_PROPERTY
Bond
SciTegic.value.DoubleValue
0.044

@<SCITEGIC>MOL_PROPERTY
Angle
SciTegic.value.DoubleValue
2.229

@<SCITEGIC>MOL_PROPERTY
Pdih
SciTegic.value.DoubleValue
12.953

@<SCITEGIC>MOL_PROPERTY
Idih
SciTegic.value.DoubleValue
0.000

@<SCITEGIC>MOL_PROPERTY
Tether
SciTegic.value.DoubleValue
0.000

@<TRIPOS>MOLECULE
guest-s20_confgen4.mol2 : confsearch ligand conformer 652
          17          16           1
SMALL
USER_CHARGES
 
@<TRIPOS>ATOM
       1    C1      22.258488   16.967367   22.177153 C.2        1 MOL1         0.6132
       2    O1      22.359749   16.551711   23.314604 O.co2      1 MOL1        -0.6749
       3    O2      23.200736   17.086755   21.418947 O.co2      1 MOL1        -0.6749
       4    C2      20.875606   17.355236   21.670401 C.3        1 MOL1        -0.1955
       5    H1      20.128580   16.814754   22.264095 H          1 MOL1         0.0733
       6    H2      20.784658   16.997655   20.638233 H          1 MOL1         0.0733
       7    C3      20.635202   18.851846   21.726162 C.2        1 MOL1        -0.1395
       8    H3      21.235495   19.445280   21.037188 H          1 MOL1         0.0816
       9    C4      19.761877   19.442192   22.547760 C.2        1 MOL1        -0.1394
      10    H4      19.164230   18.848466   23.238679 H          1 MOL1         0.0816
      11    C5      19.526345   20.935040   22.604758 C.3        1 MOL1        -0.1826
      12    H5      19.549717   21.274388   23.649186 H          1 MOL1         0.0736
      13    H6      20.329712   21.471217   22.080986 H          1 MOL1         0.0736
      14    C6      18.169987   21.306213   21.974216 C.3        1 MOL1        -0.2882
      15    H7      17.343968   20.813272   22.503489 H          1 MOL1         0.0749
      16    H8      18.004399   22.390486   22.019138 H          1 MOL1         0.0749
      17    H9      18.132775   20.999228   20.920662 H          1 MOL1         0.0749
@<TRIPOS>BOND
    1     1     2    1
    2     1     3    2
    3     1     4    1
    4     4     5    1
    5     4     6    1
    6     4     7    1
    7     7     8    1
    8     7     9    2
    9     9    10    1
   10     9    11    1
   11    11    12    1
   12    11    13    1
   13    11    14    1
   14    14    15    1
   15    14    16    1
   16    14    17    1
@<TRIPOS>SUBSTRUCTURE
       1 MOL1            1 RESIDUE      1      MOL     
@<SCITEGIC>MOL_PROPERTY
VConf Rank
SciTegic.value.IntegerValue
652

@<SCITEGIC>MOL_PROPERTY
Conf_Id
SciTegic.value.IntegerValue
35

@<SCITEGIC>MOL_PROPERTY
Delta U+W
SciTegic.value.DoubleValue
-0.102

@<SCITEGIC>MOL_PROPERTY
U+W
SciTegic.value.DoubleValue
-49.529

@<SCITEGIC>MOL_PROPERTY
Grad RMS
SciTegic.value.DoubleValue
0.000000

@<SCITEGIC>MOL_PROPERTY
U
SciTegic.value.DoubleValue
13.666

@<SCITEGIC>MOL_PROPERTY
W
SciTegic.value.DoubleValue
-63.195

@<SCITEGIC>MOL_PROPERTY
W(PB)
SciTegic.value.DoubleValue
-65.299

@<SCITEGIC>MOL_PROPERTY
W(SA)
SciTegic.value.DoubleValue
2.103

@<SCITEGIC>MOL_PROPERTY
Valence
SciTegic.value.DoubleValue
15.226

@<SCITEGIC>MOL_PROPERTY
Coulomb
SciTegic.value.DoubleValue
-1.822

@<SCITEGIC>MOL_PROPERTY
VdW
SciTegic.value.DoubleValue
0.261

@<SCITEGIC>MOL_PROPERTY
VdW6
SciTegic.value.DoubleValue
-4.165

@<SCITEGIC>MOL_PROPERTY
VdW12
SciTegic.value.DoubleValue
4.426

@<SCITEGIC>MOL_PROPERTY
Bond
SciTegic.value.DoubleValue
0.044

@<SCITEGIC>MOL_PROPERTY
Angle
SciTegic.value.DoubleValue
2.229

@<SCITEGIC>MOL_PROPERTY
Pdih
SciTegic.value.DoubleValue
12.953

@<SCITEGIC>MOL_PROPERTY
Idih
SciTegic.value.DoubleValue
0.000

@<SCITEGIC>MOL_PROPERTY
Tether
SciTegic.value.DoubleValue
0.000

@<TRIPOS>MOLECULE
guest-s20_confgen4.mol2 : confsearch ligand conformer 653
          17          16           1
SMALL
USER_CHARGES
 
@<TRIPOS>ATOM
       1    C1      22.038676   16.774627   22.279174 C.2        1 MOL1         0.6132
       2    O1      22.524258   16.665804   23.387929 O.co2      1 MOL1        -0.6749
       3    O2      21.587680   15.838976   21.648294 O.co2      1 MOL1        -0.6749
       4    C2      22.002985   18.158291   21.643647 C.3        1 MOL1        -0.1955
       5    H1      21.956666   18.034545   20.555012 H          1 MOL1         0.0733
       6    H2      22.953685   18.654973   21.869448 H          1 MOL1         0.0733
       7    C3      20.844404   18.998473   22.146828 C.2        1 MOL1        -0.1395
       8    H3      20.915664   19.290359   23.193162 H          1 MOL1         0.0816
       9    C4      19.801529   19.362508   21.390123 C.2        1 MOL1        -0.1394
      10    H4      19.762633   19.047702   20.347785 H          1 MOL1         0.0816
      11    C5      18.609563   20.196654   21.828309 C.3        1 MOL1        -0.1826
      12    H5      18.537746   21.082733   21.183164 H          1 MOL1         0.0736
      13    H6      17.689083   19.625046   21.648029 H          1 MOL1         0.0736
      14    C6      18.638475   20.650241   23.304605 C.3        1 MOL1        -0.2882
      15    H7      19.520290   21.271657   23.508683 H          1 MOL1         0.0749
      16    H8      17.746493   21.244323   23.542225 H          1 MOL1         0.0749
      17    H9      18.657033   19.786209   23.981802 H          1 MOL1         0.0749
@<TRIPOS>BOND
    1     1     2    1
    2     1     3    2
    3     1     4    1
    4     4     5    1
    5     4     6    1
    6     4     7    1
    7     7     8    1
    8     7     9    2
    9     9    10    1
   10     9    11    1
   11    11    12    1
   12    11    13    1
   13    11    14    1
   14    14    15    1
   15    14    16    1
   16    14    17    1
@<TRIPOS>SUBSTRUCTURE
       1 MOL1            1 RESIDUE      1      MOL     
@<SCITEGIC>MOL_PROPERTY
VConf Rank
SciTegic.value.IntegerValue
653

@<SCITEGIC>MOL_PROPERTY
Conf_Id
SciTegic.value.IntegerValue
19

@<SCITEGIC>MOL_PROPERTY
Delta U+W
SciTegic.value.DoubleValue
-0.496

@<SCITEGIC>MOL_PROPERTY
U+W
SciTegic.value.DoubleValue
-49.923

@<SCITEGIC>MOL_PROPERTY
Grad RMS
SciTegic.value.DoubleValue
0.000000

@<SCITEGIC>MOL_PROPERTY
U
SciTegic.value.DoubleValue
13.863

@<SCITEGIC>MOL_PROPERTY
W
SciTegic.value.DoubleValue
-63.786

@<SCITEGIC>MOL_PROPERTY
W(PB)
SciTegic.value.DoubleValue
-65.856

@<SCITEGIC>MOL_PROPERTY
W(SA)
SciTegic.value.DoubleValue
2.070

@<SCITEGIC>MOL_PROPERTY
Valence
SciTegic.value.DoubleValue
14.117

@<SCITEGIC>MOL_PROPERTY
Coulomb
SciTegic.value.DoubleValue
-1.228

@<SCITEGIC>MOL_PROPERTY
VdW
SciTegic.value.DoubleValue
0.974

@<SCITEGIC>MOL_PROPERTY
VdW6
SciTegic.value.DoubleValue
-4.885

@<SCITEGIC>MOL_PROPERTY
VdW12
SciTegic.value.DoubleValue
5.859

@<SCITEGIC>MOL_PROPERTY
Bond
SciTegic.value.DoubleValue
0.094

@<SCITEGIC>MOL_PROPERTY
Angle
SciTegic.value.DoubleValue
2.818

@<SCITEGIC>MOL_PROPERTY
Pdih
SciTegic.value.DoubleValue
11.205

@<SCITEGIC>MOL_PROPERTY
Idih
SciTegic.value.DoubleValue
0.000

@<SCITEGIC>MOL_PROPERTY
Tether
SciTegic.value.DoubleValue
0.000

@<TRIPOS>MOLECULE
guest-s20_confgen4.mol2 : confsearch ligand conformer 654
          17          16           1
SMALL
USER_CHARGES
 
@<TRIPOS>ATOM
       1    C1      20.252782   20.607218   24.707932 C.2        1 MOL1         0.6132
       2    O1      19.738253   21.658637   24.381449 O.co2      1 MOL1        -0.6749
       3    O2      19.968949   20.007865   25.726371 O.co2      1 MOL1        -0.6749
       4    C2      21.319353   20.011703   23.798199 C.3        1 MOL1        -0.1955
       5    H1      22.127276   19.631610   24.434025 H          1 MOL1         0.0733
       6    H2      21.742685   20.820490   23.190493 H          1 MOL1         0.0733
       7    C3      20.779063   18.898324   22.921136 C.2        1 MOL1        -0.1395
       8    H3      20.481645   17.992968   23.449424 H          1 MOL1         0.0816
       9    C4      20.652300   18.982412   21.593327 C.2        1 MOL1        -0.1394
      10    H4      20.945046   19.889862   21.066171 H          1 MOL1         0.0816
      11    C5      20.110569   17.872094   20.720941 C.3        1 MOL1        -0.1826
      12    H5      20.778835   17.714322   19.863590 H          1 MOL1         0.0736
      13    H6      20.082366   16.925087   21.277349 H          1 MOL1         0.0736
      14    C6      18.694524   18.207722   20.213830 C.3        1 MOL1        -0.2882
      15    H7      18.699769   19.131302   19.620199 H          1 MOL1         0.0749
      16    H8      18.306098   17.398602   19.581756 H          1 MOL1         0.0749
      17    H9      18.002063   18.345790   21.054732 H          1 MOL1         0.0749
@<TRIPOS>BOND
    1     1     2    1
    2     1     3    2
    3     1     4    1
    4     4     5    1
    5     4     6    1
    6     4     7    1
    7     7     8    1
    8     7     9    2
    9     9    10    1
   10     9    11    1
   11    11    12    1
   12    11    13    1
   13    11    14    1
   14    14    15    1
   15    14    16    1
   16    14    17    1
@<TRIPOS>SUBSTRUCTURE
       1 MOL1            1 RESIDUE      1      MOL     
@<SCITEGIC>MOL_PROPERTY
VConf Rank
SciTegic.value.IntegerValue
654

@<SCITEGIC>MOL_PROPERTY
Conf_Id
SciTegic.value.IntegerValue
7

@<SCITEGIC>MOL_PROPERTY
Delta U+W
SciTegic.value.DoubleValue
-0.041

@<SCITEGIC>MOL_PROPERTY
U+W
SciTegic.value.DoubleValue
-49.468

@<SCITEGIC>MOL_PROPERTY
Grad RMS
SciTegic.value.DoubleValue
0.000000

@<SCITEGIC>MOL_PROPERTY
U
SciTegic.value.DoubleValue
14.121

@<SCITEGIC>MOL_PROPERTY
W
SciTegic.value.DoubleValue
-63.589

@<SCITEGIC>MOL_PROPERTY
W(PB)
SciTegic.value.DoubleValue
-65.660

@<SCITEGIC>MOL_PROPERTY
W(SA)
SciTegic.value.DoubleValue
2.071

@<SCITEGIC>MOL_PROPERTY
Valence
SciTegic.value.DoubleValue
15.230

@<SCITEGIC>MOL_PROPERTY
Coulomb
SciTegic.value.DoubleValue
-1.333

@<SCITEGIC>MOL_PROPERTY
VdW
SciTegic.value.DoubleValue
0.224

@<SCITEGIC>MOL_PROPERTY
VdW6
SciTegic.value.DoubleValue
-4.212

@<SCITEGIC>MOL_PROPERTY
VdW12
SciTegic.value.DoubleValue
4.436

@<SCITEGIC>MOL_PROPERTY
Bond
SciTegic.value.DoubleValue
0.044

@<SCITEGIC>MOL_PROPERTY
Angle
SciTegic.value.DoubleValue
2.230

@<SCITEGIC>MOL_PROPERTY
Pdih
SciTegic.value.DoubleValue
12.956

@<SCITEGIC>MOL_PROPERTY
Idih
SciTegic.value.DoubleValue
0.000

@<SCITEGIC>MOL_PROPERTY
Tether
SciTegic.value.DoubleValue
0.000

@<TRIPOS>MOLECULE
guest-s20_confgen4.mol2 : confsearch ligand conformer 655
          17          16           1
SMALL
USER_CHARGES
 
@<TRIPOS>ATOM
       1    C1      21.087110   16.771254   21.593222 C.2        1 MOL1         0.6132
       2    O1      21.517346   16.393234   22.665132 O.co2      1 MOL1        -0.6749
       3    O2      21.748840   16.792504   20.574035 O.co2      1 MOL1        -0.6749
       4    C2      19.629986   17.216814   21.516763 C.3        1 MOL1        -0.1955
       5    H1      19.059852   16.628895   22.245506 H          1 MOL1         0.0733
       6    H2      19.243217   16.932318   20.531272 H          1 MOL1         0.0733
       7    C3      19.383186   18.700102   21.753028 C.2        1 MOL1        -0.1395
       8    H3      18.336705   18.996613   21.693831 H          1 MOL1         0.0816
       9    C4      20.317739   19.620677   22.017883 C.2        1 MOL1        -0.1394
      10    H4      21.371067   19.350624   22.083494 H          1 MOL1         0.0816
      11    C5      20.019021   21.086163   22.243846 C.3        1 MOL1        -0.1826
      12    H5      20.701944   21.700559   21.641639 H          1 MOL1         0.0736
      13    H6      19.000539   21.327633   21.909869 H          1 MOL1         0.0736
      14    C6      20.169541   21.458828   23.731630 C.3        1 MOL1        -0.2882
      15    H7      19.953024   22.523371   23.889518 H          1 MOL1         0.0749
      16    H8      19.477083   20.874433   24.351775 H          1 MOL1         0.0749
      17    H9      21.191206   21.263050   24.082814 H          1 MOL1         0.0749
@<TRIPOS>BOND
    1     1     2    1
    2     1     3    2
    3     1     4    1
    4     4     5    1
    5     4     6    1
    6     4     7    1
    7     7     8    1
    8     7     9    2
    9     9    10    1
   10     9    11    1
   11    11    12    1
   12    11    13    1
   13    11    14    1
   14    14    15    1
   15    14    16    1
   16    14    17    1
@<TRIPOS>SUBSTRUCTURE
       1 MOL1            1 RESIDUE      1      MOL     
@<SCITEGIC>MOL_PROPERTY
VConf Rank
SciTegic.value.IntegerValue
655

@<SCITEGIC>MOL_PROPERTY
Conf_Id
SciTegic.value.IntegerValue
39

@<SCITEGIC>MOL_PROPERTY
Delta U+W
SciTegic.value.DoubleValue
-0.422

@<SCITEGIC>MOL_PROPERTY
U+W
SciTegic.value.DoubleValue
-49.849

@<SCITEGIC>MOL_PROPERTY
Grad RMS
SciTegic.value.DoubleValue
0.000000

@<SCITEGIC>MOL_PROPERTY
U
SciTegic.value.DoubleValue
14.465

@<SCITEGIC>MOL_PROPERTY
W
SciTegic.value.DoubleValue
-64.314

@<SCITEGIC>MOL_PROPERTY
W(PB)
SciTegic.value.DoubleValue
-66.406

@<SCITEGIC>MOL_PROPERTY
W(SA)
SciTegic.value.DoubleValue
2.093

@<SCITEGIC>MOL_PROPERTY
Valence
SciTegic.value.DoubleValue
14.072

@<SCITEGIC>MOL_PROPERTY
Coulomb
SciTegic.value.DoubleValue
-0.199

@<SCITEGIC>MOL_PROPERTY
VdW
SciTegic.value.DoubleValue
0.592

@<SCITEGIC>MOL_PROPERTY
VdW6
SciTegic.value.DoubleValue
-5.019

@<SCITEGIC>MOL_PROPERTY
VdW12
SciTegic.value.DoubleValue
5.611

@<SCITEGIC>MOL_PROPERTY
Bond
SciTegic.value.DoubleValue
0.085

@<SCITEGIC>MOL_PROPERTY
Angle
SciTegic.value.DoubleValue
2.748

@<SCITEGIC>MOL_PROPERTY
Pdih
SciTegic.value.DoubleValue
11.238

@<SCITEGIC>MOL_PROPERTY
Idih
SciTegic.value.DoubleValue
0.001

@<SCITEGIC>MOL_PROPERTY
Tether
SciTegic.value.DoubleValue
0.000

@<TRIPOS>MOLECULE
guest-s20_confgen4.mol2 : confsearch ligand conformer 656
          17          16           1
SMALL
USER_CHARGES
 
@<TRIPOS>ATOM
       1    C1      18.959417   20.260301   19.326597 C.2        1 MOL1         0.6132
       2    O1      17.786226   20.027630   19.111080 O.co2      1 MOL1        -0.6749
       3    O2      19.828591   20.169732   18.482114 O.co2      1 MOL1        -0.6749
       4    C2      19.359127   20.694069   20.730762 C.3        1 MOL1        -0.1955
       5    H1      18.595960   21.390971   21.096020 H          1 MOL1         0.0733
       6    H2      20.299054   21.254840   20.662117 H          1 MOL1         0.0733
       7    C3      19.493560   19.522289   21.684494 C.2        1 MOL1        -0.1395
       8    H3      18.562276   19.011990   21.928431 H          1 MOL1         0.0816
       9    C4      20.651514   19.109977   22.209251 C.2        1 MOL1        -0.1394
      10    H4      21.582777   19.618854   21.962564 H          1 MOL1         0.0816
      11    C5      20.784153   17.938981   23.157141 C.3        1 MOL1        -0.1826
      12    H5      19.867397   17.333393   23.150602 H          1 MOL1         0.0736
      13    H6      21.598378   17.281851   22.822846 H          1 MOL1         0.0736
      14    C6      21.068200   18.418812   24.593852 C.3        1 MOL1        -0.2882
      15    H7      20.253713   19.057878   24.959648 H          1 MOL1         0.0749
      16    H8      21.164059   17.564767   25.276862 H          1 MOL1         0.0749
      17    H9      22.001310   18.995775   24.636862 H          1 MOL1         0.0749
@<TRIPOS>BOND
    1     1     2    1
    2     1     3    2
    3     1     4    1
    4     4     5    1
    5     4     6    1
    6     4     7    1
    7     7     8    1
    8     7     9    2
    9     9    10    1
   10     9    11    1
   11    11    12    1
   12    11    13    1
   13    11    14    1
   14    14    15    1
   15    14    16    1
   16    14    17    1
@<TRIPOS>SUBSTRUCTURE
       1 MOL1            1 RESIDUE      1      MOL     
@<SCITEGIC>MOL_PROPERTY
VConf Rank
SciTegic.value.IntegerValue
656

@<SCITEGIC>MOL_PROPERTY
Conf_Id
SciTegic.value.IntegerValue
38

@<SCITEGIC>MOL_PROPERTY
Delta U+W
SciTegic.value.DoubleValue
0.000

@<SCITEGIC>MOL_PROPERTY
U+W
SciTegic.value.DoubleValue
-49.427

@<SCITEGIC>MOL_PROPERTY
Grad RMS
SciTegic.value.DoubleValue
0.000000

@<SCITEGIC>MOL_PROPERTY
U
SciTegic.value.DoubleValue
13.666

@<SCITEGIC>MOL_PROPERTY
W
SciTegic.value.DoubleValue
-63.093

@<SCITEGIC>MOL_PROPERTY
W(PB)
SciTegic.value.DoubleValue
-65.225

@<SCITEGIC>MOL_PROPERTY
W(SA)
SciTegic.value.DoubleValue
2.132

@<SCITEGIC>MOL_PROPERTY
Valence
SciTegic.value.DoubleValue
15.226

@<SCITEGIC>MOL_PROPERTY
Coulomb
SciTegic.value.DoubleValue
-1.822

@<SCITEGIC>MOL_PROPERTY
VdW
SciTegic.value.DoubleValue
0.261

@<SCITEGIC>MOL_PROPERTY
VdW6
SciTegic.value.DoubleValue
-4.165

@<SCITEGIC>MOL_PROPERTY
VdW12
SciTegic.value.DoubleValue
4.426

@<SCITEGIC>MOL_PROPERTY
Bond
SciTegic.value.DoubleValue
0.044

@<SCITEGIC>MOL_PROPERTY
Angle
SciTegic.value.DoubleValue
2.229

@<SCITEGIC>MOL_PROPERTY
Pdih
SciTegic.value.DoubleValue
12.953

@<SCITEGIC>MOL_PROPERTY
Idih
SciTegic.value.DoubleValue
0.000

@<SCITEGIC>MOL_PROPERTY
Tether
SciTegic.value.DoubleValue
0.000

@<TRIPOS>MOLECULE
guest-s20_confgen4.mol2 : confsearch ligand conformer 657
          17          16           1
SMALL
USER_CHARGES
 
@<TRIPOS>ATOM
       1    C1      21.110824   18.563194   25.015356 C.2        1 MOL1         0.6132
       2    O1      20.377371   19.084471   25.832140 O.co2      1 MOL1        -0.6749
       3    O2      22.313708   18.465170   25.158262 O.co2      1 MOL1        -0.6749
       4    C2      20.490194   17.996382   23.745259 C.3        1 MOL1        -0.1955
       5    H1      19.435160   17.776024   23.947708 H          1 MOL1         0.0733
       6    H2      20.981753   17.040600   23.529955 H          1 MOL1         0.0733
       7    C3      20.632326   18.933500   22.561049 C.2        1 MOL1        -0.1395
       8    H3      21.650223   19.073767   22.198541 H          1 MOL1         0.0816
       9    C4      19.609921   19.564563   21.975665 C.2        1 MOL1        -0.1394
      10    H4      18.592710   19.426328   22.340678 H          1 MOL1         0.0816
      11    C5      19.754013   20.501737   20.797419 C.3        1 MOL1        -0.1826
      12    H5      19.200175   21.430082   20.992282 H          1 MOL1         0.0736
      13    H6      20.806308   20.785634   20.658509 H          1 MOL1         0.0736
      14    C6      19.226421   19.850606   19.504076 C.3        1 MOL1        -0.2882
      15    H7      18.164114   19.590884   19.601417 H          1 MOL1         0.0749
      16    H8      19.332956   20.535555   18.652853 H          1 MOL1         0.0749
      17    H9      19.783350   18.932607   19.274491 H          1 MOL1         0.0749
@<TRIPOS>BOND
    1     1     2    1
    2     1     3    2
    3     1     4    1
    4     4     5    1
    5     4     6    1
    6     4     7    1
    7     7     8    1
    8     7     9    2
    9     9    10    1
   10     9    11    1
   11    11    12    1
   12    11    13    1
   13    11    14    1
   14    14    15    1
   15    14    16    1
   16    14    17    1
@<TRIPOS>SUBSTRUCTURE
       1 MOL1            1 RESIDUE      1      MOL     
@<SCITEGIC>MOL_PROPERTY
VConf Rank
SciTegic.value.IntegerValue
657

@<SCITEGIC>MOL_PROPERTY
Conf_Id
SciTegic.value.IntegerValue
35

@<SCITEGIC>MOL_PROPERTY
Delta U+W
SciTegic.value.DoubleValue
-0.102

@<SCITEGIC>MOL_PROPERTY
U+W
SciTegic.value.DoubleValue
-49.529

@<SCITEGIC>MOL_PROPERTY
Grad RMS
SciTegic.value.DoubleValue
0.000000

@<SCITEGIC>MOL_PROPERTY
U
SciTegic.value.DoubleValue
13.666

@<SCITEGIC>MOL_PROPERTY
W
SciTegic.value.DoubleValue
-63.195

@<SCITEGIC>MOL_PROPERTY
W(PB)
SciTegic.value.DoubleValue
-65.299

@<SCITEGIC>MOL_PROPERTY
W(SA)
SciTegic.value.DoubleValue
2.103

@<SCITEGIC>MOL_PROPERTY
Valence
SciTegic.value.DoubleValue
15.226

@<SCITEGIC>MOL_PROPERTY
Coulomb
SciTegic.value.DoubleValue
-1.822

@<SCITEGIC>MOL_PROPERTY
VdW
SciTegic.value.DoubleValue
0.261

@<SCITEGIC>MOL_PROPERTY
VdW6
SciTegic.value.DoubleValue
-4.165

@<SCITEGIC>MOL_PROPERTY
VdW12
SciTegic.value.DoubleValue
4.426

@<SCITEGIC>MOL_PROPERTY
Bond
SciTegic.value.DoubleValue
0.044

@<SCITEGIC>MOL_PROPERTY
Angle
SciTegic.value.DoubleValue
2.229

@<SCITEGIC>MOL_PROPERTY
Pdih
SciTegic.value.DoubleValue
12.953

@<SCITEGIC>MOL_PROPERTY
Idih
SciTegic.value.DoubleValue
0.000

@<SCITEGIC>MOL_PROPERTY
Tether
SciTegic.value.DoubleValue
0.000

@<TRIPOS>MOLECULE
guest-s20_confgen4.mol2 : confsearch ligand conformer 658
          17          16           1
SMALL
USER_CHARGES
 
@<TRIPOS>ATOM
       1    C1      22.715596   17.550811   21.895388 C.2        1 MOL1         0.6132
       2    O1      22.517364   16.586124   21.183310 O.co2      1 MOL1        -0.6749
       3    O2      23.680292   18.281417   21.783923 O.co2      1 MOL1        -0.6749
       4    C2      21.703582   17.853308   22.992665 C.3        1 MOL1        -0.1955
       5    H1      22.208681   18.432798   23.774747 H          1 MOL1         0.0733
       6    H2      21.403635   16.900212   23.443386 H          1 MOL1         0.0733
       7    C3      20.483843   18.588918   22.470630 C.2        1 MOL1        -0.1395
       8    H3      19.849821   18.003531   21.806983 H          1 MOL1         0.0816
       9    C4      20.187868   19.857759   22.779102 C.2        1 MOL1        -0.1394
      10    H4      20.848748   20.413701   23.443368 H          1 MOL1         0.0816
      11    C5      18.989688   20.654569   22.291198 C.3        1 MOL1        -0.1826
      12    H5      18.418485   21.008040   23.160273 H          1 MOL1         0.0736
      13    H6      19.347123   21.561207   21.784476 H          1 MOL1         0.0736
      14    C6      18.040435   19.889718   21.342542 C.3        1 MOL1        -0.2882
      15    H7      17.620176   19.003536   21.835965 H          1 MOL1         0.0749
      16    H8      17.204428   20.531304   21.035149 H          1 MOL1         0.0749
      17    H9      18.567100   19.566168   20.435112 H          1 MOL1         0.0749
@<TRIPOS>BOND
    1     1     2    1
    2     1     3    2
    3     1     4    1
    4     4     5    1
    5     4     6    1
    6     4     7    1
    7     7     8    1
    8     7     9    2
    9     9    10    1
   10     9    11    1
   11    11    12    1
   12    11    13    1
   13    11    14    1
   14    14    15    1
   15    14    16    1
   16    14    17    1
@<TRIPOS>SUBSTRUCTURE
       1 MOL1            1 RESIDUE      1      MOL     
@<SCITEGIC>MOL_PROPERTY
VConf Rank
SciTegic.value.IntegerValue
658

@<SCITEGIC>MOL_PROPERTY
Conf_Id
SciTegic.value.IntegerValue
19

@<SCITEGIC>MOL_PROPERTY
Delta U+W
SciTegic.value.DoubleValue
-0.496

@<SCITEGIC>MOL_PROPERTY
U+W
SciTegic.value.DoubleValue
-49.923

@<SCITEGIC>MOL_PROPERTY
Grad RMS
SciTegic.value.DoubleValue
0.000000

@<SCITEGIC>MOL_PROPERTY
U
SciTegic.value.DoubleValue
13.863

@<SCITEGIC>MOL_PROPERTY
W
SciTegic.value.DoubleValue
-63.786

@<SCITEGIC>MOL_PROPERTY
W(PB)
SciTegic.value.DoubleValue
-65.856

@<SCITEGIC>MOL_PROPERTY
W(SA)
SciTegic.value.DoubleValue
2.070

@<SCITEGIC>MOL_PROPERTY
Valence
SciTegic.value.DoubleValue
14.117

@<SCITEGIC>MOL_PROPERTY
Coulomb
SciTegic.value.DoubleValue
-1.228

@<SCITEGIC>MOL_PROPERTY
VdW
SciTegic.value.DoubleValue
0.974

@<SCITEGIC>MOL_PROPERTY
VdW6
SciTegic.value.DoubleValue
-4.885

@<SCITEGIC>MOL_PROPERTY
VdW12
SciTegic.value.DoubleValue
5.859

@<SCITEGIC>MOL_PROPERTY
Bond
SciTegic.value.DoubleValue
0.094

@<SCITEGIC>MOL_PROPERTY
Angle
SciTegic.value.DoubleValue
2.818

@<SCITEGIC>MOL_PROPERTY
Pdih
SciTegic.value.DoubleValue
11.205

@<SCITEGIC>MOL_PROPERTY
Idih
SciTegic.value.DoubleValue
0.000

@<SCITEGIC>MOL_PROPERTY
Tether
SciTegic.value.DoubleValue
0.000

@<TRIPOS>MOLECULE
guest-s20_confgen4.mol2 : confsearch ligand conformer 659
          17          16           1
SMALL
USER_CHARGES
 
@<TRIPOS>ATOM
       1    C1      19.759690   21.972958   22.167724 C.2        1 MOL1         0.6132
       2    O1      20.334942   22.296914   21.147454 O.co2      1 MOL1        -0.6749
       3    O2      18.652902   22.372936   22.471104 O.co2      1 MOL1        -0.6749
       4    C2      20.466748   21.022463   23.125042 C.3        1 MOL1        -0.1955
       5    H1      20.293511   21.384682   24.144978 H          1 MOL1         0.0733
       6    H2      21.545636   21.088605   22.939889 H          1 MOL1         0.0733
       7    C3      19.978623   19.592678   22.990081 C.2        1 MOL1        -0.1395
       8    H3      18.950759   19.420264   23.307860 H          1 MOL1         0.0816
       9    C4      20.719624   18.587774   22.513320 C.2        1 MOL1        -0.1394
      10    H4      21.745690   18.761801   22.190886 H          1 MOL1         0.0816
      11    C5      20.230002   17.163352   22.376834 C.3        1 MOL1        -0.1826
      12    H5      20.972016   16.473697   22.801468 H          1 MOL1         0.0736
      13    H6      19.302430   17.019341   22.947867 H          1 MOL1         0.0736
      14    C6      19.980139   16.803300   20.899362 C.3        1 MOL1        -0.2882
      15    H7      20.901980   16.901144   20.311093 H          1 MOL1         0.0749
      16    H8      19.624618   15.768900   20.806144 H          1 MOL1         0.0749
      17    H9      19.222268   17.465199   20.459815 H          1 MOL1         0.0749
@<TRIPOS>BOND
    1     1     2    1
    2     1     3    2
    3     1     4    1
    4     4     5    1
    5     4     6    1
    6     4     7    1
    7     7     8    1
    8     7     9    2
    9     9    10    1
   10     9    11    1
   11    11    12    1
   12    11    13    1
   13    11    14    1
   14    14    15    1
   15    14    16    1
   16    14    17    1
@<TRIPOS>SUBSTRUCTURE
       1 MOL1            1 RESIDUE      1      MOL     
@<SCITEGIC>MOL_PROPERTY
VConf Rank
SciTegic.value.IntegerValue
659

@<SCITEGIC>MOL_PROPERTY
Conf_Id
SciTegic.value.IntegerValue
7

@<SCITEGIC>MOL_PROPERTY
Delta U+W
SciTegic.value.DoubleValue
-0.041

@<SCITEGIC>MOL_PROPERTY
U+W
SciTegic.value.DoubleValue
-49.468

@<SCITEGIC>MOL_PROPERTY
Grad RMS
SciTegic.value.DoubleValue
0.000000

@<SCITEGIC>MOL_PROPERTY
U
SciTegic.value.DoubleValue
14.121

@<SCITEGIC>MOL_PROPERTY
W
SciTegic.value.DoubleValue
-63.589

@<SCITEGIC>MOL_PROPERTY
W(PB)
SciTegic.value.DoubleValue
-65.660

@<SCITEGIC>MOL_PROPERTY
W(SA)
SciTegic.value.DoubleValue
2.071

@<SCITEGIC>MOL_PROPERTY
Valence
SciTegic.value.DoubleValue
15.230

@<SCITEGIC>MOL_PROPERTY
Coulomb
SciTegic.value.DoubleValue
-1.333

@<SCITEGIC>MOL_PROPERTY
VdW
SciTegic.value.DoubleValue
0.224

@<SCITEGIC>MOL_PROPERTY
VdW6
SciTegic.value.DoubleValue
-4.212

@<SCITEGIC>MOL_PROPERTY
VdW12
SciTegic.value.DoubleValue
4.436

@<SCITEGIC>MOL_PROPERTY
Bond
SciTegic.value.DoubleValue
0.044

@<SCITEGIC>MOL_PROPERTY
Angle
SciTegic.value.DoubleValue
2.230

@<SCITEGIC>MOL_PROPERTY
Pdih
SciTegic.value.DoubleValue
12.956

@<SCITEGIC>MOL_PROPERTY
Idih
SciTegic.value.DoubleValue
0.000

@<SCITEGIC>MOL_PROPERTY
Tether
SciTegic.value.DoubleValue
0.000

@<TRIPOS>MOLECULE
guest-s20_confgen4.mol2 : confsearch ligand conformer 660
          17          16           1
SMALL
USER_CHARGES
 
@<TRIPOS>ATOM
       1    C1      20.100684   19.428020   25.023339 C.2        1 MOL1         0.6132
       2    O1      18.908932   19.343978   25.246178 O.co2      1 MOL1        -0.6749
       3    O2      20.799259   20.331472   25.439089 O.co2      1 MOL1        -0.6749
       4    C2      20.760787   18.325544   24.200910 C.3        1 MOL1        -0.1955
       5    H1      20.228981   17.389034   24.405608 H          1 MOL1         0.0733
       6    H2      21.778151   18.184356   24.583997 H          1 MOL1         0.0733
       7    C3      20.810013   18.566332   22.698754 C.2        1 MOL1        -0.1395
       8    H3      21.285249   17.767461   22.130862 H          1 MOL1         0.0816
       9    C4      20.330929   19.639067   22.057884 C.2        1 MOL1        -0.1394
      10    H4      19.850399   20.451483   22.601763 H          1 MOL1         0.0816
      11    C5      20.406662   19.830842   20.559409 C.3        1 MOL1        -0.1826
      12    H5      20.783393   20.837569   20.333369 H          1 MOL1         0.0736
      13    H6      21.118418   19.121122   20.115727 H          1 MOL1         0.0736
      14    C6      19.023627   19.641358   19.906455 C.3        1 MOL1        -0.2882
      15    H7      19.084231   19.782999   18.819567 H          1 MOL1         0.0749
      16    H8      18.637431   18.631465   20.097664 H          1 MOL1         0.0749
      17    H9      18.300259   20.364970   20.304681 H          1 MOL1         0.0749
@<TRIPOS>BOND
    1     1     2    1
    2     1     3    2
    3     1     4    1
    4     4     5    1
    5     4     6    1
    6     4     7    1
    7     7     8    1
    8     7     9    2
    9     9    10    1
   10     9    11    1
   11    11    12    1
   12    11    13    1
   13    11    14    1
   14    14    15    1
   15    14    16    1
   16    14    17    1
@<TRIPOS>SUBSTRUCTURE
       1 MOL1            1 RESIDUE      1      MOL     
@<SCITEGIC>MOL_PROPERTY
VConf Rank
SciTegic.value.IntegerValue
660

@<SCITEGIC>MOL_PROPERTY
Conf_Id
SciTegic.value.IntegerValue
39

@<SCITEGIC>MOL_PROPERTY
Delta U+W
SciTegic.value.DoubleValue
-0.422

@<SCITEGIC>MOL_PROPERTY
U+W
SciTegic.value.DoubleValue
-49.849

@<SCITEGIC>MOL_PROPERTY
Grad RMS
SciTegic.value.DoubleValue
0.000000

@<SCITEGIC>MOL_PROPERTY
U
SciTegic.value.DoubleValue
14.465

@<SCITEGIC>MOL_PROPERTY
W
SciTegic.value.DoubleValue
-64.314

@<SCITEGIC>MOL_PROPERTY
W(PB)
SciTegic.value.DoubleValue
-66.406

@<SCITEGIC>MOL_PROPERTY
W(SA)
SciTegic.value.DoubleValue
2.093

@<SCITEGIC>MOL_PROPERTY
Valence
SciTegic.value.DoubleValue
14.072

@<SCITEGIC>MOL_PROPERTY
Coulomb
SciTegic.value.DoubleValue
-0.199

@<SCITEGIC>MOL_PROPERTY
VdW
SciTegic.value.DoubleValue
0.592

@<SCITEGIC>MOL_PROPERTY
VdW6
SciTegic.value.DoubleValue
-5.019

@<SCITEGIC>MOL_PROPERTY
VdW12
SciTegic.value.DoubleValue
5.611

@<SCITEGIC>MOL_PROPERTY
Bond
SciTegic.value.DoubleValue
0.085

@<SCITEGIC>MOL_PROPERTY
Angle
SciTegic.value.DoubleValue
2.748

@<SCITEGIC>MOL_PROPERTY
Pdih
SciTegic.value.DoubleValue
11.238

@<SCITEGIC>MOL_PROPERTY
Idih
SciTegic.value.DoubleValue
0.001

@<SCITEGIC>MOL_PROPERTY
Tether
SciTegic.value.DoubleValue
0.000

@<TRIPOS>MOLECULE
guest-s20_confgen4.mol2 : confsearch ligand conformer 661
          17          16           1
SMALL
USER_CHARGES
 
@<TRIPOS>ATOM
       1    C1      20.774586   22.252372   21.267877 C.2        1 MOL1         0.6132
       2    O1      21.157352   22.422946   20.127108 O.co2      1 MOL1        -0.6749
       3    O2      21.234612   22.841342   22.226161 O.co2      1 MOL1        -0.6749
       4    C2      19.653574   21.249400   21.506590 C.3        1 MOL1        -0.1955
       5    H1      18.917057   21.373013   20.704236 H          1 MOL1         0.0733
       6    H2      19.152047   21.512458   22.445691 H          1 MOL1         0.0733
       7    C3      20.152614   19.817398   21.539355 C.2        1 MOL1        -0.1395
       8    H3      20.519894   19.431043   20.589072 H          1 MOL1         0.0816
       9    C4      20.161584   19.049971   22.633522 C.2        1 MOL1        -0.1394
      10    H4      19.796940   19.437921   23.584097 H          1 MOL1         0.0816
      11    C5      20.663085   17.623501   22.665151 C.3        1 MOL1        -0.1826
      12    H5      21.240307   17.398771   21.757664 H          1 MOL1         0.0736
      13    H6      21.346475   17.489581   23.514609 H          1 MOL1         0.0736
      14    C6      19.493090   16.627616   22.785081 C.3        1 MOL1        -0.2882
      15    H7      18.808854   16.725419   21.931936 H          1 MOL1         0.0749
      16    H8      19.863205   15.594385   22.808202 H          1 MOL1         0.0749
      17    H9      18.920439   16.804972   23.704889 H          1 MOL1         0.0749
@<TRIPOS>BOND
    1     1     2    1
    2     1     3    2
    3     1     4    1
    4     4     5    1
    5     4     6    1
    6     4     7    1
    7     7     8    1
    8     7     9    2
    9     9    10    1
   10     9    11    1
   11    11    12    1
   12    11    13    1
   13    11    14    1
   14    14    15    1
   15    14    16    1
   16    14    17    1
@<TRIPOS>SUBSTRUCTURE
       1 MOL1            1 RESIDUE      1      MOL     
@<SCITEGIC>MOL_PROPERTY
VConf Rank
SciTegic.value.IntegerValue
661

@<SCITEGIC>MOL_PROPERTY
Conf_Id
SciTegic.value.IntegerValue
38

@<SCITEGIC>MOL_PROPERTY
Delta U+W
SciTegic.value.DoubleValue
0.000

@<SCITEGIC>MOL_PROPERTY
U+W
SciTegic.value.DoubleValue
-49.427

@<SCITEGIC>MOL_PROPERTY
Grad RMS
SciTegic.value.DoubleValue
0.000000

@<SCITEGIC>MOL_PROPERTY
U
SciTegic.value.DoubleValue
13.666

@<SCITEGIC>MOL_PROPERTY
W
SciTegic.value.DoubleValue
-63.093

@<SCITEGIC>MOL_PROPERTY
W(PB)
SciTegic.value.DoubleValue
-65.225

@<SCITEGIC>MOL_PROPERTY
W(SA)
SciTegic.value.DoubleValue
2.132

@<SCITEGIC>MOL_PROPERTY
Valence
SciTegic.value.DoubleValue
15.226

@<SCITEGIC>MOL_PROPERTY
Coulomb
SciTegic.value.DoubleValue
-1.822

@<SCITEGIC>MOL_PROPERTY
VdW
SciTegic.value.DoubleValue
0.261

@<SCITEGIC>MOL_PROPERTY
VdW6
SciTegic.value.DoubleValue
-4.165

@<SCITEGIC>MOL_PROPERTY
VdW12
SciTegic.value.DoubleValue
4.426

@<SCITEGIC>MOL_PROPERTY
Bond
SciTegic.value.DoubleValue
0.044

@<SCITEGIC>MOL_PROPERTY
Angle
SciTegic.value.DoubleValue
2.229

@<SCITEGIC>MOL_PROPERTY
Pdih
SciTegic.value.DoubleValue
12.953

@<SCITEGIC>MOL_PROPERTY
Idih
SciTegic.value.DoubleValue
0.000

@<SCITEGIC>MOL_PROPERTY
Tether
SciTegic.value.DoubleValue
0.000

@<TRIPOS>MOLECULE
guest-s20_confgen4.mol2 : confsearch ligand conformer 662
          17          16           1
SMALL
USER_CHARGES
 
@<TRIPOS>ATOM
       1    C1      17.680913   21.153658   22.926937 C.2        1 MOL1         0.6132
       2    O1      16.683565   20.478419   23.088698 O.co2      1 MOL1        -0.6749
       3    O2      17.667994   22.263612   22.432170 O.co2      1 MOL1        -0.6749
       4    C2      19.020297   20.581927   23.372782 C.3        1 MOL1        -0.1955
       5    H1      18.830897   19.825680   24.144053 H          1 MOL1         0.0733
       6    H2      19.587718   21.390059   23.848663 H          1 MOL1         0.0733
       7    C3      19.814386   19.996420   22.220676 C.2        1 MOL1        -0.1395
       8    H3      20.178539   20.719801   21.491764 H          1 MOL1         0.0816
       9    C4      20.069976   18.693240   22.070256 C.2        1 MOL1        -0.1394
      10    H4      19.702827   17.970107   22.797814 H          1 MOL1         0.0816
      11    C5      20.858608   18.110792   20.918677 C.3        1 MOL1        -0.1826
      12    H5      20.315299   17.256998   20.491612 H          1 MOL1         0.0736
      13    H6      20.966397   18.850572   20.113490 H          1 MOL1         0.0736
      14    C6      22.255615   17.651949   21.380083 C.3        1 MOL1        -0.2882
      15    H7      22.177632   16.882741   22.159612 H          1 MOL1         0.0749
      16    H8      22.822809   17.229639   20.540422 H          1 MOL1         0.0749
      17    H9      22.828052   18.495490   21.787950 H          1 MOL1         0.0749
@<TRIPOS>BOND
    1     1     2    1
    2     1     3    2
    3     1     4    1
    4     4     5    1
    5     4     6    1
    6     4     7    1
    7     7     8    1
    8     7     9    2
    9     9    10    1
   10     9    11    1
   11    11    12    1
   12    11    13    1
   13    11    14    1
   14    14    15    1
   15    14    16    1
   16    14    17    1
@<TRIPOS>SUBSTRUCTURE
       1 MOL1            1 RESIDUE      1      MOL     
@<SCITEGIC>MOL_PROPERTY
VConf Rank
SciTegic.value.IntegerValue
662

@<SCITEGIC>MOL_PROPERTY
Conf_Id
SciTegic.value.IntegerValue
35

@<SCITEGIC>MOL_PROPERTY
Delta U+W
SciTegic.value.DoubleValue
-0.102

@<SCITEGIC>MOL_PROPERTY
U+W
SciTegic.value.DoubleValue
-49.529

@<SCITEGIC>MOL_PROPERTY
Grad RMS
SciTegic.value.DoubleValue
0.000000

@<SCITEGIC>MOL_PROPERTY
U
SciTegic.value.DoubleValue
13.666

@<SCITEGIC>MOL_PROPERTY
W
SciTegic.value.DoubleValue
-63.195

@<SCITEGIC>MOL_PROPERTY
W(PB)
SciTegic.value.DoubleValue
-65.299

@<SCITEGIC>MOL_PROPERTY
W(SA)
SciTegic.value.DoubleValue
2.103

@<SCITEGIC>MOL_PROPERTY
Valence
SciTegic.value.DoubleValue
15.226

@<SCITEGIC>MOL_PROPERTY
Coulomb
SciTegic.value.DoubleValue
-1.822

@<SCITEGIC>MOL_PROPERTY
VdW
SciTegic.value.DoubleValue
0.261

@<SCITEGIC>MOL_PROPERTY
VdW6
SciTegic.value.DoubleValue
-4.165

@<SCITEGIC>MOL_PROPERTY
VdW12
SciTegic.value.DoubleValue
4.426

@<SCITEGIC>MOL_PROPERTY
Bond
SciTegic.value.DoubleValue
0.044

@<SCITEGIC>MOL_PROPERTY
Angle
SciTegic.value.DoubleValue
2.229

@<SCITEGIC>MOL_PROPERTY
Pdih
SciTegic.value.DoubleValue
12.953

@<SCITEGIC>MOL_PROPERTY
Idih
SciTegic.value.DoubleValue
0.000

@<SCITEGIC>MOL_PROPERTY
Tether
SciTegic.value.DoubleValue
0.000

@<TRIPOS>MOLECULE
guest-s20_confgen4.mol2 : confsearch ligand conformer 663
          17          16           1
SMALL
USER_CHARGES
 
@<TRIPOS>ATOM
       1    C1      20.966163   20.400331   19.661782 C.2        1 MOL1         0.6132
       2    O1      21.233059   21.569460   19.858945 O.co2      1 MOL1        -0.6749
       3    O2      21.640284   19.664947   18.967793 O.co2      1 MOL1        -0.6749
       4    C2      19.713027   19.830228   20.313186 C.3        1 MOL1        -0.1955
       5    H1      19.385190   18.963934   19.726123 H          1 MOL1         0.0733
       6    H2      18.922885   20.586162   20.237367 H          1 MOL1         0.0733
       7    C3      19.934386   19.452535   21.765685 C.2        1 MOL1        -0.1395
       8    H3      20.108217   20.295086   22.432754 H          1 MOL1         0.0816
       9    C4      19.927898   18.192846   22.219394 C.2        1 MOL1        -0.1394
      10    H4      19.754838   17.374786   21.520887 H          1 MOL1         0.0816
      11    C5      20.145388   17.744010   23.654607 C.3        1 MOL1        -0.1826
      12    H5      19.272516   17.163746   23.983079 H          1 MOL1         0.0736
      13    H6      20.992493   17.045431   23.684983 H          1 MOL1         0.0736
      14    C6      20.399119   18.885783   24.663568 C.3        1 MOL1        -0.2882
      15    H7      19.546312   19.576293   24.699859 H          1 MOL1         0.0749
      16    H8      20.547144   18.481292   25.673273 H          1 MOL1         0.0749
      17    H9      21.297945   19.456253   24.394933 H          1 MOL1         0.0749
@<TRIPOS>BOND
    1     1     2    1
    2     1     3    2
    3     1     4    1
    4     4     5    1
    5     4     6    1
    6     4     7    1
    7     7     8    1
    8     7     9    2
    9     9    10    1
   10     9    11    1
   11    11    12    1
   12    11    13    1
   13    11    14    1
   14    14    15    1
   15    14    16    1
   16    14    17    1
@<TRIPOS>SUBSTRUCTURE
       1 MOL1            1 RESIDUE      1      MOL     
@<SCITEGIC>MOL_PROPERTY
VConf Rank
SciTegic.value.IntegerValue
663

@<SCITEGIC>MOL_PROPERTY
Conf_Id
SciTegic.value.IntegerValue
19

@<SCITEGIC>MOL_PROPERTY
Delta U+W
SciTegic.value.DoubleValue
-0.496

@<SCITEGIC>MOL_PROPERTY
U+W
SciTegic.value.DoubleValue
-49.923

@<SCITEGIC>MOL_PROPERTY
Grad RMS
SciTegic.value.DoubleValue
0.000000

@<SCITEGIC>MOL_PROPERTY
U
SciTegic.value.DoubleValue
13.863

@<SCITEGIC>MOL_PROPERTY
W
SciTegic.value.DoubleValue
-63.786

@<SCITEGIC>MOL_PROPERTY
W(PB)
SciTegic.value.DoubleValue
-65.856

@<SCITEGIC>MOL_PROPERTY
W(SA)
SciTegic.value.DoubleValue
2.070

@<SCITEGIC>MOL_PROPERTY
Valence
SciTegic.value.DoubleValue
14.117

@<SCITEGIC>MOL_PROPERTY
Coulomb
SciTegic.value.DoubleValue
-1.228

@<SCITEGIC>MOL_PROPERTY
VdW
SciTegic.value.DoubleValue
0.974

@<SCITEGIC>MOL_PROPERTY
VdW6
SciTegic.value.DoubleValue
-4.885

@<SCITEGIC>MOL_PROPERTY
VdW12
SciTegic.value.DoubleValue
5.859

@<SCITEGIC>MOL_PROPERTY
Bond
SciTegic.value.DoubleValue
0.094

@<SCITEGIC>MOL_PROPERTY
Angle
SciTegic.value.DoubleValue
2.818

@<SCITEGIC>MOL_PROPERTY
Pdih
SciTegic.value.DoubleValue
11.205

@<SCITEGIC>MOL_PROPERTY
Idih
SciTegic.value.DoubleValue
0.000

@<SCITEGIC>MOL_PROPERTY
Tether
SciTegic.value.DoubleValue
0.000

@<TRIPOS>MOLECULE
guest-s20_confgen4.mol2 : confsearch ligand conformer 664
          17          16           1
SMALL
USER_CHARGES
 
@<TRIPOS>ATOM
       1    C1      20.589047   20.007376   24.958560 C.2        1 MOL1         0.6132
       2    O1      19.801574   19.331038   25.590435 O.co2      1 MOL1        -0.6749
       3    O2      21.743127   20.185614   25.295209 O.co2      1 MOL1        -0.6749
       4    C2      20.102459   20.677897   23.680490 C.3        1 MOL1        -0.1955
       5    H1      20.511333   21.694689   23.659521 H          1 MOL1         0.0733
       6    H2      19.011259   20.771862   23.736239 H          1 MOL1         0.0733
       7    C3      20.520079   19.922683   22.433089 C.2        1 MOL1        -0.1395
       8    H3      21.590017   19.920654   22.227065 H          1 MOL1         0.0816
       9    C4      19.671071   19.284882   21.621541 C.2        1 MOL1        -0.1394
      10    H4      18.601849   19.282904   21.830871 H          1 MOL1         0.0816
      11    C5      20.089898   18.529934   20.379778 C.3        1 MOL1        -0.1826
      12    H5      19.452159   18.822802   19.534770 H          1 MOL1         0.0736
      13    H6      21.120743   18.789207   20.101669 H          1 MOL1         0.0736
      14    C6      19.988082   17.007623   20.597020 C.3        1 MOL1        -0.2882
      15    H7      18.958011   16.714531   20.838839 H          1 MOL1         0.0749
      16    H8      20.293544   16.464724   19.693128 H          1 MOL1         0.0749
      17    H9      20.637325   16.687587   21.422697 H          1 MOL1         0.0749
@<TRIPOS>BOND
    1     1     2    1
    2     1     3    2
    3     1     4    1
    4     4     5    1
    5     4     6    1
    6     4     7    1
    7     7     8    1
    8     7     9    2
    9     9    10    1
   10     9    11    1
   11    11    12    1
   12    11    13    1
   13    11    14    1
   14    14    15    1
   15    14    16    1
   16    14    17    1
@<TRIPOS>SUBSTRUCTURE
       1 MOL1            1 RESIDUE      1      MOL     
@<SCITEGIC>MOL_PROPERTY
VConf Rank
SciTegic.value.IntegerValue
664

@<SCITEGIC>MOL_PROPERTY
Conf_Id
SciTegic.value.IntegerValue
7

@<SCITEGIC>MOL_PROPERTY
Delta U+W
SciTegic.value.DoubleValue
-0.041

@<SCITEGIC>MOL_PROPERTY
U+W
SciTegic.value.DoubleValue
-49.468

@<SCITEGIC>MOL_PROPERTY
Grad RMS
SciTegic.value.DoubleValue
0.000000

@<SCITEGIC>MOL_PROPERTY
U
SciTegic.value.DoubleValue
14.121

@<SCITEGIC>MOL_PROPERTY
W
SciTegic.value.DoubleValue
-63.589

@<SCITEGIC>MOL_PROPERTY
W(PB)
SciTegic.value.DoubleValue
-65.660

@<SCITEGIC>MOL_PROPERTY
W(SA)
SciTegic.value.DoubleValue
2.071

@<SCITEGIC>MOL_PROPERTY
Valence
SciTegic.value.DoubleValue
15.230

@<SCITEGIC>MOL_PROPERTY
Coulomb
SciTegic.value.DoubleValue
-1.333

@<SCITEGIC>MOL_PROPERTY
VdW
SciTegic.value.DoubleValue
0.224

@<SCITEGIC>MOL_PROPERTY
VdW6
SciTegic.value.DoubleValue
-4.212

@<SCITEGIC>MOL_PROPERTY
VdW12
SciTegic.value.DoubleValue
4.436

@<SCITEGIC>MOL_PROPERTY
Bond
SciTegic.value.DoubleValue
0.044

@<SCITEGIC>MOL_PROPERTY
Angle
SciTegic.value.DoubleValue
2.230

@<SCITEGIC>MOL_PROPERTY
Pdih
SciTegic.value.DoubleValue
12.956

@<SCITEGIC>MOL_PROPERTY
Idih
SciTegic.value.DoubleValue
0.000

@<SCITEGIC>MOL_PROPERTY
Tether
SciTegic.value.DoubleValue
0.000

@<TRIPOS>MOLECULE
guest-s20_confgen4.mol2 : confsearch ligand conformer 665
          17          16           1
SMALL
USER_CHARGES
 
@<TRIPOS>ATOM
       1    C1      19.296090   16.916835   21.090931 C.2        1 MOL1         0.6132
       2    O1      18.908697   17.321872   20.012569 O.co2      1 MOL1        -0.6749
       3    O2      18.613731   16.246754   21.840904 O.co2      1 MOL1        -0.6749
       4    C2      20.725098   17.243473   21.513801 C.3        1 MOL1        -0.1955
       5    H1      21.340841   17.292916   20.608161 H          1 MOL1         0.0733
       6    H2      21.106727   16.393702   22.091701 H          1 MOL1         0.0733
       7    C3      20.895915   18.524896   22.317326 C.2        1 MOL1        -0.1395
       8    H3      21.923390   18.738947   22.608913 H          1 MOL1         0.0816
       9    C4      19.918410   19.367513   22.671554 C.2        1 MOL1        -0.1394
      10    H4      18.882796   19.177450   22.392067 H          1 MOL1         0.0816
      11    C5      20.141814   20.630186   23.473857 C.3        1 MOL1        -0.1826
      12    H5      19.414592   20.680515   24.295522 H          1 MOL1         0.0736
      13    H6      21.138769   20.621867   23.935556 H          1 MOL1         0.0736
      14    C6      20.001408   21.882176   22.586251 C.3        1 MOL1        -0.2882
      15    H7      20.163091   22.795282   23.173751 H          1 MOL1         0.0749
      16    H8      20.736886   21.866513   21.771131 H          1 MOL1         0.0749
      17    H9      18.999149   21.936175   22.141259 H          1 MOL1         0.0749
@<TRIPOS>BOND
    1     1     2    1
    2     1     3    2
    3     1     4    1
    4     4     5    1
    5     4     6    1
    6     4     7    1
    7     7     8    1
    8     7     9    2
    9     9    10    1
   10     9    11    1
   11    11    12    1
   12    11    13    1
   13    11    14    1
   14    14    15    1
   15    14    16    1
   16    14    17    1
@<TRIPOS>SUBSTRUCTURE
       1 MOL1            1 RESIDUE      1      MOL     
@<SCITEGIC>MOL_PROPERTY
VConf Rank
SciTegic.value.IntegerValue
665

@<SCITEGIC>MOL_PROPERTY
Conf_Id
SciTegic.value.IntegerValue
39

@<SCITEGIC>MOL_PROPERTY
Delta U+W
SciTegic.value.DoubleValue
-0.422

@<SCITEGIC>MOL_PROPERTY
U+W
SciTegic.value.DoubleValue
-49.849

@<SCITEGIC>MOL_PROPERTY
Grad RMS
SciTegic.value.DoubleValue
0.000000

@<SCITEGIC>MOL_PROPERTY
U
SciTegic.value.DoubleValue
14.465

@<SCITEGIC>MOL_PROPERTY
W
SciTegic.value.DoubleValue
-64.314

@<SCITEGIC>MOL_PROPERTY
W(PB)
SciTegic.value.DoubleValue
-66.406

@<SCITEGIC>MOL_PROPERTY
W(SA)
SciTegic.value.DoubleValue
2.093

@<SCITEGIC>MOL_PROPERTY
Valence
SciTegic.value.DoubleValue
14.072

@<SCITEGIC>MOL_PROPERTY
Coulomb
SciTegic.value.DoubleValue
-0.199

@<SCITEGIC>MOL_PROPERTY
VdW
SciTegic.value.DoubleValue
0.592

@<SCITEGIC>MOL_PROPERTY
VdW6
SciTegic.value.DoubleValue
-5.019

@<SCITEGIC>MOL_PROPERTY
VdW12
SciTegic.value.DoubleValue
5.611

@<SCITEGIC>MOL_PROPERTY
Bond
SciTegic.value.DoubleValue
0.085

@<SCITEGIC>MOL_PROPERTY
Angle
SciTegic.value.DoubleValue
2.748

@<SCITEGIC>MOL_PROPERTY
Pdih
SciTegic.value.DoubleValue
11.238

@<SCITEGIC>MOL_PROPERTY
Idih
SciTegic.value.DoubleValue
0.001

@<SCITEGIC>MOL_PROPERTY
Tether
SciTegic.value.DoubleValue
0.000

@<TRIPOS>MOLECULE
guest-s20_confgen4.mol2 : confsearch ligand conformer 666
          17          16           1
SMALL
USER_CHARGES
 
@<TRIPOS>ATOM
       1    C1      17.656493   20.538585   23.654988 C.2        1 MOL1         0.6132
       2    O1      17.585414   21.751792   23.660936 O.co2      1 MOL1        -0.6749
       3    O2      17.394671   19.845402   24.618194 O.co2      1 MOL1        -0.6749
       4    C2      18.092428   19.851283   22.367672 C.3        1 MOL1        -0.1955
       5    H1      17.605483   20.366309   21.531524 H          1 MOL1         0.0733
       6    H2      17.707692   18.824407   22.379713 H          1 MOL1         0.0733
       7    C3      19.597842   19.865693   22.182564 C.2        1 MOL1        -0.1395
       8    H3      20.034763   20.847279   22.001482 H          1 MOL1         0.0816
       9    C4      20.371232   18.776854   22.232796 C.2        1 MOL1        -0.1394
      10    H4      19.934034   17.796019   22.416868 H          1 MOL1         0.0816
      11    C5      21.872650   18.793633   22.051734 C.3        1 MOL1        -0.1826
      12    H5      22.257848   19.819636   22.130231 H          1 MOL1         0.0736
      13    H6      22.349371   18.215667   22.854994 H          1 MOL1         0.0736
      14    C6      22.272475   18.201832   20.686095 C.3        1 MOL1        -0.2882
      15    H7      21.827602   18.779871   19.865387 H          1 MOL1         0.0749
      16    H8      23.362967   18.216098   20.560764 H          1 MOL1         0.0749
      17    H9      21.932747   17.161750   20.595298 H          1 MOL1         0.0749
@<TRIPOS>BOND
    1     1     2    1
    2     1     3    2
    3     1     4    1
    4     4     5    1
    5     4     6    1
    6     4     7    1
    7     7     8    1
    8     7     9    2
    9     9    10    1
   10     9    11    1
   11    11    12    1
   12    11    13    1
   13    11    14    1
   14    14    15    1
   15    14    16    1
   16    14    17    1
@<TRIPOS>SUBSTRUCTURE
       1 MOL1            1 RESIDUE      1      MOL     
@<SCITEGIC>MOL_PROPERTY
VConf Rank
SciTegic.value.IntegerValue
666

@<SCITEGIC>MOL_PROPERTY
Conf_Id
SciTegic.value.IntegerValue
38

@<SCITEGIC>MOL_PROPERTY
Delta U+W
SciTegic.value.DoubleValue
0.000

@<SCITEGIC>MOL_PROPERTY
U+W
SciTegic.value.DoubleValue
-49.427

@<SCITEGIC>MOL_PROPERTY
Grad RMS
SciTegic.value.DoubleValue
0.000000

@<SCITEGIC>MOL_PROPERTY
U
SciTegic.value.DoubleValue
13.666

@<SCITEGIC>MOL_PROPERTY
W
SciTegic.value.DoubleValue
-63.093

@<SCITEGIC>MOL_PROPERTY
W(PB)
SciTegic.value.DoubleValue
-65.225

@<SCITEGIC>MOL_PROPERTY
W(SA)
SciTegic.value.DoubleValue
2.132

@<SCITEGIC>MOL_PROPERTY
Valence
SciTegic.value.DoubleValue
15.226

@<SCITEGIC>MOL_PROPERTY
Coulomb
SciTegic.value.DoubleValue
-1.822

@<SCITEGIC>MOL_PROPERTY
VdW
SciTegic.value.DoubleValue
0.261

@<SCITEGIC>MOL_PROPERTY
VdW6
SciTegic.value.DoubleValue
-4.165

@<SCITEGIC>MOL_PROPERTY
VdW12
SciTegic.value.DoubleValue
4.426

@<SCITEGIC>MOL_PROPERTY
Bond
SciTegic.value.DoubleValue
0.044

@<SCITEGIC>MOL_PROPERTY
Angle
SciTegic.value.DoubleValue
2.229

@<SCITEGIC>MOL_PROPERTY
Pdih
SciTegic.value.DoubleValue
12.953

@<SCITEGIC>MOL_PROPERTY
Idih
SciTegic.value.DoubleValue
0.000

@<SCITEGIC>MOL_PROPERTY
Tether
SciTegic.value.DoubleValue
0.000

@<TRIPOS>MOLECULE
guest-s20_confgen4.mol2 : confsearch ligand conformer 667
          17          16           1
SMALL
USER_CHARGES
 
@<TRIPOS>ATOM
       1    C1      20.090430   16.129442   22.514742 C.2        1 MOL1         0.6132
       2    O1      20.758653   15.615229   21.639596 O.co2      1 MOL1        -0.6749
       3    O2      19.070822   15.638487   22.957826 O.co2      1 MOL1        -0.6749
       4    C2      20.557268   17.458862   23.092935 C.3        1 MOL1        -0.1955
       5    H1      21.637454   17.545765   22.924748 H          1 MOL1         0.0733
       6    H2      20.403418   17.424831   24.177684 H          1 MOL1         0.0733
       7    C3      19.817618   18.642415   22.498911 C.2        1 MOL1        -0.1395
       8    H3      18.762202   18.710385   22.760980 H          1 MOL1         0.0816
       9    C4      20.380392   19.557893   21.704295 C.2        1 MOL1        -0.1394
      10    H4      21.435046   19.487549   21.440068 H          1 MOL1         0.0816
      11    C5      19.640342   20.735209   21.109673 C.3        1 MOL1        -0.1826
      12    H5      19.855537   20.803740   20.034718 H          1 MOL1         0.0736
      13    H6      18.554807   20.595099   21.205596 H          1 MOL1         0.0736
      14    C6      20.047687   22.051439   21.800085 C.3        1 MOL1        -0.2882
      15    H7      21.123938   22.236499   21.686668 H          1 MOL1         0.0749
      16    H8      19.508020   22.902103   21.363945 H          1 MOL1         0.0749
      17    H9      19.817892   22.016158   22.873188 H          1 MOL1         0.0749
@<TRIPOS>BOND
    1     1     2    1
    2     1     3    2
    3     1     4    1
    4     4     5    1
    5     4     6    1
    6     4     7    1
    7     7     8    1
    8     7     9    2
    9     9    10    1
   10     9    11    1
   11    11    12    1
   12    11    13    1
   13    11    14    1
   14    14    15    1
   15    14    16    1
   16    14    17    1
@<TRIPOS>SUBSTRUCTURE
       1 MOL1            1 RESIDUE      1      MOL     
@<SCITEGIC>MOL_PROPERTY
VConf Rank
SciTegic.value.IntegerValue
667

@<SCITEGIC>MOL_PROPERTY
Conf_Id
SciTegic.value.IntegerValue
35

@<SCITEGIC>MOL_PROPERTY
Delta U+W
SciTegic.value.DoubleValue
-0.102

@<SCITEGIC>MOL_PROPERTY
U+W
SciTegic.value.DoubleValue
-49.529

@<SCITEGIC>MOL_PROPERTY
Grad RMS
SciTegic.value.DoubleValue
0.000000

@<SCITEGIC>MOL_PROPERTY
U
SciTegic.value.DoubleValue
13.666

@<SCITEGIC>MOL_PROPERTY
W
SciTegic.value.DoubleValue
-63.195

@<SCITEGIC>MOL_PROPERTY
W(PB)
SciTegic.value.DoubleValue
-65.299

@<SCITEGIC>MOL_PROPERTY
W(SA)
SciTegic.value.DoubleValue
2.103

@<SCITEGIC>MOL_PROPERTY
Valence
SciTegic.value.DoubleValue
15.226

@<SCITEGIC>MOL_PROPERTY
Coulomb
SciTegic.value.DoubleValue
-1.822

@<SCITEGIC>MOL_PROPERTY
VdW
SciTegic.value.DoubleValue
0.261

@<SCITEGIC>MOL_PROPERTY
VdW6
SciTegic.value.DoubleValue
-4.165

@<SCITEGIC>MOL_PROPERTY
VdW12
SciTegic.value.DoubleValue
4.426

@<SCITEGIC>MOL_PROPERTY
Bond
SciTegic.value.DoubleValue
0.044

@<SCITEGIC>MOL_PROPERTY
Angle
SciTegic.value.DoubleValue
2.229

@<SCITEGIC>MOL_PROPERTY
Pdih
SciTegic.value.DoubleValue
12.953

@<SCITEGIC>MOL_PROPERTY
Idih
SciTegic.value.DoubleValue
0.000

@<SCITEGIC>MOL_PROPERTY
Tether
SciTegic.value.DoubleValue
0.000

@<TRIPOS>MOLECULE
guest-s20_confgen4.mol2 : confsearch ligand conformer 668
          17          16           1
SMALL
USER_CHARGES
 
@<TRIPOS>ATOM
       1    C1      22.651257   20.411642   21.161589 C.2        1 MOL1         0.6132
       2    O1      23.601679   20.144123   21.870181 O.co2      1 MOL1        -0.6749
       3    O2      22.687574   20.377227   19.947363 O.co2      1 MOL1        -0.6749
       4    C2      21.347363   20.821244   21.833735 C.3        1 MOL1        -0.1955
       5    H1      20.767718   21.420356   21.121232 H          1 MOL1         0.0733
       6    H2      21.596526   21.477313   22.675758 H          1 MOL1         0.0733
       7    C3      20.546529   19.628952   22.322109 C.2        1 MOL1        -0.1395
       8    H3      21.001940   19.082617   23.146251 H          1 MOL1         0.0816
       9    C4      19.373891   19.251234   21.797742 C.2        1 MOL1        -0.1394
      10    H4      18.951095   19.820252   20.970369 H          1 MOL1         0.0816
      11    C5      18.523241   18.070087   22.233490 C.3        1 MOL1        -0.1826
      12    H5      17.525405   18.433398   22.514261 H          1 MOL1         0.0736
      13    H6      18.364436   17.408092   21.371477 H          1 MOL1         0.0736
      14    C6      19.104726   17.243417   23.401618 C.3        1 MOL1        -0.2882
      15    H7      19.226545   17.862488   24.300124 H          1 MOL1         0.0749
      16    H8      18.435004   16.411404   23.655107 H          1 MOL1         0.0749
      17    H9      20.081936   16.819274   23.135814 H          1 MOL1         0.0749
@<TRIPOS>BOND
    1     1     2    1
    2     1     3    2
    3     1     4    1
    4     4     5    1
    5     4     6    1
    6     4     7    1
    7     7     8    1
    8     7     9    2
    9     9    10    1
   10     9    11    1
   11    11    12    1
   12    11    13    1
   13    11    14    1
   14    14    15    1
   15    14    16    1
   16    14    17    1
@<TRIPOS>SUBSTRUCTURE
       1 MOL1            1 RESIDUE      1      MOL     
@<SCITEGIC>MOL_PROPERTY
VConf Rank
SciTegic.value.IntegerValue
668

@<SCITEGIC>MOL_PROPERTY
Conf_Id
SciTegic.value.IntegerValue
19

@<SCITEGIC>MOL_PROPERTY
Delta U+W
SciTegic.value.DoubleValue
-0.496

@<SCITEGIC>MOL_PROPERTY
U+W
SciTegic.value.DoubleValue
-49.923

@<SCITEGIC>MOL_PROPERTY
Grad RMS
SciTegic.value.DoubleValue
0.000000

@<SCITEGIC>MOL_PROPERTY
U
SciTegic.value.DoubleValue
13.863

@<SCITEGIC>MOL_PROPERTY
W
SciTegic.value.DoubleValue
-63.786

@<SCITEGIC>MOL_PROPERTY
W(PB)
SciTegic.value.DoubleValue
-65.856

@<SCITEGIC>MOL_PROPERTY
W(SA)
SciTegic.value.DoubleValue
2.070

@<SCITEGIC>MOL_PROPERTY
Valence
SciTegic.value.DoubleValue
14.117

@<SCITEGIC>MOL_PROPERTY
Coulomb
SciTegic.value.DoubleValue
-1.228

@<SCITEGIC>MOL_PROPERTY
VdW
SciTegic.value.DoubleValue
0.974

@<SCITEGIC>MOL_PROPERTY
VdW6
SciTegic.value.DoubleValue
-4.885

@<SCITEGIC>MOL_PROPERTY
VdW12
SciTegic.value.DoubleValue
5.859

@<SCITEGIC>MOL_PROPERTY
Bond
SciTegic.value.DoubleValue
0.094

@<SCITEGIC>MOL_PROPERTY
Angle
SciTegic.value.DoubleValue
2.818

@<SCITEGIC>MOL_PROPERTY
Pdih
SciTegic.value.DoubleValue
11.205

@<SCITEGIC>MOL_PROPERTY
Idih
SciTegic.value.DoubleValue
0.000

@<SCITEGIC>MOL_PROPERTY
Tether
SciTegic.value.DoubleValue
0.000

@<TRIPOS>MOLECULE
guest-s20_confgen4.mol2 : confsearch ligand conformer 669
          17          16           1
SMALL
USER_CHARGES
 
@<TRIPOS>ATOM
       1    C1      19.313263   21.162721   24.083687 C.2        1 MOL1         0.6132
       2    O1      18.142193   20.892379   24.263473 O.co2      1 MOL1        -0.6749
       3    O2      20.086690   21.430575   24.982056 O.co2      1 MOL1        -0.6749
       4    C2      19.840055   21.177799   22.654670 C.3        1 MOL1        -0.1955
       5    H1      20.496096   22.049548   22.549083 H          1 MOL1         0.0733
       6    H2      18.991136   21.331101   21.977553 H          1 MOL1         0.0733
       7    C3      20.595857   19.911174   22.300848 C.2        1 MOL1        -0.1395
       8    H3      21.538894   19.769754   22.828006 H          1 MOL1         0.0816
       9    C4      20.168567   19.003209   21.418102 C.2        1 MOL1        -0.1394
      10    H4      19.223013   19.142604   20.895076 H          1 MOL1         0.0816
      11    C5      20.922348   17.739404   21.068895 C.3        1 MOL1        -0.1826
      12    H5      20.976432   17.629297   19.977348 H          1 MOL1         0.0736
      13    H6      21.957818   17.796709   21.431835 H          1 MOL1         0.0736
      14    C6      20.236875   16.500345   21.677050 C.3        1 MOL1        -0.2882
      15    H7      19.210736   16.396187   21.300730 H          1 MOL1         0.0749
      16    H8      20.788153   15.586245   21.420963 H          1 MOL1         0.0749
      17    H9      20.193451   16.576958   22.771548 H          1 MOL1         0.0749
@<TRIPOS>BOND
    1     1     2    1
    2     1     3    2
    3     1     4    1
    4     4     5    1
    5     4     6    1
    6     4     7    1
    7     7     8    1
    8     7     9    2
    9     9    10    1
   10     9    11    1
   11    11    12    1
   12    11    13    1
   13    11    14    1
   14    14    15    1
   15    14    16    1
   16    14    17    1
@<TRIPOS>SUBSTRUCTURE
       1 MOL1            1 RESIDUE      1      MOL     
@<SCITEGIC>MOL_PROPERTY
VConf Rank
SciTegic.value.IntegerValue
669

@<SCITEGIC>MOL_PROPERTY
Conf_Id
SciTegic.value.IntegerValue
7

@<SCITEGIC>MOL_PROPERTY
Delta U+W
SciTegic.value.DoubleValue
-0.041

@<SCITEGIC>MOL_PROPERTY
U+W
SciTegic.value.DoubleValue
-49.468

@<SCITEGIC>MOL_PROPERTY
Grad RMS
SciTegic.value.DoubleValue
0.000000

@<SCITEGIC>MOL_PROPERTY
U
SciTegic.value.DoubleValue
14.121

@<SCITEGIC>MOL_PROPERTY
W
SciTegic.value.DoubleValue
-63.589

@<SCITEGIC>MOL_PROPERTY
W(PB)
SciTegic.value.DoubleValue
-65.660

@<SCITEGIC>MOL_PROPERTY
W(SA)
SciTegic.value.DoubleValue
2.071

@<SCITEGIC>MOL_PROPERTY
Valence
SciTegic.value.DoubleValue
15.230

@<SCITEGIC>MOL_PROPERTY
Coulomb
SciTegic.value.DoubleValue
-1.333

@<SCITEGIC>MOL_PROPERTY
VdW
SciTegic.value.DoubleValue
0.224

@<SCITEGIC>MOL_PROPERTY
VdW6
SciTegic.value.DoubleValue
-4.212

@<SCITEGIC>MOL_PROPERTY
VdW12
SciTegic.value.DoubleValue
4.436

@<SCITEGIC>MOL_PROPERTY
Bond
SciTegic.value.DoubleValue
0.044

@<SCITEGIC>MOL_PROPERTY
Angle
SciTegic.value.DoubleValue
2.230

@<SCITEGIC>MOL_PROPERTY
Pdih
SciTegic.value.DoubleValue
12.956

@<SCITEGIC>MOL_PROPERTY
Idih
SciTegic.value.DoubleValue
0.000

@<SCITEGIC>MOL_PROPERTY
Tether
SciTegic.value.DoubleValue
0.000

@<TRIPOS>MOLECULE
guest-s20_confgen4.mol2 : confsearch ligand conformer 670
          17          16           1
SMALL
USER_CHARGES
 
@<TRIPOS>ATOM
       1    C1      22.473950   20.646481   21.771308 C.2        1 MOL1         0.6132
       2    O1      23.066248   20.476193   22.818770 O.co2      1 MOL1        -0.6749
       3    O2      22.269722   21.741869   21.286026 O.co2      1 MOL1        -0.6749
       4    C2      21.984818   19.417802   21.010601 C.3        1 MOL1        -0.1955
       5    H1      22.689712   18.600541   21.202898 H          1 MOL1         0.0733
       6    H2      22.059988   19.634696   19.938675 H          1 MOL1         0.0733
       7    C3      20.571096   18.960332   21.340735 C.2        1 MOL1        -0.1395
       8    H3      20.241983   18.082142   20.786647 H          1 MOL1         0.0816
       9    C4      19.744849   19.533496   22.223794 C.2        1 MOL1        -0.1394
      10    H4      20.049465   20.411874   22.791592 H          1 MOL1         0.0816
      11    C5      18.345219   19.039065   22.514508 C.3        1 MOL1        -0.1826
      12    H5      17.642145   19.882682   22.491729 H          1 MOL1         0.0736
      13    H6      18.016748   18.334146   21.738396 H          1 MOL1         0.0736
      14    C6      18.276321   18.350039   23.891292 C.3        1 MOL1        -0.2882
      15    H7      17.258400   17.994581   24.097555 H          1 MOL1         0.0749
      16    H8      18.953271   17.486386   23.929199 H          1 MOL1         0.0749
      17    H9      18.563471   19.044744   24.691534 H          1 MOL1         0.0749
@<TRIPOS>BOND
    1     1     2    1
    2     1     3    2
    3     1     4    1
    4     4     5    1
    5     4     6    1
    6     4     7    1
    7     7     8    1
    8     7     9    2
    9     9    10    1
   10     9    11    1
   11    11    12    1
   12    11    13    1
   13    11    14    1
   14    14    15    1
   15    14    16    1
   16    14    17    1
@<TRIPOS>SUBSTRUCTURE
       1 MOL1            1 RESIDUE      1      MOL     
@<SCITEGIC>MOL_PROPERTY
VConf Rank
SciTegic.value.IntegerValue
670

@<SCITEGIC>MOL_PROPERTY
Conf_Id
SciTegic.value.IntegerValue
39

@<SCITEGIC>MOL_PROPERTY
Delta U+W
SciTegic.value.DoubleValue
-0.422

@<SCITEGIC>MOL_PROPERTY
U+W
SciTegic.value.DoubleValue
-49.849

@<SCITEGIC>MOL_PROPERTY
Grad RMS
SciTegic.value.DoubleValue
0.000000

@<SCITEGIC>MOL_PROPERTY
U
SciTegic.value.DoubleValue
14.465

@<SCITEGIC>MOL_PROPERTY
W
SciTegic.value.DoubleValue
-64.314

@<SCITEGIC>MOL_PROPERTY
W(PB)
SciTegic.value.DoubleValue
-66.406

@<SCITEGIC>MOL_PROPERTY
W(SA)
SciTegic.value.DoubleValue
2.093

@<SCITEGIC>MOL_PROPERTY
Valence
SciTegic.value.DoubleValue
14.072

@<SCITEGIC>MOL_PROPERTY
Coulomb
SciTegic.value.DoubleValue
-0.199

@<SCITEGIC>MOL_PROPERTY
VdW
SciTegic.value.DoubleValue
0.592

@<SCITEGIC>MOL_PROPERTY
VdW6
SciTegic.value.DoubleValue
-5.019

@<SCITEGIC>MOL_PROPERTY
VdW12
SciTegic.value.DoubleValue
5.611

@<SCITEGIC>MOL_PROPERTY
Bond
SciTegic.value.DoubleValue
0.085

@<SCITEGIC>MOL_PROPERTY
Angle
SciTegic.value.DoubleValue
2.748

@<SCITEGIC>MOL_PROPERTY
Pdih
SciTegic.value.DoubleValue
11.238

@<SCITEGIC>MOL_PROPERTY
Idih
SciTegic.value.DoubleValue
0.001

@<SCITEGIC>MOL_PROPERTY
Tether
SciTegic.value.DoubleValue
0.000

@<TRIPOS>MOLECULE
guest-s20_confgen4.mol2 : confsearch ligand conformer 671
          17          16           1
SMALL
USER_CHARGES
 
@<TRIPOS>ATOM
       1    C1      21.390395   17.538559   19.789156 C.2        1 MOL1         0.6132
       2    O1      21.173873   16.343181   19.823050 O.co2      1 MOL1        -0.6749
       3    O2      22.463058   18.018654   19.479766 O.co2      1 MOL1        -0.6749
       4    C2      20.252535   18.484749   20.149161 C.3        1 MOL1        -0.1955
       5    H1      19.334136   18.090828   19.698741 H          1 MOL1         0.0733
       6    H2      20.450654   19.454744   19.677463 H          1 MOL1         0.0733
       7    C3      20.074464   18.635310   21.647950 C.2        1 MOL1        -0.1395
       8    H3      19.718678   17.745092   22.165761 H          1 MOL1         0.0816
       9    C4      20.326506   19.759674   22.325083 C.2        1 MOL1        -0.1394
      10    H4      20.685093   20.648586   21.807096 H          1 MOL1         0.0816
      11    C5      20.151962   19.906828   23.820142 C.3        1 MOL1        -0.1826
      12    H5      20.043013   18.921186   24.293281 H          1 MOL1         0.0736
      13    H6      21.049506   20.367508   24.254566 H          1 MOL1         0.0736
      14    C6      18.919465   20.770665   24.151498 C.3        1 MOL1        -0.2882
      15    H7      18.004895   20.315870   23.748605 H          1 MOL1         0.0749
      16    H8      18.798384   20.874380   25.237623 H          1 MOL1         0.0749
      17    H9      19.019098   21.776295   23.722299 H          1 MOL1         0.0749
@<TRIPOS>BOND
    1     1     2    1
    2     1     3    2
    3     1     4    1
    4     4     5    1
    5     4     6    1
    6     4     7    1
    7     7     8    1
    8     7     9    2
    9     9    10    1
   10     9    11    1
   11    11    12    1
   12    11    13    1
   13    11    14    1
   14    14    15    1
   15    14    16    1
   16    14    17    1
@<TRIPOS>SUBSTRUCTURE
       1 MOL1            1 RESIDUE      1      MOL     
@<SCITEGIC>MOL_PROPERTY
VConf Rank
SciTegic.value.IntegerValue
671

@<SCITEGIC>MOL_PROPERTY
Conf_Id
SciTegic.value.IntegerValue
38

@<SCITEGIC>MOL_PROPERTY
Delta U+W
SciTegic.value.DoubleValue
0.000

@<SCITEGIC>MOL_PROPERTY
U+W
SciTegic.value.DoubleValue
-49.427

@<SCITEGIC>MOL_PROPERTY
Grad RMS
SciTegic.value.DoubleValue
0.000000

@<SCITEGIC>MOL_PROPERTY
U
SciTegic.value.DoubleValue
13.666

@<SCITEGIC>MOL_PROPERTY
W
SciTegic.value.DoubleValue
-63.093

@<SCITEGIC>MOL_PROPERTY
W(PB)
SciTegic.value.DoubleValue
-65.225

@<SCITEGIC>MOL_PROPERTY
W(SA)
SciTegic.value.DoubleValue
2.132

@<SCITEGIC>MOL_PROPERTY
Valence
SciTegic.value.DoubleValue
15.226

@<SCITEGIC>MOL_PROPERTY
Coulomb
SciTegic.value.DoubleValue
-1.822

@<SCITEGIC>MOL_PROPERTY
VdW
SciTegic.value.DoubleValue
0.261

@<SCITEGIC>MOL_PROPERTY
VdW6
SciTegic.value.DoubleValue
-4.165

@<SCITEGIC>MOL_PROPERTY
VdW12
SciTegic.value.DoubleValue
4.426

@<SCITEGIC>MOL_PROPERTY
Bond
SciTegic.value.DoubleValue
0.044

@<SCITEGIC>MOL_PROPERTY
Angle
SciTegic.value.DoubleValue
2.229

@<SCITEGIC>MOL_PROPERTY
Pdih
SciTegic.value.DoubleValue
12.953

@<SCITEGIC>MOL_PROPERTY
Idih
SciTegic.value.DoubleValue
0.000

@<SCITEGIC>MOL_PROPERTY
Tether
SciTegic.value.DoubleValue
0.000

@<TRIPOS>MOLECULE
guest-s20_confgen4.mol2 : confsearch ligand conformer 672
          17          16           1
SMALL
USER_CHARGES
 
@<TRIPOS>ATOM
       1    C1      21.774907   21.674242   20.933403 C.2        1 MOL1         0.6132
       2    O1      21.270113   22.044164   19.891693 O.co2      1 MOL1        -0.6749
       3    O2      22.974767   21.638327   21.123155 O.co2      1 MOL1        -0.6749
       4    C2      20.855533   21.236531   22.065995 C.3        1 MOL1        -0.1955
       5    H1      19.877743   21.710105   21.916684 H          1 MOL1         0.0733
       6    H2      21.264632   21.633921   23.002065 H          1 MOL1         0.0733
       7    C3      20.721178   19.728306   22.155165 C.2        1 MOL1        -0.1395
       8    H3      21.622810   19.198348   22.460788 H          1 MOL1         0.0816
       9    C4      19.597619   19.057018   21.884579 C.2        1 MOL1        -0.1394
      10    H4      18.697294   19.587322   21.575947 H          1 MOL1         0.0816
      11    C5      19.466613   17.552749   21.970205 C.3        1 MOL1        -0.1826
      12    H5      18.991701   17.169437   21.056934 H          1 MOL1         0.0736
      13    H6      20.458193   17.083368   22.030781 H          1 MOL1         0.0736
      14    C6      18.630480   17.138549   23.196737 C.3        1 MOL1        -0.2882
      15    H7      17.619491   17.563357   23.143185 H          1 MOL1         0.0749
      16    H8      18.538324   16.046115   23.253143 H          1 MOL1         0.0749
      17    H9      19.100130   17.489245   24.125199 H          1 MOL1         0.0749
@<TRIPOS>BOND
    1     1     2    1
    2     1     3    2
    3     1     4    1
    4     4     5    1
    5     4     6    1
    6     4     7    1
    7     7     8    1
    8     7     9    2
    9     9    10    1
   10     9    11    1
   11    11    12    1
   12    11    13    1
   13    11    14    1
   14    14    15    1
   15    14    16    1
   16    14    17    1
@<TRIPOS>SUBSTRUCTURE
       1 MOL1            1 RESIDUE      1      MOL     
@<SCITEGIC>MOL_PROPERTY
VConf Rank
SciTegic.value.IntegerValue
672

@<SCITEGIC>MOL_PROPERTY
Conf_Id
SciTegic.value.IntegerValue
35

@<SCITEGIC>MOL_PROPERTY
Delta U+W
SciTegic.value.DoubleValue
-0.102

@<SCITEGIC>MOL_PROPERTY
U+W
SciTegic.value.DoubleValue
-49.529

@<SCITEGIC>MOL_PROPERTY
Grad RMS
SciTegic.value.DoubleValue
0.000000

@<SCITEGIC>MOL_PROPERTY
U
SciTegic.value.DoubleValue
13.666

@<SCITEGIC>MOL_PROPERTY
W
SciTegic.value.DoubleValue
-63.195

@<SCITEGIC>MOL_PROPERTY
W(PB)
SciTegic.value.DoubleValue
-65.299

@<SCITEGIC>MOL_PROPERTY
W(SA)
SciTegic.value.DoubleValue
2.103

@<SCITEGIC>MOL_PROPERTY
Valence
SciTegic.value.DoubleValue
15.226

@<SCITEGIC>MOL_PROPERTY
Coulomb
SciTegic.value.DoubleValue
-1.822

@<SCITEGIC>MOL_PROPERTY
VdW
SciTegic.value.DoubleValue
0.261

@<SCITEGIC>MOL_PROPERTY
VdW6
SciTegic.value.DoubleValue
-4.165

@<SCITEGIC>MOL_PROPERTY
VdW12
SciTegic.value.DoubleValue
4.426

@<SCITEGIC>MOL_PROPERTY
Bond
SciTegic.value.DoubleValue
0.044

@<SCITEGIC>MOL_PROPERTY
Angle
SciTegic.value.DoubleValue
2.229

@<SCITEGIC>MOL_PROPERTY
Pdih
SciTegic.value.DoubleValue
12.953

@<SCITEGIC>MOL_PROPERTY
Idih
SciTegic.value.DoubleValue
0.000

@<SCITEGIC>MOL_PROPERTY
Tether
SciTegic.value.DoubleValue
0.000

@<TRIPOS>MOLECULE
guest-s20_confgen4.mol2 : confsearch ligand conformer 673
          17          16           1
SMALL
USER_CHARGES
 
@<TRIPOS>ATOM
       1    C1      17.756374   20.390171   21.225724 C.2        1 MOL1         0.6132
       2    O1      18.027267   21.189051   20.350864 O.co2      1 MOL1        -0.6749
       3    O2      16.840092   19.595492   21.149826 O.co2      1 MOL1        -0.6749
       4    C2      18.606894   20.393165   22.489172 C.3        1 MOL1        -0.1955
       5    H1      18.010973   19.966153   23.304724 H          1 MOL1         0.0733
       6    H2      18.809942   21.437389   22.753516 H          1 MOL1         0.0733
       7    C3      19.910691   19.637855   22.313030 C.2        1 MOL1        -0.1395
       8    H3      20.616746   20.103958   21.627958 H          1 MOL1         0.0816
       9    C4      20.196125   18.485619   22.932376 C.2        1 MOL1        -0.1394
      10    H4      19.462548   18.046716   23.607886 H          1 MOL1         0.0816
      11    C5      21.475455   17.676703   22.799857 C.3        1 MOL1        -0.1826
      12    H5      21.924657   17.554088   23.794688 H          1 MOL1         0.0736
      13    H6      21.222309   16.662204   22.463362 H          1 MOL1         0.0736
      14    C6      22.529330   18.275473   21.842335 C.3        1 MOL1        -0.2882
      15    H7      22.847141   19.270986   22.179013 H          1 MOL1         0.0749
      16    H8      23.419693   17.634728   21.800766 H          1 MOL1         0.0749
      17    H9      22.130625   18.363370   20.823120 H          1 MOL1         0.0749
@<TRIPOS>BOND
    1     1     2    1
    2     1     3    2
    3     1     4    1
    4     4     5    1
    5     4     6    1
    6     4     7    1
    7     7     8    1
    8     7     9    2
    9     9    10    1
   10     9    11    1
   11    11    12    1
   12    11    13    1
   13    11    14    1
   14    14    15    1
   15    14    16    1
   16    14    17    1
@<TRIPOS>SUBSTRUCTURE
       1 MOL1            1 RESIDUE      1      MOL     
@<SCITEGIC>MOL_PROPERTY
VConf Rank
SciTegic.value.IntegerValue
673

@<SCITEGIC>MOL_PROPERTY
Conf_Id
SciTegic.value.IntegerValue
19

@<SCITEGIC>MOL_PROPERTY
Delta U+W
SciTegic.value.DoubleValue
-0.496

@<SCITEGIC>MOL_PROPERTY
U+W
SciTegic.value.DoubleValue
-49.923

@<SCITEGIC>MOL_PROPERTY
Grad RMS
SciTegic.value.DoubleValue
0.000000

@<SCITEGIC>MOL_PROPERTY
U
SciTegic.value.DoubleValue
13.863

@<SCITEGIC>MOL_PROPERTY
W
SciTegic.value.DoubleValue
-63.786

@<SCITEGIC>MOL_PROPERTY
W(PB)
SciTegic.value.DoubleValue
-65.856

@<SCITEGIC>MOL_PROPERTY
W(SA)
SciTegic.value.DoubleValue
2.070

@<SCITEGIC>MOL_PROPERTY
Valence
SciTegic.value.DoubleValue
14.117

@<SCITEGIC>MOL_PROPERTY
Coulomb
SciTegic.value.DoubleValue
-1.228

@<SCITEGIC>MOL_PROPERTY
VdW
SciTegic.value.DoubleValue
0.974

@<SCITEGIC>MOL_PROPERTY
VdW6
SciTegic.value.DoubleValue
-4.885

@<SCITEGIC>MOL_PROPERTY
VdW12
SciTegic.value.DoubleValue
5.859

@<SCITEGIC>MOL_PROPERTY
Bond
SciTegic.value.DoubleValue
0.094

@<SCITEGIC>MOL_PROPERTY
Angle
SciTegic.value.DoubleValue
2.818

@<SCITEGIC>MOL_PROPERTY
Pdih
SciTegic.value.DoubleValue
11.205

@<SCITEGIC>MOL_PROPERTY
Idih
SciTegic.value.DoubleValue
0.000

@<SCITEGIC>MOL_PROPERTY
Tether
SciTegic.value.DoubleValue
0.000

@<TRIPOS>MOLECULE
guest-s20_confgen4.mol2 : confsearch ligand conformer 674
          17          16           1
SMALL
USER_CHARGES
 
@<TRIPOS>ATOM
       1    C1      20.316666   17.062222   20.070459 C.2        1 MOL1         0.6132
       2    O1      19.188155   16.611667   20.053899 O.co2      1 MOL1        -0.6749
       3    O2      20.925601   17.386299   19.069871 O.co2      1 MOL1        -0.6749
       4    C2      21.011763   17.220228   21.416454 C.3        1 MOL1        -0.1955
       5    H1      22.050853   16.892358   21.296961 H          1 MOL1         0.0733
       6    H2      20.538796   16.534355   22.129569 H          1 MOL1         0.0733
       7    C3      20.971478   18.648015   21.926911 C.2        1 MOL1        -0.1395
       8    H3      21.554471   19.364914   21.349511 H          1 MOL1         0.0816
       9    C4      20.277642   19.043335   22.998605 C.2        1 MOL1        -0.1394
      10    H4      19.690723   18.326993   23.572573 H          1 MOL1         0.0816
      11    C5      20.236472   20.468116   23.504215 C.3        1 MOL1        -0.1826
      12    H5      20.418356   20.482808   24.587369 H          1 MOL1         0.0736
      13    H6      21.036064   21.063277   23.042000 H          1 MOL1         0.0736
      14    C6      18.874382   21.123039   23.202916 C.3        1 MOL1        -0.2882
      15    H7      18.058352   20.569761   23.686035 H          1 MOL1         0.0749
      16    H8      18.850140   22.156788   23.571483 H          1 MOL1         0.0749
      17    H9      18.681662   21.141834   22.122089 H          1 MOL1         0.0749
@<TRIPOS>BOND
    1     1     2    1
    2     1     3    2
    3     1     4    1
    4     4     5    1
    5     4     6    1
    6     4     7    1
    7     7     8    1
    8     7     9    2
    9     9    10    1
   10     9    11    1
   11    11    12    1
   12    11    13    1
   13    11    14    1
   14    14    15    1
   15    14    16    1
   16    14    17    1
@<TRIPOS>SUBSTRUCTURE
       1 MOL1            1 RESIDUE      1      MOL     
@<SCITEGIC>MOL_PROPERTY
VConf Rank
SciTegic.value.IntegerValue
674

@<SCITEGIC>MOL_PROPERTY
Conf_Id
SciTegic.value.IntegerValue
7

@<SCITEGIC>MOL_PROPERTY
Delta U+W
SciTegic.value.DoubleValue
-0.041

@<SCITEGIC>MOL_PROPERTY
U+W
SciTegic.value.DoubleValue
-49.468

@<SCITEGIC>MOL_PROPERTY
Grad RMS
SciTegic.value.DoubleValue
0.000000

@<SCITEGIC>MOL_PROPERTY
U
SciTegic.value.DoubleValue
14.121

@<SCITEGIC>MOL_PROPERTY
W
SciTegic.value.DoubleValue
-63.589

@<SCITEGIC>MOL_PROPERTY
W(PB)
SciTegic.value.DoubleValue
-65.660

@<SCITEGIC>MOL_PROPERTY
W(SA)
SciTegic.value.DoubleValue
2.071

@<SCITEGIC>MOL_PROPERTY
Valence
SciTegic.value.DoubleValue
15.230

@<SCITEGIC>MOL_PROPERTY
Coulomb
SciTegic.value.DoubleValue
-1.333

@<SCITEGIC>MOL_PROPERTY
VdW
SciTegic.value.DoubleValue
0.224

@<SCITEGIC>MOL_PROPERTY
VdW6
SciTegic.value.DoubleValue
-4.212

@<SCITEGIC>MOL_PROPERTY
VdW12
SciTegic.value.DoubleValue
4.436

@<SCITEGIC>MOL_PROPERTY
Bond
SciTegic.value.DoubleValue
0.044

@<SCITEGIC>MOL_PROPERTY
Angle
SciTegic.value.DoubleValue
2.230

@<SCITEGIC>MOL_PROPERTY
Pdih
SciTegic.value.DoubleValue
12.956

@<SCITEGIC>MOL_PROPERTY
Idih
SciTegic.value.DoubleValue
0.000

@<SCITEGIC>MOL_PROPERTY
Tether
SciTegic.value.DoubleValue
0.000

@<TRIPOS>MOLECULE
guest-s20_confgen4.mol2 : confsearch ligand conformer 675
          17          16           1
SMALL
USER_CHARGES
 
@<TRIPOS>ATOM
       1    C1      19.074617   21.812172   22.520615 C.2        1 MOL1         0.6132
       2    O1      20.068278   22.492128   22.355417 O.co2      1 MOL1        -0.6749
       3    O2      18.346731   21.911310   23.488829 O.co2      1 MOL1        -0.6749
       4    C2      18.705576   20.799027   21.441300 C.3        1 MOL1        -0.1955
       5    H1      19.031890   21.202477   20.475632 H          1 MOL1         0.0733
       6    H2      17.611812   20.745145   21.391336 H          1 MOL1         0.0733
       7    C3      19.277274   19.400939   21.629420 C.2        1 MOL1        -0.1395
       8    H3      19.001540   18.693753   20.848136 H          1 MOL1         0.0816
       9    C4      20.059471   19.000125   22.638634 C.2        1 MOL1        -0.1394
      10    H4      20.350713   19.687350   23.432128 H          1 MOL1         0.0816
      11    C5      20.601376   17.595033   22.780043 C.3        1 MOL1        -0.1826
      12    H5      20.431147   17.233583   23.803222 H          1 MOL1         0.0736
      13    H6      20.067619   16.907077   22.109988 H          1 MOL1         0.0736
      14    C6      22.108812   17.548558   22.463005 C.3        1 MOL1        -0.2882
      15    H7      22.496900   16.527132   22.568533 H          1 MOL1         0.0749
      16    H8      22.301258   17.881856   21.434671 H          1 MOL1         0.0749
      17    H9      22.672396   18.199407   23.144348 H          1 MOL1         0.0749
@<TRIPOS>BOND
    1     1     2    1
    2     1     3    2
    3     1     4    1
    4     4     5    1
    5     4     6    1
    6     4     7    1
    7     7     8    1
    8     7     9    2
    9     9    10    1
   10     9    11    1
   11    11    12    1
   12    11    13    1
   13    11    14    1
   14    14    15    1
   15    14    16    1
   16    14    17    1
@<TRIPOS>SUBSTRUCTURE
       1 MOL1            1 RESIDUE      1      MOL     
@<SCITEGIC>MOL_PROPERTY
VConf Rank
SciTegic.value.IntegerValue
675

@<SCITEGIC>MOL_PROPERTY
Conf_Id
SciTegic.value.IntegerValue
39

@<SCITEGIC>MOL_PROPERTY
Delta U+W
SciTegic.value.DoubleValue
-0.422

@<SCITEGIC>MOL_PROPERTY
U+W
SciTegic.value.DoubleValue
-49.849

@<SCITEGIC>MOL_PROPERTY
Grad RMS
SciTegic.value.DoubleValue
0.000000

@<SCITEGIC>MOL_PROPERTY
U
SciTegic.value.DoubleValue
14.465

@<SCITEGIC>MOL_PROPERTY
W
SciTegic.value.DoubleValue
-64.314

@<SCITEGIC>MOL_PROPERTY
W(PB)
SciTegic.value.DoubleValue
-66.406

@<SCITEGIC>MOL_PROPERTY
W(SA)
SciTegic.value.DoubleValue
2.093

@<SCITEGIC>MOL_PROPERTY
Valence
SciTegic.value.DoubleValue
14.072

@<SCITEGIC>MOL_PROPERTY
Coulomb
SciTegic.value.DoubleValue
-0.199

@<SCITEGIC>MOL_PROPERTY
VdW
SciTegic.value.DoubleValue
0.592

@<SCITEGIC>MOL_PROPERTY
VdW6
SciTegic.value.DoubleValue
-5.019

@<SCITEGIC>MOL_PROPERTY
VdW12
SciTegic.value.DoubleValue
5.611

@<SCITEGIC>MOL_PROPERTY
Bond
SciTegic.value.DoubleValue
0.085

@<SCITEGIC>MOL_PROPERTY
Angle
SciTegic.value.DoubleValue
2.748

@<SCITEGIC>MOL_PROPERTY
Pdih
SciTegic.value.DoubleValue
11.238

@<SCITEGIC>MOL_PROPERTY
Idih
SciTegic.value.DoubleValue
0.001

@<SCITEGIC>MOL_PROPERTY
Tether
SciTegic.value.DoubleValue
0.000

@<TRIPOS>MOLECULE
guest-s20_confgen4.mol2 : confsearch ligand conformer 676
          17          16           1
SMALL
USER_CHARGES
 
@<TRIPOS>ATOM
       1    C1      21.207675   22.202026   21.620757 C.2        1 MOL1         0.6132
       2    O1      22.161952   22.541895   22.292177 O.co2      1 MOL1        -0.6749
       3    O2      20.276847   22.936873   21.355470 O.co2      1 MOL1        -0.6749
       4    C2      21.181540   20.778926   21.078809 C.3        1 MOL1        -0.1955
       5    H1      22.194069   20.530878   20.740037 H          1 MOL1         0.0733
       6    H2      20.533790   20.760548   20.194093 H          1 MOL1         0.0733
       7    C3      20.717228   19.771751   22.113583 C.2        1 MOL1        -0.1395
       8    H3      21.397946   19.617076   22.950184 H          1 MOL1         0.0816
       9    C4      19.562778   19.101893   22.044577 C.2        1 MOL1        -0.1394
      10    H4      18.881193   19.259245   21.209267 H          1 MOL1         0.0816
      11    C5      19.099704   18.100753   23.079277 C.3        1 MOL1        -0.1826
      12    H5      19.699745   18.189376   23.995419 H          1 MOL1         0.0736
      13    H6      18.059809   18.313724   23.361761 H          1 MOL1         0.0736
      14    C6      19.201050   16.660415   22.540559 C.3        1 MOL1        -0.2882
      15    H7      20.237948   16.415511   22.275105 H          1 MOL1         0.0749
      16    H8      18.863113   15.938608   23.295462 H          1 MOL1         0.0749
      17    H9      18.579326   16.532611   21.644705 H          1 MOL1         0.0749
@<TRIPOS>BOND
    1     1     2    1
    2     1     3    2
    3     1     4    1
    4     4     5    1
    5     4     6    1
    6     4     7    1
    7     7     8    1
    8     7     9    2
    9     9    10    1
   10     9    11    1
   11    11    12    1
   12    11    13    1
   13    11    14    1
   14    14    15    1
   15    14    16    1
   16    14    17    1
@<TRIPOS>SUBSTRUCTURE
       1 MOL1            1 RESIDUE      1      MOL     
@<SCITEGIC>MOL_PROPERTY
VConf Rank
SciTegic.value.IntegerValue
676

@<SCITEGIC>MOL_PROPERTY
Conf_Id
SciTegic.value.IntegerValue
38

@<SCITEGIC>MOL_PROPERTY
Delta U+W
SciTegic.value.DoubleValue
0.000

@<SCITEGIC>MOL_PROPERTY
U+W
SciTegic.value.DoubleValue
-49.427

@<SCITEGIC>MOL_PROPERTY
Grad RMS
SciTegic.value.DoubleValue
0.000000

@<SCITEGIC>MOL_PROPERTY
U
SciTegic.value.DoubleValue
13.666

@<SCITEGIC>MOL_PROPERTY
W
SciTegic.value.DoubleValue
-63.093

@<SCITEGIC>MOL_PROPERTY
W(PB)
SciTegic.value.DoubleValue
-65.225

@<SCITEGIC>MOL_PROPERTY
W(SA)
SciTegic.value.DoubleValue
2.132

@<SCITEGIC>MOL_PROPERTY
Valence
SciTegic.value.DoubleValue
15.226

@<SCITEGIC>MOL_PROPERTY
Coulomb
SciTegic.value.DoubleValue
-1.822

@<SCITEGIC>MOL_PROPERTY
VdW
SciTegic.value.DoubleValue
0.261

@<SCITEGIC>MOL_PROPERTY
VdW6
SciTegic.value.DoubleValue
-4.165

@<SCITEGIC>MOL_PROPERTY
VdW12
SciTegic.value.DoubleValue
4.426

@<SCITEGIC>MOL_PROPERTY
Bond
SciTegic.value.DoubleValue
0.044

@<SCITEGIC>MOL_PROPERTY
Angle
SciTegic.value.DoubleValue
2.229

@<SCITEGIC>MOL_PROPERTY
Pdih
SciTegic.value.DoubleValue
12.953

@<SCITEGIC>MOL_PROPERTY
Idih
SciTegic.value.DoubleValue
0.000

@<SCITEGIC>MOL_PROPERTY
Tether
SciTegic.value.DoubleValue
0.000

@<TRIPOS>MOLECULE
guest-s20_confgen4.mol2 : confsearch ligand conformer 677
          17          16           1
SMALL
USER_CHARGES
 
@<TRIPOS>ATOM
       1    C1      19.452516   19.431914   25.201551 C.2        1 MOL1         0.6132
       2    O1      20.241582   20.190824   25.729045 O.co2      1 MOL1        -0.6749
       3    O2      19.044820   18.414647   25.726825 O.co2      1 MOL1        -0.6749
       4    C2      18.941260   19.775223   23.808583 C.3        1 MOL1        -0.1955
       5    H1      19.042297   20.857472   23.663090 H          1 MOL1         0.0733
       6    H2      17.869664   19.546463   23.779290 H          1 MOL1         0.0733
       7    C3      19.667122   19.010020   22.718476 C.2        1 MOL1        -0.1395
       8    H3      19.482120   17.936382   22.701832 H          1 MOL1         0.0816
       9    C4      20.485836   19.572038   21.824008 C.2        1 MOL1        -0.1394
      10    H4      20.672867   20.645216   21.843211 H          1 MOL1         0.0816
      11    C5      21.211871   18.806856   20.740177 C.3        1 MOL1        -0.1826
      12    H5      22.272077   19.093912   20.730467 H          1 MOL1         0.0736
      13    H6      21.179286   17.727658   20.943867 H          1 MOL1         0.0736
      14    C6      20.591990   19.083695   19.356642 C.3        1 MOL1        -0.2882
      15    H7      20.645838   20.152194   19.109985 H          1 MOL1         0.0749
      16    H8      21.123383   18.526357   18.574286 H          1 MOL1         0.0749
      17    H9      19.536996   18.780232   19.334323 H          1 MOL1         0.0749
@<TRIPOS>BOND
    1     1     2    1
    2     1     3    2
    3     1     4    1
    4     4     5    1
    5     4     6    1
    6     4     7    1
    7     7     8    1
    8     7     9    2
    9     9    10    1
   10     9    11    1
   11    11    12    1
   12    11    13    1
   13    11    14    1
   14    14    15    1
   15    14    16    1
   16    14    17    1
@<TRIPOS>SUBSTRUCTURE
       1 MOL1            1 RESIDUE      1      MOL     
@<SCITEGIC>MOL_PROPERTY
VConf Rank
SciTegic.value.IntegerValue
677

@<SCITEGIC>MOL_PROPERTY
Conf_Id
SciTegic.value.IntegerValue
35

@<SCITEGIC>MOL_PROPERTY
Delta U+W
SciTegic.value.DoubleValue
-0.102

@<SCITEGIC>MOL_PROPERTY
U+W
SciTegic.value.DoubleValue
-49.529

@<SCITEGIC>MOL_PROPERTY
Grad RMS
SciTegic.value.DoubleValue
0.000000

@<SCITEGIC>MOL_PROPERTY
U
SciTegic.value.DoubleValue
13.666

@<SCITEGIC>MOL_PROPERTY
W
SciTegic.value.DoubleValue
-63.195

@<SCITEGIC>MOL_PROPERTY
W(PB)
SciTegic.value.DoubleValue
-65.299

@<SCITEGIC>MOL_PROPERTY
W(SA)
SciTegic.value.DoubleValue
2.103

@<SCITEGIC>MOL_PROPERTY
Valence
SciTegic.value.DoubleValue
15.226

@<SCITEGIC>MOL_PROPERTY
Coulomb
SciTegic.value.DoubleValue
-1.822

@<SCITEGIC>MOL_PROPERTY
VdW
SciTegic.value.DoubleValue
0.261

@<SCITEGIC>MOL_PROPERTY
VdW6
SciTegic.value.DoubleValue
-4.165

@<SCITEGIC>MOL_PROPERTY
VdW12
SciTegic.value.DoubleValue
4.426

@<SCITEGIC>MOL_PROPERTY
Bond
SciTegic.value.DoubleValue
0.044

@<SCITEGIC>MOL_PROPERTY
Angle
SciTegic.value.DoubleValue
2.229

@<SCITEGIC>MOL_PROPERTY
Pdih
SciTegic.value.DoubleValue
12.953

@<SCITEGIC>MOL_PROPERTY
Idih
SciTegic.value.DoubleValue
0.000

@<SCITEGIC>MOL_PROPERTY
Tether
SciTegic.value.DoubleValue
0.000

@<TRIPOS>MOLECULE
guest-s20_confgen4.mol2 : confsearch ligand conformer 678
          17          16           1
SMALL
USER_CHARGES
 
@<TRIPOS>ATOM
       1    C1      20.601763   16.240985   21.575644 C.2        1 MOL1         0.6132
       2    O1      21.783400   16.006491   21.415279 O.co2      1 MOL1        -0.6749
       3    O2      19.861212   15.539911   22.236650 O.co2      1 MOL1        -0.6749
       4    C2      20.017141   17.476051   20.902946 C.3        1 MOL1        -0.1955
       5    H1      18.939432   17.318946   20.774703 H          1 MOL1         0.0733
       6    H2      20.452044   17.548072   19.899362 H          1 MOL1         0.0733
       7    C3      20.293957   18.747595   21.682660 C.2        1 MOL1        -0.1395
       8    H3      21.340873   19.044737   21.710285 H          1 MOL1         0.0816
       9    C4      19.348267   19.464810   22.302326 C.2        1 MOL1        -0.1394
      10    H4      18.311281   19.133706   22.256352 H          1 MOL1         0.0816
      11    C5      19.554395   20.740849   23.100966 C.3        1 MOL1        -0.1826
      12    H5      18.936998   21.538038   22.665285 H          1 MOL1         0.0736
      13    H6      19.167907   20.590917   24.118152 H          1 MOL1         0.0736
      14    C6      21.017894   21.227627   23.186078 C.3        1 MOL1        -0.2882
      15    H7      21.421159   21.440190   22.187280 H          1 MOL1         0.0749
      16    H8      21.082933   22.149848   23.777945 H          1 MOL1         0.0749
      17    H9      21.656208   20.474349   23.666304 H          1 MOL1         0.0749
@<TRIPOS>BOND
    1     1     2    1
    2     1     3    2
    3     1     4    1
    4     4     5    1
    5     4     6    1
    6     4     7    1
    7     7     8    1
    8     7     9    2
    9     9    10    1
   10     9    11    1
   11    11    12    1
   12    11    13    1
   13    11    14    1
   14    14    15    1
   15    14    16    1
   16    14    17    1
@<TRIPOS>SUBSTRUCTURE
       1 MOL1            1 RESIDUE      1      MOL     
@<SCITEGIC>MOL_PROPERTY
VConf Rank
SciTegic.value.IntegerValue
678

@<SCITEGIC>MOL_PROPERTY
Conf_Id
SciTegic.value.IntegerValue
19

@<SCITEGIC>MOL_PROPERTY
Delta U+W
SciTegic.value.DoubleValue
-0.496

@<SCITEGIC>MOL_PROPERTY
U+W
SciTegic.value.DoubleValue
-49.923

@<SCITEGIC>MOL_PROPERTY
Grad RMS
SciTegic.value.DoubleValue
0.000000

@<SCITEGIC>MOL_PROPERTY
U
SciTegic.value.DoubleValue
13.863

@<SCITEGIC>MOL_PROPERTY
W
SciTegic.value.DoubleValue
-63.786

@<SCITEGIC>MOL_PROPERTY
W(PB)
SciTegic.value.DoubleValue
-65.856

@<SCITEGIC>MOL_PROPERTY
W(SA)
SciTegic.value.DoubleValue
2.070

@<SCITEGIC>MOL_PROPERTY
Valence
SciTegic.value.DoubleValue
14.117

@<SCITEGIC>MOL_PROPERTY
Coulomb
SciTegic.value.DoubleValue
-1.228

@<SCITEGIC>MOL_PROPERTY
VdW
SciTegic.value.DoubleValue
0.974

@<SCITEGIC>MOL_PROPERTY
VdW6
SciTegic.value.DoubleValue
-4.885

@<SCITEGIC>MOL_PROPERTY
VdW12
SciTegic.value.DoubleValue
5.859

@<SCITEGIC>MOL_PROPERTY
Bond
SciTegic.value.DoubleValue
0.094

@<SCITEGIC>MOL_PROPERTY
Angle
SciTegic.value.DoubleValue
2.818

@<SCITEGIC>MOL_PROPERTY
Pdih
SciTegic.value.DoubleValue
11.205

@<SCITEGIC>MOL_PROPERTY
Idih
SciTegic.value.DoubleValue
0.000

@<SCITEGIC>MOL_PROPERTY
Tether
SciTegic.value.DoubleValue
0.000

@<TRIPOS>MOLECULE
guest-s20_confgen4.mol2 : confsearch ligand conformer 679
          17          16           1
SMALL
USER_CHARGES
 
@<TRIPOS>ATOM
       1    C1      20.572997   16.625853   20.630559 C.2        1 MOL1         0.6132
       2    O1      21.015773   17.066295   19.588075 O.co2      1 MOL1        -0.6749
       3    O2      21.053294   15.675540   21.216410 O.co2      1 MOL1        -0.6749
       4    C2      19.342802   17.292769   21.231951 C.3        1 MOL1        -0.1955
       5    H1      18.677639   16.501391   21.596319 H          1 MOL1         0.0733
       6    H2      18.809318   17.816187   20.429404 H          1 MOL1         0.0733
       7    C3      19.691037   18.242126   22.362534 C.2        1 MOL1        -0.1395
       8    H3      20.084806   17.769604   23.261913 H          1 MOL1         0.0816
       9    C4      19.548580   19.569516   22.299627 C.2        1 MOL1        -0.1394
      10    H4      19.159624   20.041904   21.398171 H          1 MOL1         0.0816
      11    C5      19.899180   20.514633   23.427089 C.3        1 MOL1        -0.1826
      12    H5      19.071521   21.217478   23.592952 H          1 MOL1         0.0736
      13    H6      20.034714   19.959778   24.365692 H          1 MOL1         0.0736
      14    C6      21.185735   21.301428   23.109722 C.3        1 MOL1        -0.2882
      15    H7      21.065107   21.896970   22.195280 H          1 MOL1         0.0749
      16    H8      21.435743   21.985302   23.931232 H          1 MOL1         0.0749
      17    H9      22.033705   20.619234   22.963989 H          1 MOL1         0.0749
@<TRIPOS>BOND
    1     1     2    1
    2     1     3    2
    3     1     4    1
    4     4     5    1
    5     4     6    1
    6     4     7    1
    7     7     8    1
    8     7     9    2
    9     9    10    1
   10     9    11    1
   11    11    12    1
   12    11    13    1
   13    11    14    1
   14    14    15    1
   15    14    16    1
   16    14    17    1
@<TRIPOS>SUBSTRUCTURE
       1 MOL1            1 RESIDUE      1      MOL     
@<SCITEGIC>MOL_PROPERTY
VConf Rank
SciTegic.value.IntegerValue
679

@<SCITEGIC>MOL_PROPERTY
Conf_Id
SciTegic.value.IntegerValue
7

@<SCITEGIC>MOL_PROPERTY
Delta U+W
SciTegic.value.DoubleValue
-0.041

@<SCITEGIC>MOL_PROPERTY
U+W
SciTegic.value.DoubleValue
-49.468

@<SCITEGIC>MOL_PROPERTY
Grad RMS
SciTegic.value.DoubleValue
0.000000

@<SCITEGIC>MOL_PROPERTY
U
SciTegic.value.DoubleValue
14.121

@<SCITEGIC>MOL_PROPERTY
W
SciTegic.value.DoubleValue
-63.589

@<SCITEGIC>MOL_PROPERTY
W(PB)
SciTegic.value.DoubleValue
-65.660

@<SCITEGIC>MOL_PROPERTY
W(SA)
SciTegic.value.DoubleValue
2.071

@<SCITEGIC>MOL_PROPERTY
Valence
SciTegic.value.DoubleValue
15.230

@<SCITEGIC>MOL_PROPERTY
Coulomb
SciTegic.value.DoubleValue
-1.333

@<SCITEGIC>MOL_PROPERTY
VdW
SciTegic.value.DoubleValue
0.224

@<SCITEGIC>MOL_PROPERTY
VdW6
SciTegic.value.DoubleValue
-4.212

@<SCITEGIC>MOL_PROPERTY
VdW12
SciTegic.value.DoubleValue
4.436

@<SCITEGIC>MOL_PROPERTY
Bond
SciTegic.value.DoubleValue
0.044

@<SCITEGIC>MOL_PROPERTY
Angle
SciTegic.value.DoubleValue
2.230

@<SCITEGIC>MOL_PROPERTY
Pdih
SciTegic.value.DoubleValue
12.956

@<SCITEGIC>MOL_PROPERTY
Idih
SciTegic.value.DoubleValue
0.000

@<SCITEGIC>MOL_PROPERTY
Tether
SciTegic.value.DoubleValue
0.000

@<TRIPOS>MOLECULE
guest-s20_confgen4.mol2 : confsearch ligand conformer 680
          17          16           1
SMALL
USER_CHARGES
 
@<TRIPOS>ATOM
       1    C1      18.903426   17.023485   21.234966 C.2        1 MOL1         0.6132
       2    O1      18.155469   16.730402   22.146917 O.co2      1 MOL1        -0.6749
       3    O2      19.702465   16.248720   20.746746 O.co2      1 MOL1        -0.6749
       4    C2      18.815353   18.431053   20.653097 C.3        1 MOL1        -0.1955
       5    H1      17.775001   18.765873   20.738728 H          1 MOL1         0.0733
       6    H2      19.022866   18.363796   19.578790 H          1 MOL1         0.0733
       7    C3      19.737161   19.463055   21.287225 C.2        1 MOL1        -0.1395
       8    H3      19.658355   20.460679   20.857013 H          1 MOL1         0.0816
       9    C4      20.595049   19.240848   22.290044 C.2        1 MOL1        -0.1394
      10    H4      20.692708   18.252944   22.738644 H          1 MOL1         0.0816
      11    C5      21.492212   20.303631   22.884629 C.3        1 MOL1        -0.1826
      12    H5      22.518653   19.920496   22.963029 H          1 MOL1         0.0736
      13    H6      21.533753   21.183893   22.228453 H          1 MOL1         0.0736
      14    C6      20.995348   20.730530   24.279592 C.3        1 MOL1        -0.2882
      15    H7      21.650699   21.500661   24.706760 H          1 MOL1         0.0749
      16    H8      19.978739   21.141407   24.222322 H          1 MOL1         0.0749
      17    H9      20.980150   19.875599   24.968302 H          1 MOL1         0.0749
@<TRIPOS>BOND
    1     1     2    1
    2     1     3    2
    3     1     4    1
    4     4     5    1
    5     4     6    1
    6     4     7    1
    7     7     8    1
    8     7     9    2
    9     9    10    1
   10     9    11    1
   11    11    12    1
   12    11    13    1
   13    11    14    1
   14    14    15    1
   15    14    16    1
   16    14    17    1
@<TRIPOS>SUBSTRUCTURE
       1 MOL1            1 RESIDUE      1      MOL     
@<SCITEGIC>MOL_PROPERTY
VConf Rank
SciTegic.value.IntegerValue
680

@<SCITEGIC>MOL_PROPERTY
Conf_Id
SciTegic.value.IntegerValue
39

@<SCITEGIC>MOL_PROPERTY
Delta U+W
SciTegic.value.DoubleValue
-0.422

@<SCITEGIC>MOL_PROPERTY
U+W
SciTegic.value.DoubleValue
-49.849

@<SCITEGIC>MOL_PROPERTY
Grad RMS
SciTegic.value.DoubleValue
0.000000

@<SCITEGIC>MOL_PROPERTY
U
SciTegic.value.DoubleValue
14.465

@<SCITEGIC>MOL_PROPERTY
W
SciTegic.value.DoubleValue
-64.314

@<SCITEGIC>MOL_PROPERTY
W(PB)
SciTegic.value.DoubleValue
-66.406

@<SCITEGIC>MOL_PROPERTY
W(SA)
SciTegic.value.DoubleValue
2.093

@<SCITEGIC>MOL_PROPERTY
Valence
SciTegic.value.DoubleValue
14.072

@<SCITEGIC>MOL_PROPERTY
Coulomb
SciTegic.value.DoubleValue
-0.199

@<SCITEGIC>MOL_PROPERTY
VdW
SciTegic.value.DoubleValue
0.592

@<SCITEGIC>MOL_PROPERTY
VdW6
SciTegic.value.DoubleValue
-5.019

@<SCITEGIC>MOL_PROPERTY
VdW12
SciTegic.value.DoubleValue
5.611

@<SCITEGIC>MOL_PROPERTY
Bond
SciTegic.value.DoubleValue
0.085

@<SCITEGIC>MOL_PROPERTY
Angle
SciTegic.value.DoubleValue
2.748

@<SCITEGIC>MOL_PROPERTY
Pdih
SciTegic.value.DoubleValue
11.238

@<SCITEGIC>MOL_PROPERTY
Idih
SciTegic.value.DoubleValue
0.001

@<SCITEGIC>MOL_PROPERTY
Tether
SciTegic.value.DoubleValue
0.000

@<TRIPOS>MOLECULE
guest-s20_confgen4.mol2 : confsearch ligand conformer 681
          17          16           1
SMALL
USER_CHARGES
 
@<TRIPOS>ATOM
       1    C1      18.786438   21.568145   23.838187 C.2        1 MOL1         0.6132
       2    O1      18.827098   22.690711   23.374341 O.co2      1 MOL1        -0.6749
       3    O2      18.951622   21.321630   25.016645 O.co2      1 MOL1        -0.6749
       4    C2      18.507806   20.409251   22.890066 C.3        1 MOL1        -0.1955
       5    H1      17.729549   20.730426   22.188160 H          1 MOL1         0.0733
       6    H2      18.090422   19.580513   23.474552 H          1 MOL1         0.0733
       7    C3      19.745031   19.969854   22.130493 C.2        1 MOL1        -0.1395
       8    H3      20.125101   20.688576   21.405106 H          1 MOL1         0.0816
       9    C4      20.358272   18.795790   22.308639 C.2        1 MOL1        -0.1394
      10    H4      19.979426   18.078800   23.036281 H          1 MOL1         0.0816
      11    C5      21.594082   18.360908   21.553011 C.3        1 MOL1        -0.1826
      12    H5      22.054345   19.218345   21.042930 H          1 MOL1         0.0736
      13    H6      22.342696   17.974463   22.257832 H          1 MOL1         0.0736
      14    C6      21.254809   17.272555   20.515977 C.3        1 MOL1        -0.2882
      15    H7      20.525993   17.645069   19.784088 H          1 MOL1         0.0749
      16    H8      22.155462   16.960606   19.971370 H          1 MOL1         0.0749
      17    H9      20.827563   16.386468   21.003563 H          1 MOL1         0.0749
@<TRIPOS>BOND
    1     1     2    1
    2     1     3    2
    3     1     4    1
    4     4     5    1
    5     4     6    1
    6     4     7    1
    7     7     8    1
    8     7     9    2
    9     9    10    1
   10     9    11    1
   11    11    12    1
   12    11    13    1
   13    11    14    1
   14    14    15    1
   15    14    16    1
   16    14    17    1
@<TRIPOS>SUBSTRUCTURE
       1 MOL1            1 RESIDUE      1      MOL     
@<SCITEGIC>MOL_PROPERTY
VConf Rank
SciTegic.value.IntegerValue
681

@<SCITEGIC>MOL_PROPERTY
Conf_Id
SciTegic.value.IntegerValue
38

@<SCITEGIC>MOL_PROPERTY
Delta U+W
SciTegic.value.DoubleValue
0.000

@<SCITEGIC>MOL_PROPERTY
U+W
SciTegic.value.DoubleValue
-49.427

@<SCITEGIC>MOL_PROPERTY
Grad RMS
SciTegic.value.DoubleValue
0.000000

@<SCITEGIC>MOL_PROPERTY
U
SciTegic.value.DoubleValue
13.666

@<SCITEGIC>MOL_PROPERTY
W
SciTegic.value.DoubleValue
-63.093

@<SCITEGIC>MOL_PROPERTY
W(PB)
SciTegic.value.DoubleValue
-65.225

@<SCITEGIC>MOL_PROPERTY
W(SA)
SciTegic.value.DoubleValue
2.132

@<SCITEGIC>MOL_PROPERTY
Valence
SciTegic.value.DoubleValue
15.226

@<SCITEGIC>MOL_PROPERTY
Coulomb
SciTegic.value.DoubleValue
-1.822

@<SCITEGIC>MOL_PROPERTY
VdW
SciTegic.value.DoubleValue
0.261

@<SCITEGIC>MOL_PROPERTY
VdW6
SciTegic.value.DoubleValue
-4.165

@<SCITEGIC>MOL_PROPERTY
VdW12
SciTegic.value.DoubleValue
4.426

@<SCITEGIC>MOL_PROPERTY
Bond
SciTegic.value.DoubleValue
0.044

@<SCITEGIC>MOL_PROPERTY
Angle
SciTegic.value.DoubleValue
2.229

@<SCITEGIC>MOL_PROPERTY
Pdih
SciTegic.value.DoubleValue
12.953

@<SCITEGIC>MOL_PROPERTY
Idih
SciTegic.value.DoubleValue
0.000

@<SCITEGIC>MOL_PROPERTY
Tether
SciTegic.value.DoubleValue
0.000

@<TRIPOS>MOLECULE
guest-s20_confgen4.mol2 : confsearch ligand conformer 682
          17          16           1
SMALL
USER_CHARGES
 
@<TRIPOS>ATOM
       1    C1      20.198530   21.809224   20.222310 C.2        1 MOL1         0.6132
       2    O1      19.507850   21.609132   19.242645 O.co2      1 MOL1        -0.6749
       3    O2      21.252046   22.414196   20.189586 O.co2      1 MOL1        -0.6749
       4    C2      19.716853   21.278524   21.566167 C.3        1 MOL1        -0.1955
       5    H1      18.627969   21.157856   21.517076 H          1 MOL1         0.0733
       6    H2      19.920627   22.045929   22.321860 H          1 MOL1         0.0733
       7    C3      20.391363   19.975806   21.951792 C.2        1 MOL1        -0.1395
       8    H3      21.454904   20.051419   22.176213 H          1 MOL1         0.0816
       9    C4      19.764759   18.797334   22.021072 C.2        1 MOL1        -0.1394
      10    H4      18.701954   18.721893   21.793442 H          1 MOL1         0.0816
      11    C5      20.439836   17.498668   22.401936 C.3        1 MOL1        -0.1826
      12    H5      20.174171   16.716540   21.677898 H          1 MOL1         0.0736
      13    H6      21.532462   17.607275   22.362018 H          1 MOL1         0.0736
      14    C6      20.023056   17.051960   23.816788 C.3        1 MOL1        -0.2882
      15    H7      18.937498   16.898401   23.875201 H          1 MOL1         0.0749
      16    H8      20.515475   16.108847   24.087246 H          1 MOL1         0.0749
      17    H9      20.302171   17.808099   24.562408 H          1 MOL1         0.0749
@<TRIPOS>BOND
    1     1     2    1
    2     1     3    2
    3     1     4    1
    4     4     5    1
    5     4     6    1
    6     4     7    1
    7     7     8    1
    8     7     9    2
    9     9    10    1
   10     9    11    1
   11    11    12    1
   12    11    13    1
   13    11    14    1
   14    14    15    1
   15    14    16    1
   16    14    17    1
@<TRIPOS>SUBSTRUCTURE
       1 MOL1            1 RESIDUE      1      MOL     
@<SCITEGIC>MOL_PROPERTY
VConf Rank
SciTegic.value.IntegerValue
682

@<SCITEGIC>MOL_PROPERTY
Conf_Id
SciTegic.value.IntegerValue
35

@<SCITEGIC>MOL_PROPERTY
Delta U+W
SciTegic.value.DoubleValue
-0.102

@<SCITEGIC>MOL_PROPERTY
U+W
SciTegic.value.DoubleValue
-49.529

@<SCITEGIC>MOL_PROPERTY
Grad RMS
SciTegic.value.DoubleValue
0.000000

@<SCITEGIC>MOL_PROPERTY
U
SciTegic.value.DoubleValue
13.666

@<SCITEGIC>MOL_PROPERTY
W
SciTegic.value.DoubleValue
-63.195

@<SCITEGIC>MOL_PROPERTY
W(PB)
SciTegic.value.DoubleValue
-65.299

@<SCITEGIC>MOL_PROPERTY
W(SA)
SciTegic.value.DoubleValue
2.103

@<SCITEGIC>MOL_PROPERTY
Valence
SciTegic.value.DoubleValue
15.226

@<SCITEGIC>MOL_PROPERTY
Coulomb
SciTegic.value.DoubleValue
-1.822

@<SCITEGIC>MOL_PROPERTY
VdW
SciTegic.value.DoubleValue
0.261

@<SCITEGIC>MOL_PROPERTY
VdW6
SciTegic.value.DoubleValue
-4.165

@<SCITEGIC>MOL_PROPERTY
VdW12
SciTegic.value.DoubleValue
4.426

@<SCITEGIC>MOL_PROPERTY
Bond
SciTegic.value.DoubleValue
0.044

@<SCITEGIC>MOL_PROPERTY
Angle
SciTegic.value.DoubleValue
2.229

@<SCITEGIC>MOL_PROPERTY
Pdih
SciTegic.value.DoubleValue
12.953

@<SCITEGIC>MOL_PROPERTY
Idih
SciTegic.value.DoubleValue
0.000

@<SCITEGIC>MOL_PROPERTY
Tether
SciTegic.value.DoubleValue
0.000

@<TRIPOS>MOLECULE
guest-s20_confgen4.mol2 : confsearch ligand conformer 683
          17          16           1
SMALL
USER_CHARGES
 
@<TRIPOS>ATOM
       1    C1      22.152659   21.315922   22.461900 C.2        1 MOL1         0.6132
       2    O1      22.313393   21.851534   21.382893 O.co2      1 MOL1        -0.6749
       3    O2      21.987784   21.928639   23.498357 O.co2      1 MOL1        -0.6749
       4    C2      22.168508   19.793963   22.517430 C.3        1 MOL1        -0.1955
       5    H1      22.443242   19.490779   23.534871 H          1 MOL1         0.0733
       6    H2      22.965930   19.443029   21.852243 H          1 MOL1         0.0733
       7    C3      20.841655   19.184249   22.106192 C.2        1 MOL1        -0.1395
       8    H3      20.586939   19.316509   21.056089 H          1 MOL1         0.0816
       9    C4      20.025565   18.534998   22.945943 C.2        1 MOL1        -0.1394
      10    H4      20.312198   18.426167   23.991449 H          1 MOL1         0.0816
      11    C5      18.685755   17.905242   22.604029 C.3        1 MOL1        -0.1826
      12    H5      18.716404   16.838391   22.863633 H          1 MOL1         0.0736
      13    H6      17.911346   18.343478   23.248048 H          1 MOL1         0.0736
      14    C6      18.254073   18.051665   21.128143 C.3        1 MOL1        -0.2882
      15    H7      18.980185   17.575654   20.456148 H          1 MOL1         0.0749
      16    H8      17.279768   17.573695   20.962906 H          1 MOL1         0.0749
      17    H9      18.161462   19.109210   20.847945 H          1 MOL1         0.0749
@<TRIPOS>BOND
    1     1     2    1
    2     1     3    2
    3     1     4    1
    4     4     5    1
    5     4     6    1
    6     4     7    1
    7     7     8    1
    8     7     9    2
    9     9    10    1
   10     9    11    1
   11    11    12    1
   12    11    13    1
   13    11    14    1
   14    14    15    1
   15    14    16    1
   16    14    17    1
@<TRIPOS>SUBSTRUCTURE
       1 MOL1            1 RESIDUE      1      MOL     
@<SCITEGIC>MOL_PROPERTY
VConf Rank
SciTegic.value.IntegerValue
683

@<SCITEGIC>MOL_PROPERTY
Conf_Id
SciTegic.value.IntegerValue
19

@<SCITEGIC>MOL_PROPERTY
Delta U+W
SciTegic.value.DoubleValue
-0.496

@<SCITEGIC>MOL_PROPERTY
U+W
SciTegic.value.DoubleValue
-49.923

@<SCITEGIC>MOL_PROPERTY
Grad RMS
SciTegic.value.DoubleValue
0.000000

@<SCITEGIC>MOL_PROPERTY
U
SciTegic.value.DoubleValue
13.863

@<SCITEGIC>MOL_PROPERTY
W
SciTegic.value.DoubleValue
-63.786

@<SCITEGIC>MOL_PROPERTY
W(PB)
SciTegic.value.DoubleValue
-65.856

@<SCITEGIC>MOL_PROPERTY
W(SA)
SciTegic.value.DoubleValue
2.070

@<SCITEGIC>MOL_PROPERTY
Valence
SciTegic.value.DoubleValue
14.117

@<SCITEGIC>MOL_PROPERTY
Coulomb
SciTegic.value.DoubleValue
-1.228

@<SCITEGIC>MOL_PROPERTY
VdW
SciTegic.value.DoubleValue
0.974

@<SCITEGIC>MOL_PROPERTY
VdW6
SciTegic.value.DoubleValue
-4.885

@<SCITEGIC>MOL_PROPERTY
VdW12
SciTegic.value.DoubleValue
5.859

@<SCITEGIC>MOL_PROPERTY
Bond
SciTegic.value.DoubleValue
0.094

@<SCITEGIC>MOL_PROPERTY
Angle
SciTegic.value.DoubleValue
2.818

@<SCITEGIC>MOL_PROPERTY
Pdih
SciTegic.value.DoubleValue
11.205

@<SCITEGIC>MOL_PROPERTY
Idih
SciTegic.value.DoubleValue
0.000

@<SCITEGIC>MOL_PROPERTY
Tether
SciTegic.value.DoubleValue
0.000

@<TRIPOS>MOLECULE
guest-s20_confgen4.mol2 : confsearch ligand conformer 684
          17          16           1
SMALL
USER_CHARGES
 
@<TRIPOS>ATOM
       1    C1      20.113329   19.048461   19.276269 C.2        1 MOL1         0.6132
       2    O1      19.163286   19.764570   19.028443 O.co2      1 MOL1        -0.6749
       3    O2      21.188665   19.141394   18.717683 O.co2      1 MOL1        -0.6749
       4    C2      19.946339   17.967960   20.336674 C.3        1 MOL1        -0.1955
       5    H1      20.433813   17.058372   19.967210 H          1 MOL1         0.0733
       6    H2      18.877247   17.743019   20.432055 H          1 MOL1         0.0733
       7    C3      20.538730   18.370011   21.673907 C.2        1 MOL1        -0.1395
       8    H3      21.624383   18.460565   21.693213 H          1 MOL1         0.0816
       9    C4      19.817399   18.613120   22.772450 C.2        1 MOL1        -0.1394
      10    H4      18.731459   18.527432   22.751211 H          1 MOL1         0.0816
      11    C5      20.409875   19.016760   24.104134 C.3        1 MOL1        -0.1826
      12    H5      19.978368   18.400289   24.904314 H          1 MOL1         0.0736
      13    H6      21.493186   18.833612   24.114230 H          1 MOL1         0.0736
      14    C6      20.141736   20.505088   24.400733 C.3        1 MOL1        -0.2882
      15    H7      19.063569   20.709534   24.435149 H          1 MOL1         0.0749
      16    H8      20.574133   20.792716   25.367879 H          1 MOL1         0.0749
      17    H9      20.586060   21.143104   23.625367 H          1 MOL1         0.0749
@<TRIPOS>BOND
    1     1     2    1
    2     1     3    2
    3     1     4    1
    4     4     5    1
    5     4     6    1
    6     4     7    1
    7     7     8    1
    8     7     9    2
    9     9    10    1
   10     9    11    1
   11    11    12    1
   12    11    13    1
   13    11    14    1
   14    14    15    1
   15    14    16    1
   16    14    17    1
@<TRIPOS>SUBSTRUCTURE
       1 MOL1            1 RESIDUE      1      MOL     
@<SCITEGIC>MOL_PROPERTY
VConf Rank
SciTegic.value.IntegerValue
684

@<SCITEGIC>MOL_PROPERTY
Conf_Id
SciTegic.value.IntegerValue
7

@<SCITEGIC>MOL_PROPERTY
Delta U+W
SciTegic.value.DoubleValue
-0.041

@<SCITEGIC>MOL_PROPERTY
U+W
SciTegic.value.DoubleValue
-49.468

@<SCITEGIC>MOL_PROPERTY
Grad RMS
SciTegic.value.DoubleValue
0.000000

@<SCITEGIC>MOL_PROPERTY
U
SciTegic.value.DoubleValue
14.121

@<SCITEGIC>MOL_PROPERTY
W
SciTegic.value.DoubleValue
-63.589

@<SCITEGIC>MOL_PROPERTY
W(PB)
SciTegic.value.DoubleValue
-65.660

@<SCITEGIC>MOL_PROPERTY
W(SA)
SciTegic.value.DoubleValue
2.071

@<SCITEGIC>MOL_PROPERTY
Valence
SciTegic.value.DoubleValue
15.230

@<SCITEGIC>MOL_PROPERTY
Coulomb
SciTegic.value.DoubleValue
-1.333

@<SCITEGIC>MOL_PROPERTY
VdW
SciTegic.value.DoubleValue
0.224

@<SCITEGIC>MOL_PROPERTY
VdW6
SciTegic.value.DoubleValue
-4.212

@<SCITEGIC>MOL_PROPERTY
VdW12
SciTegic.value.DoubleValue
4.436

@<SCITEGIC>MOL_PROPERTY
Bond
SciTegic.value.DoubleValue
0.044

@<SCITEGIC>MOL_PROPERTY
Angle
SciTegic.value.DoubleValue
2.230

@<SCITEGIC>MOL_PROPERTY
Pdih
SciTegic.value.DoubleValue
12.956

@<SCITEGIC>MOL_PROPERTY
Idih
SciTegic.value.DoubleValue
0.000

@<SCITEGIC>MOL_PROPERTY
Tether
SciTegic.value.DoubleValue
0.000

@<TRIPOS>MOLECULE
guest-s20_confgen4.mol2 : confsearch ligand conformer 685
          17          16           1
SMALL
USER_CHARGES
 
@<TRIPOS>ATOM
       1    C1      21.946768   18.565100   20.310477 C.2        1 MOL1         0.6132
       2    O1      22.673195   17.814508   20.931693 O.co2      1 MOL1        -0.6749
       3    O2      22.350433   19.528646   19.689416 O.co2      1 MOL1        -0.6749
       4    C2      20.450956   18.265905   20.285896 C.3        1 MOL1        -0.1955
       5    H1      20.324600   17.178299   20.339886 H          1 MOL1         0.0733
       6    H2      20.064684   18.565864   19.304805 H          1 MOL1         0.0733
       7    C3      19.629968   18.929838   21.382276 C.2        1 MOL1        -0.1395
       8    H3      18.565147   18.703125   21.346170 H          1 MOL1         0.0816
       9    C4      20.103323   19.732590   22.342755 C.2        1 MOL1        -0.1394
      10    H4      21.163830   19.974548   22.402035 H          1 MOL1         0.0816
      11    C5      19.242344   20.369822   23.410740 C.3        1 MOL1        -0.1826
      12    H5      19.478531   21.439805   23.487365 H          1 MOL1         0.0736
      13    H6      18.179543   20.300314   23.140968 H          1 MOL1         0.0736
      14    C6      19.466496   19.695129   24.778067 C.3        1 MOL1        -0.2882
      15    H7      18.840433   20.162309   25.549330 H          1 MOL1         0.0749
      16    H8      19.211915   18.628026   24.732524 H          1 MOL1         0.0749
      17    H9      20.515238   19.783244   25.090852 H          1 MOL1         0.0749
@<TRIPOS>BOND
    1     1     2    1
    2     1     3    2
    3     1     4    1
    4     4     5    1
    5     4     6    1
    6     4     7    1
    7     7     8    1
    8     7     9    2
    9     9    10    1
   10     9    11    1
   11    11    12    1
   12    11    13    1
   13    11    14    1
   14    14    15    1
   15    14    16    1
   16    14    17    1
@<TRIPOS>SUBSTRUCTURE
       1 MOL1            1 RESIDUE      1      MOL     
@<SCITEGIC>MOL_PROPERTY
VConf Rank
SciTegic.value.IntegerValue
685

@<SCITEGIC>MOL_PROPERTY
Conf_Id
SciTegic.value.IntegerValue
39

@<SCITEGIC>MOL_PROPERTY
Delta U+W
SciTegic.value.DoubleValue
-0.422

@<SCITEGIC>MOL_PROPERTY
U+W
SciTegic.value.DoubleValue
-49.849

@<SCITEGIC>MOL_PROPERTY
Grad RMS
SciTegic.value.DoubleValue
0.000000

@<SCITEGIC>MOL_PROPERTY
U
SciTegic.value.DoubleValue
14.465

@<SCITEGIC>MOL_PROPERTY
W
SciTegic.value.DoubleValue
-64.314

@<SCITEGIC>MOL_PROPERTY
W(PB)
SciTegic.value.DoubleValue
-66.406

@<SCITEGIC>MOL_PROPERTY
W(SA)
SciTegic.value.DoubleValue
2.093

@<SCITEGIC>MOL_PROPERTY
Valence
SciTegic.value.DoubleValue
14.072

@<SCITEGIC>MOL_PROPERTY
Coulomb
SciTegic.value.DoubleValue
-0.199

@<SCITEGIC>MOL_PROPERTY
VdW
SciTegic.value.DoubleValue
0.592

@<SCITEGIC>MOL_PROPERTY
VdW6
SciTegic.value.DoubleValue
-5.019

@<SCITEGIC>MOL_PROPERTY
VdW12
SciTegic.value.DoubleValue
5.611

@<SCITEGIC>MOL_PROPERTY
Bond
SciTegic.value.DoubleValue
0.085

@<SCITEGIC>MOL_PROPERTY
Angle
SciTegic.value.DoubleValue
2.748

@<SCITEGIC>MOL_PROPERTY
Pdih
SciTegic.value.DoubleValue
11.238

@<SCITEGIC>MOL_PROPERTY
Idih
SciTegic.value.DoubleValue
0.001

@<SCITEGIC>MOL_PROPERTY
Tether
SciTegic.value.DoubleValue
0.000

@<TRIPOS>MOLECULE
guest-s20_confgen4.mol2 : confsearch ligand conformer 686
          17          16           1
SMALL
USER_CHARGES
 
@<TRIPOS>ATOM
       1    C1      18.609371   22.054480   21.919390 C.2        1 MOL1         0.6132
       2    O1      18.573756   22.721055   22.934953 O.co2      1 MOL1        -0.6749
       3    O2      17.674083   21.950981   21.150401 O.co2      1 MOL1        -0.6749
       4    C2      19.899128   21.313687   21.591736 C.3        1 MOL1        -0.1955
       5    H1      20.737163   21.979321   21.828672 H          1 MOL1         0.0733
       6    H2      19.927059   21.135351   20.510045 H          1 MOL1         0.0733
       7    C3      20.033457   20.013208   22.360797 C.2        1 MOL1        -0.1395
       8    H3      20.173868   20.121069   23.435903 H          1 MOL1         0.0816
       9    C4      19.986224   18.800831   21.800317 C.2        1 MOL1        -0.1394
      10    H4      19.842813   18.693631   20.725607 H          1 MOL1         0.0816
      11    C5      20.116579   17.505060   22.569282 C.3        1 MOL1        -0.1826
      12    H5      19.998200   17.683987   23.646868 H          1 MOL1         0.0736
      13    H6      19.313406   16.816387   22.274023 H          1 MOL1         0.0736
      14    C6      21.483272   16.841943   22.309498 C.3        1 MOL1        -0.2882
      15    H7      22.302812   17.502774   22.621360 H          1 MOL1         0.0749
      16    H8      21.571725   15.901948   22.869561 H          1 MOL1         0.0749
      17    H9      21.612794   16.616394   21.242830 H          1 MOL1         0.0749
@<TRIPOS>BOND
    1     1     2    1
    2     1     3    2
    3     1     4    1
    4     4     5    1
    5     4     6    1
    6     4     7    1
    7     7     8    1
    8     7     9    2
    9     9    10    1
   10     9    11    1
   11    11    12    1
   12    11    13    1
   13    11    14    1
   14    14    15    1
   15    14    16    1
   16    14    17    1
@<TRIPOS>SUBSTRUCTURE
       1 MOL1            1 RESIDUE      1      MOL     
@<SCITEGIC>MOL_PROPERTY
VConf Rank
SciTegic.value.IntegerValue
686

@<SCITEGIC>MOL_PROPERTY
Conf_Id
SciTegic.value.IntegerValue
38

@<SCITEGIC>MOL_PROPERTY
Delta U+W
SciTegic.value.DoubleValue
0.000

@<SCITEGIC>MOL_PROPERTY
U+W
SciTegic.value.DoubleValue
-49.427

@<SCITEGIC>MOL_PROPERTY
Grad RMS
SciTegic.value.DoubleValue
0.000000

@<SCITEGIC>MOL_PROPERTY
U
SciTegic.value.DoubleValue
13.666

@<SCITEGIC>MOL_PROPERTY
W
SciTegic.value.DoubleValue
-63.093

@<SCITEGIC>MOL_PROPERTY
W(PB)
SciTegic.value.DoubleValue
-65.225

@<SCITEGIC>MOL_PROPERTY
W(SA)
SciTegic.value.DoubleValue
2.132

@<SCITEGIC>MOL_PROPERTY
Valence
SciTegic.value.DoubleValue
15.226

@<SCITEGIC>MOL_PROPERTY
Coulomb
SciTegic.value.DoubleValue
-1.822

@<SCITEGIC>MOL_PROPERTY
VdW
SciTegic.value.DoubleValue
0.261

@<SCITEGIC>MOL_PROPERTY
VdW6
SciTegic.value.DoubleValue
-4.165

@<SCITEGIC>MOL_PROPERTY
VdW12
SciTegic.value.DoubleValue
4.426

@<SCITEGIC>MOL_PROPERTY
Bond
SciTegic.value.DoubleValue
0.044

@<SCITEGIC>MOL_PROPERTY
Angle
SciTegic.value.DoubleValue
2.229

@<SCITEGIC>MOL_PROPERTY
Pdih
SciTegic.value.DoubleValue
12.953

@<SCITEGIC>MOL_PROPERTY
Idih
SciTegic.value.DoubleValue
0.000

@<SCITEGIC>MOL_PROPERTY
Tether
SciTegic.value.DoubleValue
0.000

@<TRIPOS>MOLECULE
guest-s20_confgen4.mol2 : confsearch ligand conformer 687
          17          16           1
SMALL
USER_CHARGES
 
@<TRIPOS>ATOM
       1    C1      21.936915   20.244663   24.479105 C.2        1 MOL1         0.6132
       2    O1      21.564852   19.725311   25.512866 O.co2      1 MOL1        -0.6749
       3    O2      22.350108   21.385539   24.411020 O.co2      1 MOL1        -0.6749
       4    C2      21.888713   19.420969   23.198946 C.3        1 MOL1        -0.1955
       5    H1      21.915834   18.359402   23.472773 H          1 MOL1         0.0733
       6    H2      22.803404   19.629285   22.631979 H          1 MOL1         0.0733
       7    C3      20.669097   19.733197   22.352900 C.2        1 MOL1        -0.1395
       8    H3      20.653240   20.728223   21.909196 H          1 MOL1         0.0816
       9    C4      19.662195   18.879813   22.142867 C.2        1 MOL1        -0.1394
      10    H4      19.677189   17.886135   22.589453 H          1 MOL1         0.0816
      11    C5      18.444968   19.194303   21.302167 C.3        1 MOL1        -0.1826
      12    H5      17.534256   18.917561   21.850390 H          1 MOL1         0.0736
      13    H6      18.380344   20.273822   21.108046 H          1 MOL1         0.0736
      14    C6      18.487434   18.436552   19.960873 C.3        1 MOL1        -0.2882
      15    H7      18.513779   17.351253   20.124762 H          1 MOL1         0.0749
      16    H8      17.601395   18.668179   19.355587 H          1 MOL1         0.0749
      17    H9      19.377802   18.716898   19.382728 H          1 MOL1         0.0749
@<TRIPOS>BOND
    1     1     2    1
    2     1     3    2
    3     1     4    1
    4     4     5    1
    5     4     6    1
    6     4     7    1
    7     7     8    1
    8     7     9    2
    9     9    10    1
   10     9    11    1
   11    11    12    1
   12    11    13    1
   13    11    14    1
   14    14    15    1
   15    14    16    1
   16    14    17    1
@<TRIPOS>SUBSTRUCTURE
       1 MOL1            1 RESIDUE      1      MOL     
@<SCITEGIC>MOL_PROPERTY
VConf Rank
SciTegic.value.IntegerValue
687

@<SCITEGIC>MOL_PROPERTY
Conf_Id
SciTegic.value.IntegerValue
35

@<SCITEGIC>MOL_PROPERTY
Delta U+W
SciTegic.value.DoubleValue
-0.102

@<SCITEGIC>MOL_PROPERTY
U+W
SciTegic.value.DoubleValue
-49.529

@<SCITEGIC>MOL_PROPERTY
Grad RMS
SciTegic.value.DoubleValue
0.000000

@<SCITEGIC>MOL_PROPERTY
U
SciTegic.value.DoubleValue
13.666

@<SCITEGIC>MOL_PROPERTY
W
SciTegic.value.DoubleValue
-63.195

@<SCITEGIC>MOL_PROPERTY
W(PB)
SciTegic.value.DoubleValue
-65.299

@<SCITEGIC>MOL_PROPERTY
W(SA)
SciTegic.value.DoubleValue
2.103

@<SCITEGIC>MOL_PROPERTY
Valence
SciTegic.value.DoubleValue
15.226

@<SCITEGIC>MOL_PROPERTY
Coulomb
SciTegic.value.DoubleValue
-1.822

@<SCITEGIC>MOL_PROPERTY
VdW
SciTegic.value.DoubleValue
0.261

@<SCITEGIC>MOL_PROPERTY
VdW6
SciTegic.value.DoubleValue
-4.165

@<SCITEGIC>MOL_PROPERTY
VdW12
SciTegic.value.DoubleValue
4.426

@<SCITEGIC>MOL_PROPERTY
Bond
SciTegic.value.DoubleValue
0.044

@<SCITEGIC>MOL_PROPERTY
Angle
SciTegic.value.DoubleValue
2.229

@<SCITEGIC>MOL_PROPERTY
Pdih
SciTegic.value.DoubleValue
12.953

@<SCITEGIC>MOL_PROPERTY
Idih
SciTegic.value.DoubleValue
0.000

@<SCITEGIC>MOL_PROPERTY
Tether
SciTegic.value.DoubleValue
0.000

@<TRIPOS>MOLECULE
guest-s20_confgen4.mol2 : confsearch ligand conformer 688
          17          16           1
SMALL
USER_CHARGES
 
@<TRIPOS>ATOM
       1    C1      21.325287   17.410795   24.357586 C.2        1 MOL1         0.6132
       2    O1      22.352359   16.880579   23.982134 O.co2      1 MOL1        -0.6749
       3    O2      21.201022   17.941057   25.443970 O.co2      1 MOL1        -0.6749
       4    C2      20.126938   17.400749   23.417611 C.3        1 MOL1        -0.1955
       5    H1      19.217047   17.504558   24.020858 H          1 MOL1         0.0733
       6    H2      20.084144   16.414903   22.940342 H          1 MOL1         0.0733
       7    C3      20.208219   18.487081   22.361826 C.2        1 MOL1        -0.1395
       8    H3      21.003039   18.351217   21.630463 H          1 MOL1         0.0816
       9    C4      19.386264   19.542805   22.311349 C.2        1 MOL1        -0.1394
      10    H4      18.604962   19.647451   23.063480 H          1 MOL1         0.0816
      11    C5      19.413110   20.665802   21.288242 C.3        1 MOL1        -0.1826
      12    H5      18.434882   20.719333   20.791543 H          1 MOL1         0.0736
      13    H6      19.530195   21.623459   21.813318 H          1 MOL1         0.0736
      14    C6      20.516590   20.543280   20.214302 C.3        1 MOL1        -0.2882
      15    H7      20.398465   19.620366   19.631484 H          1 MOL1         0.0749
      16    H8      20.470260   21.389511   19.516608 H          1 MOL1         0.0749
      17    H9      21.514079   20.540174   20.673101 H          1 MOL1         0.0749
@<TRIPOS>BOND
    1     1     2    1
    2     1     3    2
    3     1     4    1
    4     4     5    1
    5     4     6    1
    6     4     7    1
    7     7     8    1
    8     7     9    2
    9     9    10    1
   10     9    11    1
   11    11    12    1
   12    11    13    1
   13    11    14    1
   14    14    15    1
   15    14    16    1
   16    14    17    1
@<TRIPOS>SUBSTRUCTURE
       1 MOL1            1 RESIDUE      1      MOL     
@<SCITEGIC>MOL_PROPERTY
VConf Rank
SciTegic.value.IntegerValue
688

@<SCITEGIC>MOL_PROPERTY
Conf_Id
SciTegic.value.IntegerValue
19

@<SCITEGIC>MOL_PROPERTY
Delta U+W
SciTegic.value.DoubleValue
-0.496

@<SCITEGIC>MOL_PROPERTY
U+W
SciTegic.value.DoubleValue
-49.923

@<SCITEGIC>MOL_PROPERTY
Grad RMS
SciTegic.value.DoubleValue
0.000000

@<SCITEGIC>MOL_PROPERTY
U
SciTegic.value.DoubleValue
13.863

@<SCITEGIC>MOL_PROPERTY
W
SciTegic.value.DoubleValue
-63.786

@<SCITEGIC>MOL_PROPERTY
W(PB)
SciTegic.value.DoubleValue
-65.856

@<SCITEGIC>MOL_PROPERTY
W(SA)
SciTegic.value.DoubleValue
2.070

@<SCITEGIC>MOL_PROPERTY
Valence
SciTegic.value.DoubleValue
14.117

@<SCITEGIC>MOL_PROPERTY
Coulomb
SciTegic.value.DoubleValue
-1.228

@<SCITEGIC>MOL_PROPERTY
VdW
SciTegic.value.DoubleValue
0.974

@<SCITEGIC>MOL_PROPERTY
VdW6
SciTegic.value.DoubleValue
-4.885

@<SCITEGIC>MOL_PROPERTY
VdW12
SciTegic.value.DoubleValue
5.859

@<SCITEGIC>MOL_PROPERTY
Bond
SciTegic.value.DoubleValue
0.094

@<SCITEGIC>MOL_PROPERTY
Angle
SciTegic.value.DoubleValue
2.818

@<SCITEGIC>MOL_PROPERTY
Pdih
SciTegic.value.DoubleValue
11.205

@<SCITEGIC>MOL_PROPERTY
Idih
SciTegic.value.DoubleValue
0.000

@<SCITEGIC>MOL_PROPERTY
Tether
SciTegic.value.DoubleValue
0.000

@<TRIPOS>MOLECULE
guest-s20_confgen4.mol2 : confsearch ligand conformer 689
          17          16           1
SMALL
USER_CHARGES
 
@<TRIPOS>ATOM
       1    C1      19.716702   16.340286   21.209830 C.2        1 MOL1         0.6132
       2    O1      19.717682   16.504666   20.005758 O.co2      1 MOL1        -0.6749
       3    O2      20.330826   15.451974   21.767284 O.co2      1 MOL1        -0.6749
       4    C2      18.893131   17.291532   22.068137 C.3        1 MOL1        -0.1955
       5    H1      18.386259   16.695661   22.835929 H          1 MOL1         0.0733
       6    H2      18.112334   17.733832   21.437757 H          1 MOL1         0.0733
       7    C3      19.740700   18.367817   22.719291 C.2        1 MOL1        -0.1395
       8    H3      20.438078   18.014745   23.478382 H          1 MOL1         0.0816
       9    C4      19.674948   19.666092   22.408849 C.2        1 MOL1        -0.1394
      10    H4      18.981074   20.017894   21.646069 H          1 MOL1         0.0816
      11    C5      20.523089   20.737313   23.057292 C.3        1 MOL1        -0.1826
      12    H5      19.887489   21.579519   23.362617 H          1 MOL1         0.0736
      13    H6      20.996615   20.352096   23.970850 H          1 MOL1         0.0736
      14    C6      21.613360   21.240152   22.091138 C.3        1 MOL1        -0.2882
      15    H7      21.166101   21.666989   21.183837 H          1 MOL1         0.0749
      16    H8      22.226073   22.016907   22.566848 H          1 MOL1         0.0749
      17    H9      22.277117   20.418534   21.791052 H          1 MOL1         0.0749
@<TRIPOS>BOND
    1     1     2    1
    2     1     3    2
    3     1     4    1
    4     4     5    1
    5     4     6    1
    6     4     7    1
    7     7     8    1
    8     7     9    2
    9     9    10    1
   10     9    11    1
   11    11    12    1
   12    11    13    1
   13    11    14    1
   14    14    15    1
   15    14    16    1
   16    14    17    1
@<TRIPOS>SUBSTRUCTURE
       1 MOL1            1 RESIDUE      1      MOL     
@<SCITEGIC>MOL_PROPERTY
VConf Rank
SciTegic.value.IntegerValue
689

@<SCITEGIC>MOL_PROPERTY
Conf_Id
SciTegic.value.IntegerValue
7

@<SCITEGIC>MOL_PROPERTY
Delta U+W
SciTegic.value.DoubleValue
-0.041

@<SCITEGIC>MOL_PROPERTY
U+W
SciTegic.value.DoubleValue
-49.468

@<SCITEGIC>MOL_PROPERTY
Grad RMS
SciTegic.value.DoubleValue
0.000000

@<SCITEGIC>MOL_PROPERTY
U
SciTegic.value.DoubleValue
14.121

@<SCITEGIC>MOL_PROPERTY
W
SciTegic.value.DoubleValue
-63.589

@<SCITEGIC>MOL_PROPERTY
W(PB)
SciTegic.value.DoubleValue
-65.660

@<SCITEGIC>MOL_PROPERTY
W(SA)
SciTegic.value.DoubleValue
2.071

@<SCITEGIC>MOL_PROPERTY
Valence
SciTegic.value.DoubleValue
15.230

@<SCITEGIC>MOL_PROPERTY
Coulomb
SciTegic.value.DoubleValue
-1.333

@<SCITEGIC>MOL_PROPERTY
VdW
SciTegic.value.DoubleValue
0.224

@<SCITEGIC>MOL_PROPERTY
VdW6
SciTegic.value.DoubleValue
-4.212

@<SCITEGIC>MOL_PROPERTY
VdW12
SciTegic.value.DoubleValue
4.436

@<SCITEGIC>MOL_PROPERTY
Bond
SciTegic.value.DoubleValue
0.044

@<SCITEGIC>MOL_PROPERTY
Angle
SciTegic.value.DoubleValue
2.230

@<SCITEGIC>MOL_PROPERTY
Pdih
SciTegic.value.DoubleValue
12.956

@<SCITEGIC>MOL_PROPERTY
Idih
SciTegic.value.DoubleValue
0.000

@<SCITEGIC>MOL_PROPERTY
Tether
SciTegic.value.DoubleValue
0.000

@<TRIPOS>MOLECULE
guest-s20_confgen4.mol2 : confsearch ligand conformer 690
          17          16           1
SMALL
USER_CHARGES
 
@<TRIPOS>ATOM
       1    C1      21.403837   19.948022   19.910815 C.2        1 MOL1         0.6132
       2    O1      20.489710   20.456476   19.292076 O.co2      1 MOL1        -0.6749
       3    O2      22.081839   19.036618   19.478682 O.co2      1 MOL1        -0.6749
       4    C2      21.736164   20.501988   21.292936 C.3        1 MOL1        -0.1955
       5    H1      21.504567   21.573494   21.290383 H          1 MOL1         0.0733
       6    H2      22.821033   20.428454   21.432117 H          1 MOL1         0.0733
       7    C3      21.025389   19.829285   22.458761 C.2        1 MOL1        -0.1395
       8    H3      21.276966   20.239857   23.435841 H          1 MOL1         0.0816
       9    C4      20.152989   18.818275   22.370597 C.2        1 MOL1        -0.1394
      10    H4      19.883423   18.390047   21.405875 H          1 MOL1         0.0816
      11    C5      19.473809   18.182853   23.563448 C.3        1 MOL1        -0.1826
      12    H5      19.550975   17.089316   23.494590 H          1 MOL1         0.0736
      13    H6      19.977360   18.476198   24.494866 H          1 MOL1         0.0736
      14    C6      17.989090   18.589411   23.636637 C.3        1 MOL1        -0.2882
      15    H7      17.501022   18.124473   24.503055 H          1 MOL1         0.0749
      16    H8      17.887478   19.678539   23.731872 H          1 MOL1         0.0749
      17    H9      17.451755   18.273767   22.732703 H          1 MOL1         0.0749
@<TRIPOS>BOND
    1     1     2    1
    2     1     3    2
    3     1     4    1
    4     4     5    1
    5     4     6    1
    6     4     7    1
    7     7     8    1
    8     7     9    2
    9     9    10    1
   10     9    11    1
   11    11    12    1
   12    11    13    1
   13    11    14    1
   14    14    15    1
   15    14    16    1
   16    14    17    1
@<TRIPOS>SUBSTRUCTURE
       1 MOL1            1 RESIDUE      1      MOL     
@<SCITEGIC>MOL_PROPERTY
VConf Rank
SciTegic.value.IntegerValue
690

@<SCITEGIC>MOL_PROPERTY
Conf_Id
SciTegic.value.IntegerValue
39

@<SCITEGIC>MOL_PROPERTY
Delta U+W
SciTegic.value.DoubleValue
-0.422

@<SCITEGIC>MOL_PROPERTY
U+W
SciTegic.value.DoubleValue
-49.849

@<SCITEGIC>MOL_PROPERTY
Grad RMS
SciTegic.value.DoubleValue
0.000000

@<SCITEGIC>MOL_PROPERTY
U
SciTegic.value.DoubleValue
14.465

@<SCITEGIC>MOL_PROPERTY
W
SciTegic.value.DoubleValue
-64.314

@<SCITEGIC>MOL_PROPERTY
W(PB)
SciTegic.value.DoubleValue
-66.406

@<SCITEGIC>MOL_PROPERTY
W(SA)
SciTegic.value.DoubleValue
2.093

@<SCITEGIC>MOL_PROPERTY
Valence
SciTegic.value.DoubleValue
14.072

@<SCITEGIC>MOL_PROPERTY
Coulomb
SciTegic.value.DoubleValue
-0.199

@<SCITEGIC>MOL_PROPERTY
VdW
SciTegic.value.DoubleValue
0.592

@<SCITEGIC>MOL_PROPERTY
VdW6
SciTegic.value.DoubleValue
-5.019

@<SCITEGIC>MOL_PROPERTY
VdW12
SciTegic.value.DoubleValue
5.611

@<SCITEGIC>MOL_PROPERTY
Bond
SciTegic.value.DoubleValue
0.085

@<SCITEGIC>MOL_PROPERTY
Angle
SciTegic.value.DoubleValue
2.748

@<SCITEGIC>MOL_PROPERTY
Pdih
SciTegic.value.DoubleValue
11.238

@<SCITEGIC>MOL_PROPERTY
Idih
SciTegic.value.DoubleValue
0.001

@<SCITEGIC>MOL_PROPERTY
Tether
SciTegic.value.DoubleValue
0.000

@<TRIPOS>MOLECULE
guest-s20_confgen4.mol2 : confsearch ligand conformer 691
          17          16           1
SMALL
USER_CHARGES
 
@<TRIPOS>ATOM
       1    C1      18.126988   19.908507   19.721063 C.2        1 MOL1         0.6132
       2    O1      18.548981   19.714604   18.597994 O.co2      1 MOL1        -0.6749
       3    O2      17.433276   20.859397   20.023372 O.co2      1 MOL1        -0.6749
       4    C2      18.483683   18.900834   20.805945 C.3        1 MOL1        -0.1955
       5    H1      18.410773   17.898245   20.368898 H          1 MOL1         0.0733
       6    H2      17.724441   18.962839   21.594834 H          1 MOL1         0.0733
       7    C3      19.873837   19.122961   21.370635 C.2        1 MOL1        -0.1395
       8    H3      20.693426   18.920596   20.681777 H          1 MOL1         0.0816
       9    C4      20.120833   19.538724   22.616573 C.2        1 MOL1        -0.1394
      10    H4      19.300737   19.743753   23.303935 H          1 MOL1         0.0816
      11    C5      21.507596   19.763290   23.176734 C.3        1 MOL1        -0.1826
      12    H5      22.249905   19.787765   22.367043 H          1 MOL1         0.0736
      13    H6      21.552257   20.741209   23.674945 H          1 MOL1         0.0736
      14    C6      21.884944   18.657193   24.181333 C.3        1 MOL1        -0.2882
      15    H7      21.872140   17.671122   23.698529 H          1 MOL1         0.0749
      16    H8      22.891837   18.825870   24.584820 H          1 MOL1         0.0749
      17    H9      21.180059   18.635200   25.022809 H          1 MOL1         0.0749
@<TRIPOS>BOND
    1     1     2    1
    2     1     3    2
    3     1     4    1
    4     4     5    1
    5     4     6    1
    6     4     7    1
    7     7     8    1
    8     7     9    2
    9     9    10    1
   10     9    11    1
   11    11    12    1
   12    11    13    1
   13    11    14    1
   14    14    15    1
   15    14    16    1
   16    14    17    1
@<TRIPOS>SUBSTRUCTURE
       1 MOL1            1 RESIDUE      1      MOL     
@<SCITEGIC>MOL_PROPERTY
VConf Rank
SciTegic.value.IntegerValue
691

@<SCITEGIC>MOL_PROPERTY
Conf_Id
SciTegic.value.IntegerValue
38

@<SCITEGIC>MOL_PROPERTY
Delta U+W
SciTegic.value.DoubleValue
0.000

@<SCITEGIC>MOL_PROPERTY
U+W
SciTegic.value.DoubleValue
-49.427

@<SCITEGIC>MOL_PROPERTY
Grad RMS
SciTegic.value.DoubleValue
0.000000

@<SCITEGIC>MOL_PROPERTY
U
SciTegic.value.DoubleValue
13.666

@<SCITEGIC>MOL_PROPERTY
W
SciTegic.value.DoubleValue
-63.093

@<SCITEGIC>MOL_PROPERTY
W(PB)
SciTegic.value.DoubleValue
-65.225

@<SCITEGIC>MOL_PROPERTY
W(SA)
SciTegic.value.DoubleValue
2.132

@<SCITEGIC>MOL_PROPERTY
Valence
SciTegic.value.DoubleValue
15.226

@<SCITEGIC>MOL_PROPERTY
Coulomb
SciTegic.value.DoubleValue
-1.822

@<SCITEGIC>MOL_PROPERTY
VdW
SciTegic.value.DoubleValue
0.261

@<SCITEGIC>MOL_PROPERTY
VdW6
SciTegic.value.DoubleValue
-4.165

@<SCITEGIC>MOL_PROPERTY
VdW12
SciTegic.value.DoubleValue
4.426

@<SCITEGIC>MOL_PROPERTY
Bond
SciTegic.value.DoubleValue
0.044

@<SCITEGIC>MOL_PROPERTY
Angle
SciTegic.value.DoubleValue
2.229

@<SCITEGIC>MOL_PROPERTY
Pdih
SciTegic.value.DoubleValue
12.953

@<SCITEGIC>MOL_PROPERTY
Idih
SciTegic.value.DoubleValue
0.000

@<SCITEGIC>MOL_PROPERTY
Tether
SciTegic.value.DoubleValue
0.000

@<TRIPOS>MOLECULE
guest-s20_confgen4.mol2 : confsearch ligand conformer 692
          17          16           1
SMALL
USER_CHARGES
 
@<TRIPOS>ATOM
       1    C1      19.769280   16.180614   21.483628 C.2        1 MOL1         0.6132
       2    O1      20.222590   15.948664   20.380212 O.co2      1 MOL1        -0.6749
       3    O2      18.779913   15.635458   21.931866 O.co2      1 MOL1        -0.6749
       4    C2      20.481388   17.206003   22.356031 C.3        1 MOL1        -0.1955
       5    H1      21.523849   17.275265   22.022689 H          1 MOL1         0.0733
       6    H2      20.497755   16.819539   23.381645 H          1 MOL1         0.0733
       7    C3      19.808379   18.564922   22.322235 C.2        1 MOL1        -0.1395
       8    H3      18.824048   18.608095   22.787455 H          1 MOL1         0.0816
       9    C4      20.346825   19.656218   21.769626 C.2        1 MOL1        -0.1394
      10    H4      21.329779   19.611588   21.301789 H          1 MOL1         0.0816
      11    C5      19.672565   21.009503   21.733362 C.3        1 MOL1        -0.1826
      12    H5      19.722089   21.421187   20.716211 H          1 MOL1         0.0736
      13    H6      18.606911   20.914849   21.983642 H          1 MOL1         0.0736
      14    C6      20.342481   21.988603   22.717047 C.3        1 MOL1        -0.2882
      15    H7      21.401803   22.131966   22.466620 H          1 MOL1         0.0749
      16    H8      19.849425   22.968910   22.685748 H          1 MOL1         0.0749
      17    H9      20.282447   21.609720   23.745853 H          1 MOL1         0.0749
@<TRIPOS>BOND
    1     1     2    1
    2     1     3    2
    3     1     4    1
    4     4     5    1
    5     4     6    1
    6     4     7    1
    7     7     8    1
    8     7     9    2
    9     9    10    1
   10     9    11    1
   11    11    12    1
   12    11    13    1
   13    11    14    1
   14    14    15    1
   15    14    16    1
   16    14    17    1
@<TRIPOS>SUBSTRUCTURE
       1 MOL1            1 RESIDUE      1      MOL     
@<SCITEGIC>MOL_PROPERTY
VConf Rank
SciTegic.value.IntegerValue
692

@<SCITEGIC>MOL_PROPERTY
Conf_Id
SciTegic.value.IntegerValue
35

@<SCITEGIC>MOL_PROPERTY
Delta U+W
SciTegic.value.DoubleValue
-0.102

@<SCITEGIC>MOL_PROPERTY
U+W
SciTegic.value.DoubleValue
-49.529

@<SCITEGIC>MOL_PROPERTY
Grad RMS
SciTegic.value.DoubleValue
0.000000

@<SCITEGIC>MOL_PROPERTY
U
SciTegic.value.DoubleValue
13.666

@<SCITEGIC>MOL_PROPERTY
W
SciTegic.value.DoubleValue
-63.195

@<SCITEGIC>MOL_PROPERTY
W(PB)
SciTegic.value.DoubleValue
-65.299

@<SCITEGIC>MOL_PROPERTY
W(SA)
SciTegic.value.DoubleValue
2.103

@<SCITEGIC>MOL_PROPERTY
Valence
SciTegic.value.DoubleValue
15.226

@<SCITEGIC>MOL_PROPERTY
Coulomb
SciTegic.value.DoubleValue
-1.822

@<SCITEGIC>MOL_PROPERTY
VdW
SciTegic.value.DoubleValue
0.261

@<SCITEGIC>MOL_PROPERTY
VdW6
SciTegic.value.DoubleValue
-4.165

@<SCITEGIC>MOL_PROPERTY
VdW12
SciTegic.value.DoubleValue
4.426

@<SCITEGIC>MOL_PROPERTY
Bond
SciTegic.value.DoubleValue
0.044

@<SCITEGIC>MOL_PROPERTY
Angle
SciTegic.value.DoubleValue
2.229

@<SCITEGIC>MOL_PROPERTY
Pdih
SciTegic.value.DoubleValue
12.953

@<SCITEGIC>MOL_PROPERTY
Idih
SciTegic.value.DoubleValue
0.000

@<SCITEGIC>MOL_PROPERTY
Tether
SciTegic.value.DoubleValue
0.000

@<TRIPOS>MOLECULE
guest-s20_confgen4.mol2 : confsearch ligand conformer 693
          17          16           1
SMALL
USER_CHARGES
 
@<TRIPOS>ATOM
       1    C1      19.396943   21.790952   21.321659 C.2        1 MOL1         0.6132
       2    O1      18.348906   22.097011   21.855436 O.co2      1 MOL1        -0.6749
       3    O2      20.349724   22.540068   21.232875 O.co2      1 MOL1        -0.6749
       4    C2      19.517416   20.395362   20.723739 C.3        1 MOL1        -0.1955
       5    H1      20.288457   20.421584   19.944385 H          1 MOL1         0.0733
       6    H2      18.568490   20.160622   20.227810 H          1 MOL1         0.0733
       7    C3      19.833415   19.341610   21.768325 C.2        1 MOL1        -0.1395
       8    H3      19.033101   19.155488   22.482429 H          1 MOL1         0.0816
       9    C4      20.996161   18.681117   21.835269 C.2        1 MOL1        -0.1394
      10    H4      21.775764   18.897508   21.105558 H          1 MOL1         0.0816
      11    C5      21.380016   17.620253   22.853018 C.3        1 MOL1        -0.1826
      12    H5      21.647670   16.696733   22.322003 H          1 MOL1         0.0736
      13    H6      22.294736   17.938213   23.371390 H          1 MOL1         0.0736
      14    C6      20.292983   17.300004   23.902698 C.3        1 MOL1        -0.2882
      15    H7      19.379225   16.926343   23.422255 H          1 MOL1         0.0749
      16    H8      20.645988   16.528456   24.599211 H          1 MOL1         0.0749
      17    H9      20.037869   18.191798   24.490159 H          1 MOL1         0.0749
@<TRIPOS>BOND
    1     1     2    1
    2     1     3    2
    3     1     4    1
    4     4     5    1
    5     4     6    1
    6     4     7    1
    7     7     8    1
    8     7     9    2
    9     9    10    1
   10     9    11    1
   11    11    12    1
   12    11    13    1
   13    11    14    1
   14    14    15    1
   15    14    16    1
   16    14    17    1
@<TRIPOS>SUBSTRUCTURE
       1 MOL1            1 RESIDUE      1      MOL     
@<SCITEGIC>MOL_PROPERTY
VConf Rank
SciTegic.value.IntegerValue
693

@<SCITEGIC>MOL_PROPERTY
Conf_Id
SciTegic.value.IntegerValue
19

@<SCITEGIC>MOL_PROPERTY
Delta U+W
SciTegic.value.DoubleValue
-0.496

@<SCITEGIC>MOL_PROPERTY
U+W
SciTegic.value.DoubleValue
-49.923

@<SCITEGIC>MOL_PROPERTY
Grad RMS
SciTegic.value.DoubleValue
0.000000

@<SCITEGIC>MOL_PROPERTY
U
SciTegic.value.DoubleValue
13.863

@<SCITEGIC>MOL_PROPERTY
W
SciTegic.value.DoubleValue
-63.786

@<SCITEGIC>MOL_PROPERTY
W(PB)
SciTegic.value.DoubleValue
-65.856

@<SCITEGIC>MOL_PROPERTY
W(SA)
SciTegic.value.DoubleValue
2.070

@<SCITEGIC>MOL_PROPERTY
Valence
SciTegic.value.DoubleValue
14.117

@<SCITEGIC>MOL_PROPERTY
Coulomb
SciTegic.value.DoubleValue
-1.228

@<SCITEGIC>MOL_PROPERTY
VdW
SciTegic.value.DoubleValue
0.974

@<SCITEGIC>MOL_PROPERTY
VdW6
SciTegic.value.DoubleValue
-4.885

@<SCITEGIC>MOL_PROPERTY
VdW12
SciTegic.value.DoubleValue
5.859

@<SCITEGIC>MOL_PROPERTY
Bond
SciTegic.value.DoubleValue
0.094

@<SCITEGIC>MOL_PROPERTY
Angle
SciTegic.value.DoubleValue
2.818

@<SCITEGIC>MOL_PROPERTY
Pdih
SciTegic.value.DoubleValue
11.205

@<SCITEGIC>MOL_PROPERTY
Idih
SciTegic.value.DoubleValue
0.000

@<SCITEGIC>MOL_PROPERTY
Tether
SciTegic.value.DoubleValue
0.000

@<TRIPOS>MOLECULE
guest-s20_confgen4.mol2 : confsearch ligand conformer 694
          17          16           1
SMALL
USER_CHARGES
 
@<TRIPOS>ATOM
       1    C1      19.510813   21.821464   21.437122 C.2        1 MOL1         0.6132
       2    O1      19.532923   22.401654   22.504691 O.co2      1 MOL1        -0.6749
       3    O2      20.049406   22.242387   20.432262 O.co2      1 MOL1        -0.6749
       4    C2      18.758714   20.499977   21.348544 C.3        1 MOL1        -0.1955
       5    H1      18.201353   20.494806   20.404718 H          1 MOL1         0.0733
       6    H2      18.019412   20.470926   22.158014 H          1 MOL1         0.0733
       7    C3      19.683786   19.299666   21.413803 C.2        1 MOL1        -0.1395
       8    H3      20.346064   19.175879   20.557485 H          1 MOL1         0.0816
       9    C4      19.722391   18.435523   22.432617 C.2        1 MOL1        -0.1394
      10    H4      19.063531   18.562721   23.290979 H          1 MOL1         0.0816
      11    C5      20.647654   17.240922   22.497048 C.3        1 MOL1        -0.1826
      12    H5      20.078142   16.345395   22.780263 H          1 MOL1         0.0736
      13    H6      21.083198   17.038318   21.508888 H          1 MOL1         0.0736
      14    C6      21.780637   17.472863   23.515647 C.3        1 MOL1        -0.2882
      15    H7      21.374507   17.639858   24.521926 H          1 MOL1         0.0749
      16    H8      22.449243   16.603244   23.558037 H          1 MOL1         0.0749
      17    H9      22.379801   18.350406   23.238877 H          1 MOL1         0.0749
@<TRIPOS>BOND
    1     1     2    1
    2     1     3    2
    3     1     4    1
    4     4     5    1
    5     4     6    1
    6     4     7    1
    7     7     8    1
    8     7     9    2
    9     9    10    1
   10     9    11    1
   11    11    12    1
   12    11    13    1
   13    11    14    1
   14    14    15    1
   15    14    16    1
   16    14    17    1
@<TRIPOS>SUBSTRUCTURE
       1 MOL1            1 RESIDUE      1      MOL     
@<SCITEGIC>MOL_PROPERTY
VConf Rank
SciTegic.value.IntegerValue
694

@<SCITEGIC>MOL_PROPERTY
Conf_Id
SciTegic.value.IntegerValue
7

@<SCITEGIC>MOL_PROPERTY
Delta U+W
SciTegic.value.DoubleValue
-0.041

@<SCITEGIC>MOL_PROPERTY
U+W
SciTegic.value.DoubleValue
-49.468

@<SCITEGIC>MOL_PROPERTY
Grad RMS
SciTegic.value.DoubleValue
0.000000

@<SCITEGIC>MOL_PROPERTY
U
SciTegic.value.DoubleValue
14.121

@<SCITEGIC>MOL_PROPERTY
W
SciTegic.value.DoubleValue
-63.589

@<SCITEGIC>MOL_PROPERTY
W(PB)
SciTegic.value.DoubleValue
-65.660

@<SCITEGIC>MOL_PROPERTY
W(SA)
SciTegic.value.DoubleValue
2.071

@<SCITEGIC>MOL_PROPERTY
Valence
SciTegic.value.DoubleValue
15.230

@<SCITEGIC>MOL_PROPERTY
Coulomb
SciTegic.value.DoubleValue
-1.333

@<SCITEGIC>MOL_PROPERTY
VdW
SciTegic.value.DoubleValue
0.224

@<SCITEGIC>MOL_PROPERTY
VdW6
SciTegic.value.DoubleValue
-4.212

@<SCITEGIC>MOL_PROPERTY
VdW12
SciTegic.value.DoubleValue
4.436

@<SCITEGIC>MOL_PROPERTY
Bond
SciTegic.value.DoubleValue
0.044

@<SCITEGIC>MOL_PROPERTY
Angle
SciTegic.value.DoubleValue
2.230

@<SCITEGIC>MOL_PROPERTY
Pdih
SciTegic.value.DoubleValue
12.956

@<SCITEGIC>MOL_PROPERTY
Idih
SciTegic.value.DoubleValue
0.000

@<SCITEGIC>MOL_PROPERTY
Tether
SciTegic.value.DoubleValue
0.000

@<TRIPOS>MOLECULE
guest-s20_confgen4.mol2 : confsearch ligand conformer 695
          17          16           1
SMALL
USER_CHARGES
 
@<TRIPOS>ATOM
       1    C1      18.800846   17.747002   20.386669 C.2        1 MOL1         0.6132
       2    O1      18.789364   16.663104   20.936238 O.co2      1 MOL1        -0.6749
       3    O2      19.230533   17.925870   19.263969 O.co2      1 MOL1        -0.6749
       4    C2      18.219177   18.942216   21.135470 C.3        1 MOL1        -0.1955
       5    H1      17.407951   18.575824   21.775342 H          1 MOL1         0.0733
       6    H2      17.747088   19.602552   20.398715 H          1 MOL1         0.0733
       7    C3      19.209835   19.738151   21.973301 C.2        1 MOL1        -0.1395
       8    H3      18.773923   20.586708   22.499112 H          1 MOL1         0.0816
       9    C4      20.516215   19.478834   22.104150 C.2        1 MOL1        -0.1394
      10    H4      20.976958   18.636124   21.590060 H          1 MOL1         0.0816
      11    C5      21.460081   20.304084   22.950330 C.3        1 MOL1        -0.1826
      12    H5      22.364248   20.540649   22.373234 H          1 MOL1         0.0736
      13    H6      20.997560   21.263859   23.218769 H          1 MOL1         0.0736
      14    C6      21.853676   19.550560   24.235757 C.3        1 MOL1        -0.2882
      15    H7      22.539568   20.153318   24.845096 H          1 MOL1         0.0749
      16    H8      20.966752   19.325407   24.842606 H          1 MOL1         0.0749
      17    H9      22.353632   18.602811   23.996439 H          1 MOL1         0.0749
@<TRIPOS>BOND
    1     1     2    1
    2     1     3    2
    3     1     4    1
    4     4     5    1
    5     4     6    1
    6     4     7    1
    7     7     8    1
    8     7     9    2
    9     9    10    1
   10     9    11    1
   11    11    12    1
   12    11    13    1
   13    11    14    1
   14    14    15    1
   15    14    16    1
   16    14    17    1
@<TRIPOS>SUBSTRUCTURE
       1 MOL1            1 RESIDUE      1      MOL     
@<SCITEGIC>MOL_PROPERTY
VConf Rank
SciTegic.value.IntegerValue
695

@<SCITEGIC>MOL_PROPERTY
Conf_Id
SciTegic.value.IntegerValue
39

@<SCITEGIC>MOL_PROPERTY
Delta U+W
SciTegic.value.DoubleValue
-0.422

@<SCITEGIC>MOL_PROPERTY
U+W
SciTegic.value.DoubleValue
-49.849

@<SCITEGIC>MOL_PROPERTY
Grad RMS
SciTegic.value.DoubleValue
0.000000

@<SCITEGIC>MOL_PROPERTY
U
SciTegic.value.DoubleValue
14.465

@<SCITEGIC>MOL_PROPERTY
W
SciTegic.value.DoubleValue
-64.314

@<SCITEGIC>MOL_PROPERTY
W(PB)
SciTegic.value.DoubleValue
-66.406

@<SCITEGIC>MOL_PROPERTY
W(SA)
SciTegic.value.DoubleValue
2.093

@<SCITEGIC>MOL_PROPERTY
Valence
SciTegic.value.DoubleValue
14.072

@<SCITEGIC>MOL_PROPERTY
Coulomb
SciTegic.value.DoubleValue
-0.199

@<SCITEGIC>MOL_PROPERTY
VdW
SciTegic.value.DoubleValue
0.592

@<SCITEGIC>MOL_PROPERTY
VdW6
SciTegic.value.DoubleValue
-5.019

@<SCITEGIC>MOL_PROPERTY
VdW12
SciTegic.value.DoubleValue
5.611

@<SCITEGIC>MOL_PROPERTY
Bond
SciTegic.value.DoubleValue
0.085

@<SCITEGIC>MOL_PROPERTY
Angle
SciTegic.value.DoubleValue
2.748

@<SCITEGIC>MOL_PROPERTY
Pdih
SciTegic.value.DoubleValue
11.238

@<SCITEGIC>MOL_PROPERTY
Idih
SciTegic.value.DoubleValue
0.001

@<SCITEGIC>MOL_PROPERTY
Tether
SciTegic.value.DoubleValue
0.000

@<TRIPOS>MOLECULE
guest-s20_confgen4.mol2 : confsearch ligand conformer 696
          17          16           1
SMALL
USER_CHARGES
 
@<TRIPOS>ATOM
       1    C1      22.042394   21.690353   22.768023 C.2        1 MOL1         0.6132
       2    O1      21.646179   22.799955   22.470099 O.co2      1 MOL1        -0.6749
       3    O2      23.193919   21.328038   22.628249 O.co2      1 MOL1        -0.6749
       4    C2      21.040763   20.703525   23.353266 C.3        1 MOL1        -0.1955
       5    H1      20.399598   21.252226   24.052797 H          1 MOL1         0.0733
       6    H2      21.593998   19.960673   23.940413 H          1 MOL1         0.0733
       7    C3      20.194787   20.033572   22.287324 C.2        1 MOL1        -0.1395
       8    H3      19.496273   20.688987   21.767986 H          1 MOL1         0.0816
       9    C4      20.270260   18.736562   21.973802 C.2        1 MOL1        -0.1394
      10    H4      20.971065   18.082368   22.491453 H          1 MOL1         0.0816
      11    C5      19.428562   18.071040   20.907994 C.3        1 MOL1        -0.1826
      12    H5      18.949093   18.826018   20.269762 H          1 MOL1         0.0736
      13    H6      20.070152   17.466120   20.253037 H          1 MOL1         0.0736
      14    C6      18.345623   17.173450   21.537783 C.3        1 MOL1        -0.2882
      15    H7      17.675208   17.762032   22.177874 H          1 MOL1         0.0749
      16    H8      17.738572   16.692817   20.759601 H          1 MOL1         0.0749
      17    H9      18.799269   16.384372   22.151779 H          1 MOL1         0.0749
@<TRIPOS>BOND
    1     1     2    1
    2     1     3    2
    3     1     4    1
    4     4     5    1
    5     4     6    1
    6     4     7    1
    7     7     8    1
    8     7     9    2
    9     9    10    1
   10     9    11    1
   11    11    12    1
   12    11    13    1
   13    11    14    1
   14    14    15    1
   15    14    16    1
   16    14    17    1
@<TRIPOS>SUBSTRUCTURE
       1 MOL1            1 RESIDUE      1      MOL     
@<SCITEGIC>MOL_PROPERTY
VConf Rank
SciTegic.value.IntegerValue
696

@<SCITEGIC>MOL_PROPERTY
Conf_Id
SciTegic.value.IntegerValue
38

@<SCITEGIC>MOL_PROPERTY
Delta U+W
SciTegic.value.DoubleValue
0.000

@<SCITEGIC>MOL_PROPERTY
U+W
SciTegic.value.DoubleValue
-49.427

@<SCITEGIC>MOL_PROPERTY
Grad RMS
SciTegic.value.DoubleValue
0.000000

@<SCITEGIC>MOL_PROPERTY
U
SciTegic.value.DoubleValue
13.666

@<SCITEGIC>MOL_PROPERTY
W
SciTegic.value.DoubleValue
-63.093

@<SCITEGIC>MOL_PROPERTY
W(PB)
SciTegic.value.DoubleValue
-65.225

@<SCITEGIC>MOL_PROPERTY
W(SA)
SciTegic.value.DoubleValue
2.132

@<SCITEGIC>MOL_PROPERTY
Valence
SciTegic.value.DoubleValue
15.226

@<SCITEGIC>MOL_PROPERTY
Coulomb
SciTegic.value.DoubleValue
-1.822

@<SCITEGIC>MOL_PROPERTY
VdW
SciTegic.value.DoubleValue
0.261

@<SCITEGIC>MOL_PROPERTY
VdW6
SciTegic.value.DoubleValue
-4.165

@<SCITEGIC>MOL_PROPERTY
VdW12
SciTegic.value.DoubleValue
4.426

@<SCITEGIC>MOL_PROPERTY
Bond
SciTegic.value.DoubleValue
0.044

@<SCITEGIC>MOL_PROPERTY
Angle
SciTegic.value.DoubleValue
2.229

@<SCITEGIC>MOL_PROPERTY
Pdih
SciTegic.value.DoubleValue
12.953

@<SCITEGIC>MOL_PROPERTY
Idih
SciTegic.value.DoubleValue
0.000

@<SCITEGIC>MOL_PROPERTY
Tether
SciTegic.value.DoubleValue
0.000

@<TRIPOS>MOLECULE
guest-s20_confgen4.mol2 : confsearch ligand conformer 697
          17          16           1
SMALL
USER_CHARGES
 
@<TRIPOS>ATOM
       1    C1      19.683726   20.026218   25.151263 C.2        1 MOL1         0.6132
       2    O1      19.126050   19.107979   25.719289 O.co2      1 MOL1        -0.6749
       3    O2      19.468472   21.197174   25.395163 O.co2      1 MOL1        -0.6749
       4    C2      20.712724   19.693651   24.078805 C.3        1 MOL1        -0.1955
       5    H1      21.093352   18.683126   24.270117 H          1 MOL1         0.0733
       6    H2      21.556872   20.382384   24.199508 H          1 MOL1         0.0733
       7    C3      20.146401   19.804761   22.676066 C.2        1 MOL1        -0.1395
       8    H3      19.894449   20.815004   22.354927 H          1 MOL1         0.0816
       9    C4      19.951389   18.764299   21.860200 C.2        1 MOL1        -0.1394
      10    H4      20.200578   17.754014   22.183139 H          1 MOL1         0.0816
      11    C5      19.382873   18.876540   20.463234 C.3        1 MOL1        -0.1826
      12    H5      18.583917   18.135071   20.327495 H          1 MOL1         0.0736
      13    H6      18.925430   19.864097   20.312586 H          1 MOL1         0.0736
      14    C6      20.476585   18.653618   19.400615 C.3        1 MOL1        -0.2882
      15    H7      20.925594   17.657030   19.503724 H          1 MOL1         0.0749
      16    H8      20.057969   18.735568   18.389116 H          1 MOL1         0.0749
      17    H9      21.275147   19.400571   19.500411 H          1 MOL1         0.0749
@<TRIPOS>BOND
    1     1     2    1
    2     1     3    2
    3     1     4    1
    4     4     5    1
    5     4     6    1
    6     4     7    1
    7     7     8    1
    8     7     9    2
    9     9    10    1
   10     9    11    1
   11    11    12    1
   12    11    13    1
   13    11    14    1
   14    14    15    1
   15    14    16    1
   16    14    17    1
@<TRIPOS>SUBSTRUCTURE
       1 MOL1            1 RESIDUE      1      MOL     
@<SCITEGIC>MOL_PROPERTY
VConf Rank
SciTegic.value.IntegerValue
697

@<SCITEGIC>MOL_PROPERTY
Conf_Id
SciTegic.value.IntegerValue
35

@<SCITEGIC>MOL_PROPERTY
Delta U+W
SciTegic.value.DoubleValue
-0.102

@<SCITEGIC>MOL_PROPERTY
U+W
SciTegic.value.DoubleValue
-49.529

@<SCITEGIC>MOL_PROPERTY
Grad RMS
SciTegic.value.DoubleValue
0.000000

@<SCITEGIC>MOL_PROPERTY
U
SciTegic.value.DoubleValue
13.666

@<SCITEGIC>MOL_PROPERTY
W
SciTegic.value.DoubleValue
-63.195

@<SCITEGIC>MOL_PROPERTY
W(PB)
SciTegic.value.DoubleValue
-65.299

@<SCITEGIC>MOL_PROPERTY
W(SA)
SciTegic.value.DoubleValue
2.103

@<SCITEGIC>MOL_PROPERTY
Valence
SciTegic.value.DoubleValue
15.226

@<SCITEGIC>MOL_PROPERTY
Coulomb
SciTegic.value.DoubleValue
-1.822

@<SCITEGIC>MOL_PROPERTY
VdW
SciTegic.value.DoubleValue
0.261

@<SCITEGIC>MOL_PROPERTY
VdW6
SciTegic.value.DoubleValue
-4.165

@<SCITEGIC>MOL_PROPERTY
VdW12
SciTegic.value.DoubleValue
4.426

@<SCITEGIC>MOL_PROPERTY
Bond
SciTegic.value.DoubleValue
0.044

@<SCITEGIC>MOL_PROPERTY
Angle
SciTegic.value.DoubleValue
2.229

@<SCITEGIC>MOL_PROPERTY
Pdih
SciTegic.value.DoubleValue
12.953

@<SCITEGIC>MOL_PROPERTY
Idih
SciTegic.value.DoubleValue
0.000

@<SCITEGIC>MOL_PROPERTY
Tether
SciTegic.value.DoubleValue
0.000

@<TRIPOS>MOLECULE
guest-s20_confgen4.mol2 : confsearch ligand conformer 698
          17          16           1
SMALL
USER_CHARGES
 
@<TRIPOS>ATOM
       1    C1      19.294470   18.523973   19.462318 C.2        1 MOL1         0.6132
       2    O1      20.247950   18.428593   18.714822 O.co2      1 MOL1        -0.6749
       3    O2      18.361687   17.745025   19.464422 O.co2      1 MOL1        -0.6749
       4    C2      19.264395   19.689268   20.442560 C.3        1 MOL1        -0.1955
       5    H1      18.219285   19.884346   20.711403 H          1 MOL1         0.0733
       6    H2      19.631288   20.578413   19.916899 H          1 MOL1         0.0733
       7    C3      20.106139   19.430560   21.677850 C.2        1 MOL1        -0.1395
       8    H3      21.178438   19.385303   21.495595 H          1 MOL1         0.0816
       9    C4      19.599075   19.261681   22.905481 C.2        1 MOL1        -0.1394
      10    H4      18.520025   19.309360   23.048529 H          1 MOL1         0.0816
      11    C5      20.380180   18.996479   24.181464 C.3        1 MOL1        -0.1826
      12    H5      20.144603   19.780800   24.913482 H          1 MOL1         0.0736
      13    H6      20.023968   18.058696   24.628898 H          1 MOL1         0.0736
      14    C6      21.912586   18.918202   24.003608 C.3        1 MOL1        -0.2882
      15    H7      22.311976   19.861133   23.607665 H          1 MOL1         0.0749
      16    H8      22.402367   18.723900   24.966619 H          1 MOL1         0.0749
      17    H9      22.188433   18.107386   23.316604 H          1 MOL1         0.0749
@<TRIPOS>BOND
    1     1     2    1
    2     1     3    2
    3     1     4    1
    4     4     5    1
    5     4     6    1
    6     4     7    1
    7     7     8    1
    8     7     9    2
    9     9    10    1
   10     9    11    1
   11    11    12    1
   12    11    13    1
   13    11    14    1
   14    14    15    1
   15    14    16    1
   16    14    17    1
@<TRIPOS>SUBSTRUCTURE
       1 MOL1            1 RESIDUE      1      MOL     
@<SCITEGIC>MOL_PROPERTY
VConf Rank
SciTegic.value.IntegerValue
698

@<SCITEGIC>MOL_PROPERTY
Conf_Id
SciTegic.value.IntegerValue
19

@<SCITEGIC>MOL_PROPERTY
Delta U+W
SciTegic.value.DoubleValue
-0.496

@<SCITEGIC>MOL_PROPERTY
U+W
SciTegic.value.DoubleValue
-49.923

@<SCITEGIC>MOL_PROPERTY
Grad RMS
SciTegic.value.DoubleValue
0.000000

@<SCITEGIC>MOL_PROPERTY
U
SciTegic.value.DoubleValue
13.863

@<SCITEGIC>MOL_PROPERTY
W
SciTegic.value.DoubleValue
-63.786

@<SCITEGIC>MOL_PROPERTY
W(PB)
SciTegic.value.DoubleValue
-65.856

@<SCITEGIC>MOL_PROPERTY
W(SA)
SciTegic.value.DoubleValue
2.070

@<SCITEGIC>MOL_PROPERTY
Valence
SciTegic.value.DoubleValue
14.117

@<SCITEGIC>MOL_PROPERTY
Coulomb
SciTegic.value.DoubleValue
-1.228

@<SCITEGIC>MOL_PROPERTY
VdW
SciTegic.value.DoubleValue
0.974

@<SCITEGIC>MOL_PROPERTY
VdW6
SciTegic.value.DoubleValue
-4.885

@<SCITEGIC>MOL_PROPERTY
VdW12
SciTegic.value.DoubleValue
5.859

@<SCITEGIC>MOL_PROPERTY
Bond
SciTegic.value.DoubleValue
0.094

@<SCITEGIC>MOL_PROPERTY
Angle
SciTegic.value.DoubleValue
2.818

@<SCITEGIC>MOL_PROPERTY
Pdih
SciTegic.value.DoubleValue
11.205

@<SCITEGIC>MOL_PROPERTY
Idih
SciTegic.value.DoubleValue
0.000

@<SCITEGIC>MOL_PROPERTY
Tether
SciTegic.value.DoubleValue
0.000

@<TRIPOS>MOLECULE
guest-s20_confgen4.mol2 : confsearch ligand conformer 699
          17          16           1
SMALL
USER_CHARGES
 
@<TRIPOS>ATOM
       1    C1      17.715451   17.435786   22.163931 C.2        1 MOL1         0.6132
       2    O1      17.687761   16.978663   23.289579 O.co2      1 MOL1        -0.6749
       3    O2      16.748751   17.925024   21.613349 O.co2      1 MOL1        -0.6749
       4    C2      19.029408   17.384150   21.395374 C.3        1 MOL1        -0.1955
       5    H1      18.802081   17.093816   20.363137 H          1 MOL1         0.0733
       6    H2      19.646961   16.586030   21.824660 H          1 MOL1         0.0733
       7    C3      19.765374   18.710345   21.413432 C.2        1 MOL1        -0.1395
       8    H3      19.280571   19.518690   20.866844 H          1 MOL1         0.0816
       9    C4      20.923050   18.918436   22.048019 C.2        1 MOL1        -0.1394
      10    H4      21.404775   18.111139   22.598721 H          1 MOL1         0.0816
      11    C5      21.653801   20.242433   22.067218 C.3        1 MOL1        -0.1826
      12    H5      22.713552   20.084828   21.825122 H          1 MOL1         0.0736
      13    H6      21.251021   20.914993   21.297387 H          1 MOL1         0.0736
      14    C6      21.536961   20.918984   23.446935 C.3        1 MOL1        -0.2882
      15    H7      21.968004   20.284167   24.232196 H          1 MOL1         0.0749
      16    H8      22.068548   21.879408   23.455148 H          1 MOL1         0.0749
      17    H9      20.485507   21.109115   23.699869 H          1 MOL1         0.0749
@<TRIPOS>BOND
    1     1     2    1
    2     1     3    2
    3     1     4    1
    4     4     5    1
    5     4     6    1
    6     4     7    1
    7     7     8    1
    8     7     9    2
    9     9    10    1
   10     9    11    1
   11    11    12    1
   12    11    13    1
   13    11    14    1
   14    14    15    1
   15    14    16    1
   16    14    17    1
@<TRIPOS>SUBSTRUCTURE
       1 MOL1            1 RESIDUE      1      MOL     
@<SCITEGIC>MOL_PROPERTY
VConf Rank
SciTegic.value.IntegerValue
699

@<SCITEGIC>MOL_PROPERTY
Conf_Id
SciTegic.value.IntegerValue
7

@<SCITEGIC>MOL_PROPERTY
Delta U+W
SciTegic.value.DoubleValue
-0.041

@<SCITEGIC>MOL_PROPERTY
U+W
SciTegic.value.DoubleValue
-49.468

@<SCITEGIC>MOL_PROPERTY
Grad RMS
SciTegic.value.DoubleValue
0.000000

@<SCITEGIC>MOL_PROPERTY
U
SciTegic.value.DoubleValue
14.121

@<SCITEGIC>MOL_PROPERTY
W
SciTegic.value.DoubleValue
-63.589

@<SCITEGIC>MOL_PROPERTY
W(PB)
SciTegic.value.DoubleValue
-65.660

@<SCITEGIC>MOL_PROPERTY
W(SA)
SciTegic.value.DoubleValue
2.071

@<SCITEGIC>MOL_PROPERTY
Valence
SciTegic.value.DoubleValue
15.230

@<SCITEGIC>MOL_PROPERTY
Coulomb
SciTegic.value.DoubleValue
-1.333

@<SCITEGIC>MOL_PROPERTY
VdW
SciTegic.value.DoubleValue
0.224

@<SCITEGIC>MOL_PROPERTY
VdW6
SciTegic.value.DoubleValue
-4.212

@<SCITEGIC>MOL_PROPERTY
VdW12
SciTegic.value.DoubleValue
4.436

@<SCITEGIC>MOL_PROPERTY
Bond
SciTegic.value.DoubleValue
0.044

@<SCITEGIC>MOL_PROPERTY
Angle
SciTegic.value.DoubleValue
2.230

@<SCITEGIC>MOL_PROPERTY
Pdih
SciTegic.value.DoubleValue
12.956

@<SCITEGIC>MOL_PROPERTY
Idih
SciTegic.value.DoubleValue
0.000

@<SCITEGIC>MOL_PROPERTY
Tether
SciTegic.value.DoubleValue
0.000

@<TRIPOS>MOLECULE
guest-s20_confgen4.mol2 : confsearch ligand conformer 700
          17          16           1
SMALL
USER_CHARGES
 
@<TRIPOS>ATOM
       1    C1      20.545118   16.873523   23.569258 C.2        1 MOL1         0.6132
       2    O1      21.644710   17.060779   24.051777 O.co2      1 MOL1        -0.6749
       3    O2      20.273259   15.918282   22.868766 O.co2      1 MOL1        -0.6749
       4    C2      19.439064   17.876611   23.882365 C.3        1 MOL1        -0.1955
       5    H1      19.619541   18.273110   24.888339 H          1 MOL1         0.0733
       6    H2      18.493038   17.325840   23.940733 H          1 MOL1         0.0733
       7    C3      19.298827   19.028737   22.897572 C.2        1 MOL1        -0.1395
       8    H3      18.503601   19.732677   23.139705 H          1 MOL1         0.0816
       9    C4      20.050198   19.228404   21.808274 C.2        1 MOL1        -0.1394
      10    H4      20.852293   18.540271   21.543982 H          1 MOL1         0.0816
      11    C5      19.868272   20.391805   20.858883 C.3        1 MOL1        -0.1826
      12    H5      19.853953   20.026052   19.823249 H          1 MOL1         0.0736
      13    H6      18.901159   20.883325   21.032821 H          1 MOL1         0.0736
      14    C6      21.001391   21.423263   21.023723 C.3        1 MOL1        -0.2882
      15    H7      20.865096   22.264362   20.331599 H          1 MOL1         0.0749
      16    H8      21.019130   21.822658   22.046349 H          1 MOL1         0.0749
      17    H9      21.978756   20.967374   20.817859 H          1 MOL1         0.0749
@<TRIPOS>BOND
    1     1     2    1
    2     1     3    2
    3     1     4    1
    4     4     5    1
    5     4     6    1
    6     4     7    1
    7     7     8    1
    8     7     9    2
    9     9    10    1
   10     9    11    1
   11    11    12    1
   12    11    13    1
   13    11    14    1
   14    14    15    1
   15    14    16    1
   16    14    17    1
@<TRIPOS>SUBSTRUCTURE
       1 MOL1            1 RESIDUE      1      MOL     
@<SCITEGIC>MOL_PROPERTY
VConf Rank
SciTegic.value.IntegerValue
700

@<SCITEGIC>MOL_PROPERTY
Conf_Id
SciTegic.value.IntegerValue
39

@<SCITEGIC>MOL_PROPERTY
Delta U+W
SciTegic.value.DoubleValue
-0.422

@<SCITEGIC>MOL_PROPERTY
U+W
SciTegic.value.DoubleValue
-49.849

@<SCITEGIC>MOL_PROPERTY
Grad RMS
SciTegic.value.DoubleValue
0.000000

@<SCITEGIC>MOL_PROPERTY
U
SciTegic.value.DoubleValue
14.465

@<SCITEGIC>MOL_PROPERTY
W
SciTegic.value.DoubleValue
-64.314

@<SCITEGIC>MOL_PROPERTY
W(PB)
SciTegic.value.DoubleValue
-66.406

@<SCITEGIC>MOL_PROPERTY
W(SA)
SciTegic.value.DoubleValue
2.093

@<SCITEGIC>MOL_PROPERTY
Valence
SciTegic.value.DoubleValue
14.072

@<SCITEGIC>MOL_PROPERTY
Coulomb
SciTegic.value.DoubleValue
-0.199

@<SCITEGIC>MOL_PROPERTY
VdW
SciTegic.value.DoubleValue
0.592

@<SCITEGIC>MOL_PROPERTY
VdW6
SciTegic.value.DoubleValue
-5.019

@<SCITEGIC>MOL_PROPERTY
VdW12
SciTegic.value.DoubleValue
5.611

@<SCITEGIC>MOL_PROPERTY
Bond
SciTegic.value.DoubleValue
0.085

@<SCITEGIC>MOL_PROPERTY
Angle
SciTegic.value.DoubleValue
2.748

@<SCITEGIC>MOL_PROPERTY
Pdih
SciTegic.value.DoubleValue
11.238

@<SCITEGIC>MOL_PROPERTY
Idih
SciTegic.value.DoubleValue
0.001

@<SCITEGIC>MOL_PROPERTY
Tether
SciTegic.value.DoubleValue
0.000

@<TRIPOS>MOLECULE
guest-s20_confgen4.mol2 : confsearch ligand conformer 701
          17          16           1
SMALL
USER_CHARGES
 
@<TRIPOS>ATOM
       1    C1      19.036374   21.677936   20.348808 C.2        1 MOL1         0.6132
       2    O1      19.067039   22.779937   20.860290 O.co2      1 MOL1        -0.6749
       3    O2      18.119978   21.284779   19.654211 O.co2      1 MOL1        -0.6749
       4    C2      20.214037   20.742314   20.588230 C.3        1 MOL1        -0.1955
       5    H1      21.132353   21.337926   20.529473 H          1 MOL1         0.0733
       6    H2      20.248840   20.017259   19.766206 H          1 MOL1         0.0733
       7    C3      20.134086   20.039521   21.930033 C.2        1 MOL1        -0.1395
       8    H3      20.255700   20.683657   22.800377 H          1 MOL1         0.0816
       9    C4      19.928135   18.727487   22.079629 C.2        1 MOL1        -0.1394
      10    H4      19.803639   18.084439   21.208969 H          1 MOL1         0.0816
      11    C5      19.844943   18.029034   23.418496 C.3        1 MOL1        -0.1826
      12    H5      19.720908   18.762142   24.227440 H          1 MOL1         0.0736
      13    H6      18.959535   17.379442   23.443332 H          1 MOL1         0.0736
      14    C6      21.107910   17.186424   23.683036 C.3        1 MOL1        -0.2882
      15    H7      22.004943   17.819594   23.688431 H          1 MOL1         0.0749
      16    H8      21.041448   16.681580   24.655559 H          1 MOL1         0.0749
      17    H9      21.235845   16.418637   22.908721 H          1 MOL1         0.0749
@<TRIPOS>BOND
    1     1     2    1
    2     1     3    2
    3     1     4    1
    4     4     5    1
    5     4     6    1
    6     4     7    1
    7     7     8    1
    8     7     9    2
    9     9    10    1
   10     9    11    1
   11    11    12    1
   12    11    13    1
   13    11    14    1
   14    14    15    1
   15    14    16    1
   16    14    17    1
@<TRIPOS>SUBSTRUCTURE
       1 MOL1            1 RESIDUE      1      MOL     
@<SCITEGIC>MOL_PROPERTY
VConf Rank
SciTegic.value.IntegerValue
701

@<SCITEGIC>MOL_PROPERTY
Conf_Id
SciTegic.value.IntegerValue
38

@<SCITEGIC>MOL_PROPERTY
Delta U+W
SciTegic.value.DoubleValue
0.000

@<SCITEGIC>MOL_PROPERTY
U+W
SciTegic.value.DoubleValue
-49.427

@<SCITEGIC>MOL_PROPERTY
Grad RMS
SciTegic.value.DoubleValue
0.000000

@<SCITEGIC>MOL_PROPERTY
U
SciTegic.value.DoubleValue
13.666

@<SCITEGIC>MOL_PROPERTY
W
SciTegic.value.DoubleValue
-63.093

@<SCITEGIC>MOL_PROPERTY
W(PB)
SciTegic.value.DoubleValue
-65.225

@<SCITEGIC>MOL_PROPERTY
W(SA)
SciTegic.value.DoubleValue
2.132

@<SCITEGIC>MOL_PROPERTY
Valence
SciTegic.value.DoubleValue
15.226

@<SCITEGIC>MOL_PROPERTY
Coulomb
SciTegic.value.DoubleValue
-1.822

@<SCITEGIC>MOL_PROPERTY
VdW
SciTegic.value.DoubleValue
0.261

@<SCITEGIC>MOL_PROPERTY
VdW6
SciTegic.value.DoubleValue
-4.165

@<SCITEGIC>MOL_PROPERTY
VdW12
SciTegic.value.DoubleValue
4.426

@<SCITEGIC>MOL_PROPERTY
Bond
SciTegic.value.DoubleValue
0.044

@<SCITEGIC>MOL_PROPERTY
Angle
SciTegic.value.DoubleValue
2.229

@<SCITEGIC>MOL_PROPERTY
Pdih
SciTegic.value.DoubleValue
12.953

@<SCITEGIC>MOL_PROPERTY
Idih
SciTegic.value.DoubleValue
0.000

@<SCITEGIC>MOL_PROPERTY
Tether
SciTegic.value.DoubleValue
0.000

@<TRIPOS>MOLECULE
guest-s20_confgen4.mol2 : confsearch ligand conformer 702
          17          16           1
SMALL
USER_CHARGES
 
@<TRIPOS>ATOM
       1    C1      19.901537   22.114620   23.475336 C.2        1 MOL1         0.6132
       2    O1      20.991381   22.411377   23.923658 O.co2      1 MOL1        -0.6749
       3    O2      18.852226   22.385194   24.025514 O.co2      1 MOL1        -0.6749
       4    C2      19.845120   21.367720   22.149228 C.3        1 MOL1        -0.1955
       5    H1      20.771410   21.573970   21.599601 H          1 MOL1         0.0733
       6    H2      19.022461   21.790819   21.561244 H          1 MOL1         0.0733
       7    C3      19.641639   19.875657   22.331129 C.2        1 MOL1        -0.1395
       8    H3      18.669043   19.583673   22.726100 H          1 MOL1         0.0816
       9    C4      20.562997   18.951333   22.043114 C.2        1 MOL1        -0.1394
      10    H4      21.536483   19.244213   21.651188 H          1 MOL1         0.0816
      11    C5      20.359760   17.464218   22.228870 C.3        1 MOL1        -0.1826
      12    H5      21.221672   17.035519   22.757886 H          1 MOL1         0.0736
      13    H6      19.477849   17.272074   22.855395 H          1 MOL1         0.0736
      14    C6      20.185446   16.755250   20.871652 C.3        1 MOL1        -0.2882
      15    H7      21.070585   16.898881   20.238148 H          1 MOL1         0.0749
      16    H8      20.039083   15.676485   21.012823 H          1 MOL1         0.0749
      17    H9      19.312834   17.150099   20.334771 H          1 MOL1         0.0749
@<TRIPOS>BOND
    1     1     2    1
    2     1     3    2
    3     1     4    1
    4     4     5    1
    5     4     6    1
    6     4     7    1
    7     7     8    1
    8     7     9    2
    9     9    10    1
   10     9    11    1
   11    11    12    1
   12    11    13    1
   13    11    14    1
   14    14    15    1
   15    14    16    1
   16    14    17    1
@<TRIPOS>SUBSTRUCTURE
       1 MOL1            1 RESIDUE      1      MOL     
@<SCITEGIC>MOL_PROPERTY
VConf Rank
SciTegic.value.IntegerValue
702

@<SCITEGIC>MOL_PROPERTY
Conf_Id
SciTegic.value.IntegerValue
35

@<SCITEGIC>MOL_PROPERTY
Delta U+W
SciTegic.value.DoubleValue
-0.102

@<SCITEGIC>MOL_PROPERTY
U+W
SciTegic.value.DoubleValue
-49.529

@<SCITEGIC>MOL_PROPERTY
Grad RMS
SciTegic.value.DoubleValue
0.000000

@<SCITEGIC>MOL_PROPERTY
U
SciTegic.value.DoubleValue
13.666

@<SCITEGIC>MOL_PROPERTY
W
SciTegic.value.DoubleValue
-63.195

@<SCITEGIC>MOL_PROPERTY
W(PB)
SciTegic.value.DoubleValue
-65.299

@<SCITEGIC>MOL_PROPERTY
W(SA)
SciTegic.value.DoubleValue
2.103

@<SCITEGIC>MOL_PROPERTY
Valence
SciTegic.value.DoubleValue
15.226

@<SCITEGIC>MOL_PROPERTY
Coulomb
SciTegic.value.DoubleValue
-1.822

@<SCITEGIC>MOL_PROPERTY
VdW
SciTegic.value.DoubleValue
0.261

@<SCITEGIC>MOL_PROPERTY
VdW6
SciTegic.value.DoubleValue
-4.165

@<SCITEGIC>MOL_PROPERTY
VdW12
SciTegic.value.DoubleValue
4.426

@<SCITEGIC>MOL_PROPERTY
Bond
SciTegic.value.DoubleValue
0.044

@<SCITEGIC>MOL_PROPERTY
Angle
SciTegic.value.DoubleValue
2.229

@<SCITEGIC>MOL_PROPERTY
Pdih
SciTegic.value.DoubleValue
12.953

@<SCITEGIC>MOL_PROPERTY
Idih
SciTegic.value.DoubleValue
0.000

@<SCITEGIC>MOL_PROPERTY
Tether
SciTegic.value.DoubleValue
0.000

@<TRIPOS>MOLECULE
guest-s20_confgen4.mol2 : confsearch ligand conformer 703
          17          16           1
SMALL
USER_CHARGES
 
@<TRIPOS>ATOM
       1    C1      21.965887   16.781813   22.749459 C.2        1 MOL1         0.6132
       2    O1      21.816211   16.413932   23.898037 O.co2      1 MOL1        -0.6749
       3    O2      22.005379   16.023451   21.800683 O.co2      1 MOL1        -0.6749
       4    C2      22.121731   18.274156   22.488076 C.3        1 MOL1        -0.1955
       5    H1      22.658173   18.402096   21.540212 H          1 MOL1         0.0733
       6    H2      22.761536   18.687056   23.276539 H          1 MOL1         0.0733
       7    C3      20.790561   19.001345   22.463840 C.2        1 MOL1        -0.1395
       8    H3      20.279869   19.046216   23.424189 H          1 MOL1         0.0816
       9    C4      20.258367   19.549009   21.364047 C.2        1 MOL1        -0.1394
      10    H4      20.796851   19.480257   20.419381 H          1 MOL1         0.0816
      11    C5      18.933069   20.285777   21.267360 C.3        1 MOL1        -0.1826
      12    H5      19.114449   21.296589   20.877661 H          1 MOL1         0.0736
      13    H6      18.303115   19.788965   20.517122 H          1 MOL1         0.0736
      14    C6      18.147361   20.391199   22.593097 C.3        1 MOL1        -0.2882
      15    H7      18.727023   20.931880   23.352739 H          1 MOL1         0.0749
      16    H8      17.205403   20.933730   22.440108 H          1 MOL1         0.0749
      17    H9      17.901880   19.395650   22.985666 H          1 MOL1         0.0749
@<TRIPOS>BOND
    1     1     2    1
    2     1     3    2
    3     1     4    1
    4     4     5    1
    5     4     6    1
    6     4     7    1
    7     7     8    1
    8     7     9    2
    9     9    10    1
   10     9    11    1
   11    11    12    1
   12    11    13    1
   13    11    14    1
   14    14    15    1
   15    14    16    1
   16    14    17    1
@<TRIPOS>SUBSTRUCTURE
       1 MOL1            1 RESIDUE      1      MOL     
@<SCITEGIC>MOL_PROPERTY
VConf Rank
SciTegic.value.IntegerValue
703

@<SCITEGIC>MOL_PROPERTY
Conf_Id
SciTegic.value.IntegerValue
19

@<SCITEGIC>MOL_PROPERTY
Delta U+W
SciTegic.value.DoubleValue
-0.496

@<SCITEGIC>MOL_PROPERTY
U+W
SciTegic.value.DoubleValue
-49.923

@<SCITEGIC>MOL_PROPERTY
Grad RMS
SciTegic.value.DoubleValue
0.000000

@<SCITEGIC>MOL_PROPERTY
U
SciTegic.value.DoubleValue
13.863

@<SCITEGIC>MOL_PROPERTY
W
SciTegic.value.DoubleValue
-63.786

@<SCITEGIC>MOL_PROPERTY
W(PB)
SciTegic.value.DoubleValue
-65.856

@<SCITEGIC>MOL_PROPERTY
W(SA)
SciTegic.value.DoubleValue
2.070

@<SCITEGIC>MOL_PROPERTY
Valence
SciTegic.value.DoubleValue
14.117

@<SCITEGIC>MOL_PROPERTY
Coulomb
SciTegic.value.DoubleValue
-1.228

@<SCITEGIC>MOL_PROPERTY
VdW
SciTegic.value.DoubleValue
0.974

@<SCITEGIC>MOL_PROPERTY
VdW6
SciTegic.value.DoubleValue
-4.885

@<SCITEGIC>MOL_PROPERTY
VdW12
SciTegic.value.DoubleValue
5.859

@<SCITEGIC>MOL_PROPERTY
Bond
SciTegic.value.DoubleValue
0.094

@<SCITEGIC>MOL_PROPERTY
Angle
SciTegic.value.DoubleValue
2.818

@<SCITEGIC>MOL_PROPERTY
Pdih
SciTegic.value.DoubleValue
11.205

@<SCITEGIC>MOL_PROPERTY
Idih
SciTegic.value.DoubleValue
0.000

@<SCITEGIC>MOL_PROPERTY
Tether
SciTegic.value.DoubleValue
0.000

@<TRIPOS>MOLECULE
guest-s20_confgen4.mol2 : confsearch ligand conformer 704
          17          16           1
SMALL
USER_CHARGES
 
@<TRIPOS>ATOM
       1    C1      22.907651   19.313433   21.213976 C.2        1 MOL1         0.6132
       2    O1      23.551673   18.780318   22.095926 O.co2      1 MOL1        -0.6749
       3    O2      23.076768   19.092427   20.030947 O.co2      1 MOL1        -0.6749
       4    C2      21.837022   20.321810   21.609901 C.3        1 MOL1        -0.1955
       5    H1      21.900139   21.167092   20.914920 H          1 MOL1         0.0733
       6    H2      22.080748   20.707389   22.607188 H          1 MOL1         0.0733
       7    C3      20.441472   19.728123   21.582661 C.2        1 MOL1        -0.1395
       8    H3      20.068003   19.463295   20.593923 H          1 MOL1         0.0816
       9    C4      19.692288   19.520057   22.669697 C.2        1 MOL1        -0.1394
      10    H4      20.068281   19.780292   23.658618 H          1 MOL1         0.0816
      11    C5      18.302087   18.925220   22.640614 C.3        1 MOL1        -0.1826
      12    H5      17.622962   19.539470   23.247250 H          1 MOL1         0.0736
      13    H6      17.902930   18.930806   21.616968 H          1 MOL1         0.0736
      14    C6      18.306889   17.480852   23.177988 C.3        1 MOL1        -0.2882
      15    H7      18.665534   17.450053   24.215220 H          1 MOL1         0.0749
      16    H8      17.295826   17.053939   23.154230 H          1 MOL1         0.0749
      17    H9      18.961305   16.841432   22.570894 H          1 MOL1         0.0749
@<TRIPOS>BOND
    1     1     2    1
    2     1     3    2
    3     1     4    1
    4     4     5    1
    5     4     6    1
    6     4     7    1
    7     7     8    1
    8     7     9    2
    9     9    10    1
   10     9    11    1
   11    11    12    1
   12    11    13    1
   13    11    14    1
   14    14    15    1
   15    14    16    1
   16    14    17    1
@<TRIPOS>SUBSTRUCTURE
       1 MOL1            1 RESIDUE      1      MOL     
@<SCITEGIC>MOL_PROPERTY
VConf Rank
SciTegic.value.IntegerValue
704

@<SCITEGIC>MOL_PROPERTY
Conf_Id
SciTegic.value.IntegerValue
7

@<SCITEGIC>MOL_PROPERTY
Delta U+W
SciTegic.value.DoubleValue
-0.041

@<SCITEGIC>MOL_PROPERTY
U+W
SciTegic.value.DoubleValue
-49.468

@<SCITEGIC>MOL_PROPERTY
Grad RMS
SciTegic.value.DoubleValue
0.000000

@<SCITEGIC>MOL_PROPERTY
U
SciTegic.value.DoubleValue
14.121

@<SCITEGIC>MOL_PROPERTY
W
SciTegic.value.DoubleValue
-63.589

@<SCITEGIC>MOL_PROPERTY
W(PB)
SciTegic.value.DoubleValue
-65.660

@<SCITEGIC>MOL_PROPERTY
W(SA)
SciTegic.value.DoubleValue
2.071

@<SCITEGIC>MOL_PROPERTY
Valence
SciTegic.value.DoubleValue
15.230

@<SCITEGIC>MOL_PROPERTY
Coulomb
SciTegic.value.DoubleValue
-1.333

@<SCITEGIC>MOL_PROPERTY
VdW
SciTegic.value.DoubleValue
0.224

@<SCITEGIC>MOL_PROPERTY
VdW6
SciTegic.value.DoubleValue
-4.212

@<SCITEGIC>MOL_PROPERTY
VdW12
SciTegic.value.DoubleValue
4.436

@<SCITEGIC>MOL_PROPERTY
Bond
SciTegic.value.DoubleValue
0.044

@<SCITEGIC>MOL_PROPERTY
Angle
SciTegic.value.DoubleValue
2.230

@<SCITEGIC>MOL_PROPERTY
Pdih
SciTegic.value.DoubleValue
12.956

@<SCITEGIC>MOL_PROPERTY
Idih
SciTegic.value.DoubleValue
0.000

@<SCITEGIC>MOL_PROPERTY
Tether
SciTegic.value.DoubleValue
0.000

@<TRIPOS>MOLECULE
guest-s20_confgen4.mol2 : confsearch ligand conformer 705
          17          16           1
SMALL
USER_CHARGES
 
@<TRIPOS>ATOM
       1    C1      18.347953   17.863020   23.835992 C.2        1 MOL1         0.6132
       2    O1      18.594188   16.722395   23.496381 O.co2      1 MOL1        -0.6749
       3    O2      17.232698   18.345305   23.809752 O.co2      1 MOL1        -0.6749
       4    C2      19.495783   18.727156   24.349152 C.3        1 MOL1        -0.1955
       5    H1      20.214604   18.068470   24.850349 H          1 MOL1         0.0733
       6    H2      19.096955   19.386678   25.128695 H          1 MOL1         0.0733
       7    C3      20.214174   19.558521   23.295766 C.2        1 MOL1        -0.1395
       8    H3      21.029706   20.167793   23.683374 H          1 MOL1         0.0816
       9    C4      19.928384   19.589671   21.988727 C.2        1 MOL1        -0.1394
      10    H4      19.118705   18.989530   21.575226 H          1 MOL1         0.0816
      11    C5      20.674138   20.436570   20.981476 C.3        1 MOL1        -0.1826
      12    H5      19.957176   20.981104   20.352217 H          1 MOL1         0.0736
      13    H6      21.284328   21.194355   21.491950 H          1 MOL1         0.0736
      14    C6      21.582001   19.566370   20.090648 C.3        1 MOL1        -0.2882
      15    H7      22.119499   20.185770   19.360923 H          1 MOL1         0.0749
      16    H8      22.325005   19.031113   20.696486 H          1 MOL1         0.0749
      17    H9      20.992109   18.823254   19.538141 H          1 MOL1         0.0749
@<TRIPOS>BOND
    1     1     2    1
    2     1     3    2
    3     1     4    1
    4     4     5    1
    5     4     6    1
    6     4     7    1
    7     7     8    1
    8     7     9    2
    9     9    10    1
   10     9    11    1
   11    11    12    1
   12    11    13    1
   13    11    14    1
   14    14    15    1
   15    14    16    1
   16    14    17    1
@<TRIPOS>SUBSTRUCTURE
       1 MOL1            1 RESIDUE      1      MOL     
@<SCITEGIC>MOL_PROPERTY
VConf Rank
SciTegic.value.IntegerValue
705

@<SCITEGIC>MOL_PROPERTY
Conf_Id
SciTegic.value.IntegerValue
39

@<SCITEGIC>MOL_PROPERTY
Delta U+W
SciTegic.value.DoubleValue
-0.422

@<SCITEGIC>MOL_PROPERTY
U+W
SciTegic.value.DoubleValue
-49.849

@<SCITEGIC>MOL_PROPERTY
Grad RMS
SciTegic.value.DoubleValue
0.000000

@<SCITEGIC>MOL_PROPERTY
U
SciTegic.value.DoubleValue
14.465

@<SCITEGIC>MOL_PROPERTY
W
SciTegic.value.DoubleValue
-64.314

@<SCITEGIC>MOL_PROPERTY
W(PB)
SciTegic.value.DoubleValue
-66.406

@<SCITEGIC>MOL_PROPERTY
W(SA)
SciTegic.value.DoubleValue
2.093

@<SCITEGIC>MOL_PROPERTY
Valence
SciTegic.value.DoubleValue
14.072

@<SCITEGIC>MOL_PROPERTY
Coulomb
SciTegic.value.DoubleValue
-0.199

@<SCITEGIC>MOL_PROPERTY
VdW
SciTegic.value.DoubleValue
0.592

@<SCITEGIC>MOL_PROPERTY
VdW6
SciTegic.value.DoubleValue
-5.019

@<SCITEGIC>MOL_PROPERTY
VdW12
SciTegic.value.DoubleValue
5.611

@<SCITEGIC>MOL_PROPERTY
Bond
SciTegic.value.DoubleValue
0.085

@<SCITEGIC>MOL_PROPERTY
Angle
SciTegic.value.DoubleValue
2.748

@<SCITEGIC>MOL_PROPERTY
Pdih
SciTegic.value.DoubleValue
11.238

@<SCITEGIC>MOL_PROPERTY
Idih
SciTegic.value.DoubleValue
0.001

@<SCITEGIC>MOL_PROPERTY
Tether
SciTegic.value.DoubleValue
0.000

@<TRIPOS>MOLECULE
guest-s20_confgen4.mol2 : confsearch ligand conformer 706
          17          16           1
SMALL
USER_CHARGES
 
@<TRIPOS>ATOM
       1    C1      20.927993   21.778284   20.352289 C.2        1 MOL1         0.6132
       2    O1      20.675192   21.716048   19.165201 O.co2      1 MOL1        -0.6749
       3    O2      21.952831   22.256673   20.796891 O.co2      1 MOL1        -0.6749
       4    C2      19.900741   21.231283   21.334708 C.3        1 MOL1        -0.1955
       5    H1      18.906873   21.527221   20.979521 H          1 MOL1         0.0733
       6    H2      20.055291   21.723639   22.302355 H          1 MOL1         0.0733
       7    C3      19.976124   19.722762   21.474083 C.2        1 MOL1        -0.1395
       8    H3      19.676689   19.158619   20.591313 H          1 MOL1         0.0816
       9    C4      20.377632   19.089828   22.580616 C.2        1 MOL1        -0.1394
      10    H4      20.679751   19.654611   23.461982 H          1 MOL1         0.0816
      11    C5      20.455754   17.585583   22.716503 C.3        1 MOL1        -0.1826
      12    H5      20.388756   17.106516   21.729980 H          1 MOL1         0.0736
      13    H6      21.428952   17.301631   23.139341 H          1 MOL1         0.0736
      14    C6      19.327427   17.051787   23.620382 C.3        1 MOL1        -0.2882
      15    H7      18.342825   17.301810   23.203671 H          1 MOL1         0.0749
      16    H8      19.389700   15.959944   23.715707 H          1 MOL1         0.0749
      17    H9      19.393181   17.485870   24.626701 H          1 MOL1         0.0749
@<TRIPOS>BOND
    1     1     2    1
    2     1     3    2
    3     1     4    1
    4     4     5    1
    5     4     6    1
    6     4     7    1
    7     7     8    1
    8     7     9    2
    9     9    10    1
   10     9    11    1
   11    11    12    1
   12    11    13    1
   13    11    14    1
   14    14    15    1
   15    14    16    1
   16    14    17    1
@<TRIPOS>SUBSTRUCTURE
       1 MOL1            1 RESIDUE      1      MOL     
@<SCITEGIC>MOL_PROPERTY
VConf Rank
SciTegic.value.IntegerValue
706

@<SCITEGIC>MOL_PROPERTY
Conf_Id
SciTegic.value.IntegerValue
38

@<SCITEGIC>MOL_PROPERTY
Delta U+W
SciTegic.value.DoubleValue
0.000

@<SCITEGIC>MOL_PROPERTY
U+W
SciTegic.value.DoubleValue
-49.427

@<SCITEGIC>MOL_PROPERTY
Grad RMS
SciTegic.value.DoubleValue
0.000000

@<SCITEGIC>MOL_PROPERTY
U
SciTegic.value.DoubleValue
13.666

@<SCITEGIC>MOL_PROPERTY
W
SciTegic.value.DoubleValue
-63.093

@<SCITEGIC>MOL_PROPERTY
W(PB)
SciTegic.value.DoubleValue
-65.225

@<SCITEGIC>MOL_PROPERTY
W(SA)
SciTegic.value.DoubleValue
2.132

@<SCITEGIC>MOL_PROPERTY
Valence
SciTegic.value.DoubleValue
15.226

@<SCITEGIC>MOL_PROPERTY
Coulomb
SciTegic.value.DoubleValue
-1.822

@<SCITEGIC>MOL_PROPERTY
VdW
SciTegic.value.DoubleValue
0.261

@<SCITEGIC>MOL_PROPERTY
VdW6
SciTegic.value.DoubleValue
-4.165

@<SCITEGIC>MOL_PROPERTY
VdW12
SciTegic.value.DoubleValue
4.426

@<SCITEGIC>MOL_PROPERTY
Bond
SciTegic.value.DoubleValue
0.044

@<SCITEGIC>MOL_PROPERTY
Angle
SciTegic.value.DoubleValue
2.229

@<SCITEGIC>MOL_PROPERTY
Pdih
SciTegic.value.DoubleValue
12.953

@<SCITEGIC>MOL_PROPERTY
Idih
SciTegic.value.DoubleValue
0.000

@<SCITEGIC>MOL_PROPERTY
Tether
SciTegic.value.DoubleValue
0.000

@<TRIPOS>MOLECULE
guest-s20_confgen4.mol2 : confsearch ligand conformer 707
          17          16           1
SMALL
USER_CHARGES
 
@<TRIPOS>ATOM
       1    C1      19.481813   19.181897   18.999520 C.2        1 MOL1         0.6132
       2    O1      19.069283   18.077366   18.705157 O.co2      1 MOL1        -0.6749
       3    O2      20.214803   19.837726   18.285675 O.co2      1 MOL1        -0.6749
       4    C2      19.053800   19.781047   20.332723 C.3        1 MOL1        -0.1955
       5    H1      18.114156   19.304567   20.637148 H          1 MOL1         0.0733
       6    H2      18.836356   20.842756   20.168409 H          1 MOL1         0.0733
       7    C3      20.114324   19.626703   21.406134 C.2        1 MOL1        -0.1395
       8    H3      21.023031   20.206999   21.248943 H          1 MOL1         0.0816
       9    C4      19.985844   18.844126   22.481910 C.2        1 MOL1        -0.1394
      10    H4      19.078202   18.261679   22.636841 H          1 MOL1         0.0816
      11    C5      21.046010   18.688409   23.549207 C.3        1 MOL1        -0.1826
      12    H5      21.208129   17.622247   23.757890 H          1 MOL1         0.0736
      13    H6      22.006463   19.090646   23.198557 H          1 MOL1         0.0736
      14    C6      20.634722   19.409317   24.847742 C.3        1 MOL1        -0.2882
      15    H7      19.695338   19.000211   25.242227 H          1 MOL1         0.0749
      16    H8      21.407487   19.292215   25.618590 H          1 MOL1         0.0749
      17    H9      20.491763   20.483193   24.668984 H          1 MOL1         0.0749
@<TRIPOS>BOND
    1     1     2    1
    2     1     3    2
    3     1     4    1
    4     4     5    1
    5     4     6    1
    6     4     7    1
    7     7     8    1
    8     7     9    2
    9     9    10    1
   10     9    11    1
   11    11    12    1
   12    11    13    1
   13    11    14    1
   14    14    15    1
   15    14    16    1
   16    14    17    1
@<TRIPOS>SUBSTRUCTURE
       1 MOL1            1 RESIDUE      1      MOL     
@<SCITEGIC>MOL_PROPERTY
VConf Rank
SciTegic.value.IntegerValue
707

@<SCITEGIC>MOL_PROPERTY
Conf_Id
SciTegic.value.IntegerValue
35

@<SCITEGIC>MOL_PROPERTY
Delta U+W
SciTegic.value.DoubleValue
-0.102

@<SCITEGIC>MOL_PROPERTY
U+W
SciTegic.value.DoubleValue
-49.529

@<SCITEGIC>MOL_PROPERTY
Grad RMS
SciTegic.value.DoubleValue
0.000000

@<SCITEGIC>MOL_PROPERTY
U
SciTegic.value.DoubleValue
13.666

@<SCITEGIC>MOL_PROPERTY
W
SciTegic.value.DoubleValue
-63.195

@<SCITEGIC>MOL_PROPERTY
W(PB)
SciTegic.value.DoubleValue
-65.299

@<SCITEGIC>MOL_PROPERTY
W(SA)
SciTegic.value.DoubleValue
2.103

@<SCITEGIC>MOL_PROPERTY
Valence
SciTegic.value.DoubleValue
15.226

@<SCITEGIC>MOL_PROPERTY
Coulomb
SciTegic.value.DoubleValue
-1.822

@<SCITEGIC>MOL_PROPERTY
VdW
SciTegic.value.DoubleValue
0.261

@<SCITEGIC>MOL_PROPERTY
VdW6
SciTegic.value.DoubleValue
-4.165

@<SCITEGIC>MOL_PROPERTY
VdW12
SciTegic.value.DoubleValue
4.426

@<SCITEGIC>MOL_PROPERTY
Bond
SciTegic.value.DoubleValue
0.044

@<SCITEGIC>MOL_PROPERTY
Angle
SciTegic.value.DoubleValue
2.229

@<SCITEGIC>MOL_PROPERTY
Pdih
SciTegic.value.DoubleValue
12.953

@<SCITEGIC>MOL_PROPERTY
Idih
SciTegic.value.DoubleValue
0.000

@<SCITEGIC>MOL_PROPERTY
Tether
SciTegic.value.DoubleValue
0.000

@<TRIPOS>MOLECULE
guest-s20_confgen4.mol2 : confsearch ligand conformer 708
          17          16           1
SMALL
USER_CHARGES
 
@<TRIPOS>ATOM
       1    C1      20.310262   21.918089   21.336728 C.2        1 MOL1         0.6132
       2    O1      21.459874   22.312163   21.328434 O.co2      1 MOL1        -0.6749
       3    O2      19.520694   22.130164   20.437586 O.co2      1 MOL1        -0.6749
       4    C2      19.832371   21.123468   22.544988 C.3        1 MOL1        -0.1955
       5    H1      18.741919   21.220093   22.609502 H          1 MOL1         0.0733
       6    H2      20.249430   21.595295   23.442178 H          1 MOL1         0.0733
       7    C3      20.247983   19.665812   22.482442 C.2        1 MOL1        -0.1395
       8    H3      21.319020   19.494418   22.575139 H          1 MOL1         0.0816
       9    C4      19.390053   18.650601   22.321157 C.2        1 MOL1        -0.1394
      10    H4      18.325209   18.861358   22.227492 H          1 MOL1         0.0816
      11    C5      19.736183   17.173042   22.246302 C.3        1 MOL1        -0.1826
      12    H5      19.188823   16.638064   23.034147 H          1 MOL1         0.0736
      13    H6      19.360100   16.766598   21.297679 H          1 MOL1         0.0736
      14    C6      21.241334   16.848790   22.370442 C.3        1 MOL1        -0.2882
      15    H7      21.640564   17.193565   23.333327 H          1 MOL1         0.0749
      16    H8      21.408299   15.765745   22.305898 H          1 MOL1         0.0749
      17    H9      21.814746   17.325856   21.564777 H          1 MOL1         0.0749
@<TRIPOS>BOND
    1     1     2    1
    2     1     3    2
    3     1     4    1
    4     4     5    1
    5     4     6    1
    6     4     7    1
    7     7     8    1
    8     7     9    2
    9     9    10    1
   10     9    11    1
   11    11    12    1
   12    11    13    1
   13    11    14    1
   14    14    15    1
   15    14    16    1
   16    14    17    1
@<TRIPOS>SUBSTRUCTURE
       1 MOL1            1 RESIDUE      1      MOL     
@<SCITEGIC>MOL_PROPERTY
VConf Rank
SciTegic.value.IntegerValue
708

@<SCITEGIC>MOL_PROPERTY
Conf_Id
SciTegic.value.IntegerValue
19

@<SCITEGIC>MOL_PROPERTY
Delta U+W
SciTegic.value.DoubleValue
-0.496

@<SCITEGIC>MOL_PROPERTY
U+W
SciTegic.value.DoubleValue
-49.923

@<SCITEGIC>MOL_PROPERTY
Grad RMS
SciTegic.value.DoubleValue
0.000000

@<SCITEGIC>MOL_PROPERTY
U
SciTegic.value.DoubleValue
13.863

@<SCITEGIC>MOL_PROPERTY
W
SciTegic.value.DoubleValue
-63.786

@<SCITEGIC>MOL_PROPERTY
W(PB)
SciTegic.value.DoubleValue
-65.856

@<SCITEGIC>MOL_PROPERTY
W(SA)
SciTegic.value.DoubleValue
2.070

@<SCITEGIC>MOL_PROPERTY
Valence
SciTegic.value.DoubleValue
14.117

@<SCITEGIC>MOL_PROPERTY
Coulomb
SciTegic.value.DoubleValue
-1.228

@<SCITEGIC>MOL_PROPERTY
VdW
SciTegic.value.DoubleValue
0.974

@<SCITEGIC>MOL_PROPERTY
VdW6
SciTegic.value.DoubleValue
-4.885

@<SCITEGIC>MOL_PROPERTY
VdW12
SciTegic.value.DoubleValue
5.859

@<SCITEGIC>MOL_PROPERTY
Bond
SciTegic.value.DoubleValue
0.094

@<SCITEGIC>MOL_PROPERTY
Angle
SciTegic.value.DoubleValue
2.818

@<SCITEGIC>MOL_PROPERTY
Pdih
SciTegic.value.DoubleValue
11.205

@<SCITEGIC>MOL_PROPERTY
Idih
SciTegic.value.DoubleValue
0.000

@<SCITEGIC>MOL_PROPERTY
Tether
SciTegic.value.DoubleValue
0.000

@<TRIPOS>MOLECULE
guest-s20_confgen4.mol2 : confsearch ligand conformer 709
          17          16           1
SMALL
USER_CHARGES
 
@<TRIPOS>ATOM
       1    C1      20.515531   21.963484   21.916203 C.2        1 MOL1         0.6132
       2    O1      20.524031   22.100862   20.708781 O.co2      1 MOL1        -0.6749
       3    O2      19.871524   22.668288   22.668206 O.co2      1 MOL1        -0.6749
       4    C2      21.365873   20.855186   22.523180 C.3        1 MOL1        -0.1955
       5    H1      21.850838   21.258425   23.419669 H          1 MOL1         0.0733
       6    H2      22.162554   20.605395   21.812155 H          1 MOL1         0.0733
       7    C3      20.550636   19.626786   22.879810 C.2        1 MOL1        -0.1395
       8    H3      19.839712   19.760927   23.694555 H          1 MOL1         0.0816
       9    C4      20.658705   18.447579   22.260127 C.2        1 MOL1        -0.1394
      10    H4      21.366100   18.315472   21.442080 H          1 MOL1         0.0816
      11    C5      19.842745   17.224735   22.615369 C.3        1 MOL1        -0.1826
      12    H5      20.503703   16.352676   22.711137 H          1 MOL1         0.0736
      13    H6      19.353991   17.358658   23.590249 H          1 MOL1         0.0736
      14    C6      18.772424   16.943028   21.542967 C.3        1 MOL1        -0.2882
      15    H7      19.236225   16.766459   20.563611 H          1 MOL1         0.0749
      16    H8      18.183024   16.055039   21.805930 H          1 MOL1         0.0749
      17    H9      18.083959   17.793009   21.446893 H          1 MOL1         0.0749
@<TRIPOS>BOND
    1     1     2    1
    2     1     3    2
    3     1     4    1
    4     4     5    1
    5     4     6    1
    6     4     7    1
    7     7     8    1
    8     7     9    2
    9     9    10    1
   10     9    11    1
   11    11    12    1
   12    11    13    1
   13    11    14    1
   14    14    15    1
   15    14    16    1
   16    14    17    1
@<TRIPOS>SUBSTRUCTURE
       1 MOL1            1 RESIDUE      1      MOL     
@<SCITEGIC>MOL_PROPERTY
VConf Rank
SciTegic.value.IntegerValue
709

@<SCITEGIC>MOL_PROPERTY
Conf_Id
SciTegic.value.IntegerValue
7

@<SCITEGIC>MOL_PROPERTY
Delta U+W
SciTegic.value.DoubleValue
-0.041

@<SCITEGIC>MOL_PROPERTY
U+W
SciTegic.value.DoubleValue
-49.468

@<SCITEGIC>MOL_PROPERTY
Grad RMS
SciTegic.value.DoubleValue
0.000000

@<SCITEGIC>MOL_PROPERTY
U
SciTegic.value.DoubleValue
14.121

@<SCITEGIC>MOL_PROPERTY
W
SciTegic.value.DoubleValue
-63.589

@<SCITEGIC>MOL_PROPERTY
W(PB)
SciTegic.value.DoubleValue
-65.660

@<SCITEGIC>MOL_PROPERTY
W(SA)
SciTegic.value.DoubleValue
2.071

@<SCITEGIC>MOL_PROPERTY
Valence
SciTegic.value.DoubleValue
15.230

@<SCITEGIC>MOL_PROPERTY
Coulomb
SciTegic.value.DoubleValue
-1.333

@<SCITEGIC>MOL_PROPERTY
VdW
SciTegic.value.DoubleValue
0.224

@<SCITEGIC>MOL_PROPERTY
VdW6
SciTegic.value.DoubleValue
-4.212

@<SCITEGIC>MOL_PROPERTY
VdW12
SciTegic.value.DoubleValue
4.436

@<SCITEGIC>MOL_PROPERTY
Bond
SciTegic.value.DoubleValue
0.044

@<SCITEGIC>MOL_PROPERTY
Angle
SciTegic.value.DoubleValue
2.230

@<SCITEGIC>MOL_PROPERTY
Pdih
SciTegic.value.DoubleValue
12.956

@<SCITEGIC>MOL_PROPERTY
Idih
SciTegic.value.DoubleValue
0.000

@<SCITEGIC>MOL_PROPERTY
Tether
SciTegic.value.DoubleValue
0.000

@<TRIPOS>MOLECULE
guest-s20_confgen4.mol2 : confsearch ligand conformer 710
          17          16           1
SMALL
USER_CHARGES
 
@<TRIPOS>ATOM
       1    C1      21.335337   21.296000   20.823920 C.2        1 MOL1         0.6132
       2    O1      22.509369   21.050708   21.020065 O.co2      1 MOL1        -0.6749
       3    O2      20.830122   22.379345   21.043471 O.co2      1 MOL1        -0.6749
       4    C2      20.454425   20.193179   20.244818 C.3        1 MOL1        -0.1955
       5    H1      21.079074   19.571187   19.593121 H          1 MOL1         0.0733
       6    H2      19.712498   20.665147   19.590211 H          1 MOL1         0.0733
       7    C3      19.747600   19.312742   21.265653 C.2        1 MOL1        -0.1395
       8    H3      19.124149   18.532366   20.831063 H          1 MOL1         0.0816
       9    C4      19.836465   19.424244   22.596317 C.2        1 MOL1        -0.1394
      10    H4      20.453493   20.195100   23.056524 H          1 MOL1         0.0816
      11    C5      19.110386   18.522130   23.569425 C.3        1 MOL1        -0.1826
      12    H5      18.611803   19.129877   24.336613 H          1 MOL1         0.0736
      13    H6      18.322093   17.955627   23.054816 H          1 MOL1         0.0736
      14    C6      20.085482   17.539259   24.246321 C.3        1 MOL1        -0.2882
      15    H7      19.553572   16.888236   24.952225 H          1 MOL1         0.0749
      16    H8      20.577763   16.902307   23.499631 H          1 MOL1         0.0749
      17    H9      20.863773   18.079617   24.801060 H          1 MOL1         0.0749
@<TRIPOS>BOND
    1     1     2    1
    2     1     3    2
    3     1     4    1
    4     4     5    1
    5     4     6    1
    6     4     7    1
    7     7     8    1
    8     7     9    2
    9     9    10    1
   10     9    11    1
   11    11    12    1
   12    11    13    1
   13    11    14    1
   14    14    15    1
   15    14    16    1
   16    14    17    1
@<TRIPOS>SUBSTRUCTURE
       1 MOL1            1 RESIDUE      1      MOL     
@<SCITEGIC>MOL_PROPERTY
VConf Rank
SciTegic.value.IntegerValue
710

@<SCITEGIC>MOL_PROPERTY
Conf_Id
SciTegic.value.IntegerValue
39

@<SCITEGIC>MOL_PROPERTY
Delta U+W
SciTegic.value.DoubleValue
-0.422

@<SCITEGIC>MOL_PROPERTY
U+W
SciTegic.value.DoubleValue
-49.849

@<SCITEGIC>MOL_PROPERTY
Grad RMS
SciTegic.value.DoubleValue
0.000000

@<SCITEGIC>MOL_PROPERTY
U
SciTegic.value.DoubleValue
14.465

@<SCITEGIC>MOL_PROPERTY
W
SciTegic.value.DoubleValue
-64.314

@<SCITEGIC>MOL_PROPERTY
W(PB)
SciTegic.value.DoubleValue
-66.406

@<SCITEGIC>MOL_PROPERTY
W(SA)
SciTegic.value.DoubleValue
2.093

@<SCITEGIC>MOL_PROPERTY
Valence
SciTegic.value.DoubleValue
14.072

@<SCITEGIC>MOL_PROPERTY
Coulomb
SciTegic.value.DoubleValue
-0.199

@<SCITEGIC>MOL_PROPERTY
VdW
SciTegic.value.DoubleValue
0.592

@<SCITEGIC>MOL_PROPERTY
VdW6
SciTegic.value.DoubleValue
-5.019

@<SCITEGIC>MOL_PROPERTY
VdW12
SciTegic.value.DoubleValue
5.611

@<SCITEGIC>MOL_PROPERTY
Bond
SciTegic.value.DoubleValue
0.085

@<SCITEGIC>MOL_PROPERTY
Angle
SciTegic.value.DoubleValue
2.748

@<SCITEGIC>MOL_PROPERTY
Pdih
SciTegic.value.DoubleValue
11.238

@<SCITEGIC>MOL_PROPERTY
Idih
SciTegic.value.DoubleValue
0.001

@<SCITEGIC>MOL_PROPERTY
Tether
SciTegic.value.DoubleValue
0.000

@<TRIPOS>MOLECULE
guest-s20_confgen4.mol2 : confsearch ligand conformer 711
          17          16           1
SMALL
USER_CHARGES
 
@<TRIPOS>ATOM
       1    C1      17.828437   17.403782   23.253771 C.2        1 MOL1         0.6132
       2    O1      18.070920   16.830056   24.297323 O.co2      1 MOL1        -0.6749
       3    O2      17.231258   16.890847   22.327977 O.co2      1 MOL1        -0.6749
       4    C2      18.294513   18.845795   23.102194 C.3        1 MOL1        -0.1955
       5    H1      18.112028   19.358553   24.053660 H          1 MOL1         0.0733
       6    H2      17.663509   19.332961   22.349105 H          1 MOL1         0.0733
       7    C3      19.761436   18.945982   22.729576 C.2        1 MOL1        -0.1395
       8    H3      20.460365   18.627193   23.502281 H          1 MOL1         0.0816
       9    C4      20.208217   19.385422   21.549107 C.2        1 MOL1        -0.1394
      10    H4      19.508688   19.701232   20.775812 H          1 MOL1         0.0816
      11    C5      21.671233   19.481076   21.177953 C.3        1 MOL1        -0.1826
      12    H5      22.286412   18.914498   21.890530 H          1 MOL1         0.0736
      13    H6      21.833693   19.027319   20.190914 H          1 MOL1         0.0736
      14    C6      22.141364   20.948519   21.152455 C.3        1 MOL1        -0.2882
      15    H7      22.012276   21.416432   22.137339 H          1 MOL1         0.0749
      16    H8      23.203404   21.011570   20.881935 H          1 MOL1         0.0749
      17    H9      21.567959   21.530870   20.419309 H          1 MOL1         0.0749
@<TRIPOS>BOND
    1     1     2    1
    2     1     3    2
    3     1     4    1
    4     4     5    1
    5     4     6    1
    6     4     7    1
    7     7     8    1
    8     7     9    2
    9     9    10    1
   10     9    11    1
   11    11    12    1
   12    11    13    1
   13    11    14    1
   14    14    15    1
   15    14    16    1
   16    14    17    1
@<TRIPOS>SUBSTRUCTURE
       1 MOL1            1 RESIDUE      1      MOL     
@<SCITEGIC>MOL_PROPERTY
VConf Rank
SciTegic.value.IntegerValue
711

@<SCITEGIC>MOL_PROPERTY
Conf_Id
SciTegic.value.IntegerValue
38

@<SCITEGIC>MOL_PROPERTY
Delta U+W
SciTegic.value.DoubleValue
0.000

@<SCITEGIC>MOL_PROPERTY
U+W
SciTegic.value.DoubleValue
-49.427

@<SCITEGIC>MOL_PROPERTY
Grad RMS
SciTegic.value.DoubleValue
0.000000

@<SCITEGIC>MOL_PROPERTY
U
SciTegic.value.DoubleValue
13.666

@<SCITEGIC>MOL_PROPERTY
W
SciTegic.value.DoubleValue
-63.093

@<SCITEGIC>MOL_PROPERTY
W(PB)
SciTegic.value.DoubleValue
-65.225

@<SCITEGIC>MOL_PROPERTY
W(SA)
SciTegic.value.DoubleValue
2.132

@<SCITEGIC>MOL_PROPERTY
Valence
SciTegic.value.DoubleValue
15.226

@<SCITEGIC>MOL_PROPERTY
Coulomb
SciTegic.value.DoubleValue
-1.822

@<SCITEGIC>MOL_PROPERTY
VdW
SciTegic.value.DoubleValue
0.261

@<SCITEGIC>MOL_PROPERTY
VdW6
SciTegic.value.DoubleValue
-4.165

@<SCITEGIC>MOL_PROPERTY
VdW12
SciTegic.value.DoubleValue
4.426

@<SCITEGIC>MOL_PROPERTY
Bond
SciTegic.value.DoubleValue
0.044

@<SCITEGIC>MOL_PROPERTY
Angle
SciTegic.value.DoubleValue
2.229

@<SCITEGIC>MOL_PROPERTY
Pdih
SciTegic.value.DoubleValue
12.953

@<SCITEGIC>MOL_PROPERTY
Idih
SciTegic.value.DoubleValue
0.000

@<SCITEGIC>MOL_PROPERTY
Tether
SciTegic.value.DoubleValue
0.000

@<TRIPOS>MOLECULE
guest-s20_confgen4.mol2 : confsearch ligand conformer 712
          17          16           1
SMALL
USER_CHARGES
 
@<TRIPOS>ATOM
       1    C1      22.605877   20.956914   21.203212 C.2        1 MOL1         0.6132
       2    O1      22.536518   21.167291   20.008328 O.co2      1 MOL1        -0.6749
       3    O2      23.647871   20.730709   21.786343 O.co2      1 MOL1        -0.6749
       4    C2      21.318785   20.983062   22.017039 C.3        1 MOL1        -0.1955
       5    H1      20.583717   21.591931   21.477044 H          1 MOL1         0.0733
       6    H2      21.529978   21.498061   22.961328 H          1 MOL1         0.0733
       7    C3      20.776871   19.593230   22.291702 C.2        1 MOL1        -0.1395
       8    H3      21.382106   18.981830   22.960344 H          1 MOL1         0.0816
       9    C4      19.644450   19.111942   21.769961 C.2        1 MOL1        -0.1394
      10    H4      19.041374   19.722717   21.098907 H          1 MOL1         0.0816
      11    C5      19.107671   17.724399   22.041831 C.3        1 MOL1        -0.1826
      12    H5      18.832922   17.241036   21.094515 H          1 MOL1         0.0736
      13    H6      19.882066   17.096257   22.503316 H          1 MOL1         0.0736
      14    C6      17.876397   17.778338   22.967096 C.3        1 MOL1        -0.2882
      15    H7      17.070495   18.369459   22.512643 H          1 MOL1         0.0749
      16    H8      17.490988   16.768748   23.160162 H          1 MOL1         0.0749
      17    H9      18.133440   18.235182   23.931887 H          1 MOL1         0.0749
@<TRIPOS>BOND
    1     1     2    1
    2     1     3    2
    3     1     4    1
    4     4     5    1
    5     4     6    1
    6     4     7    1
    7     7     8    1
    8     7     9    2
    9     9    10    1
   10     9    11    1
   11    11    12    1
   12    11    13    1
   13    11    14    1
   14    14    15    1
   15    14    16    1
   16    14    17    1
@<TRIPOS>SUBSTRUCTURE
       1 MOL1            1 RESIDUE      1      MOL     
@<SCITEGIC>MOL_PROPERTY
VConf Rank
SciTegic.value.IntegerValue
712

@<SCITEGIC>MOL_PROPERTY
Conf_Id
SciTegic.value.IntegerValue
35

@<SCITEGIC>MOL_PROPERTY
Delta U+W
SciTegic.value.DoubleValue
-0.102

@<SCITEGIC>MOL_PROPERTY
U+W
SciTegic.value.DoubleValue
-49.529

@<SCITEGIC>MOL_PROPERTY
Grad RMS
SciTegic.value.DoubleValue
0.000000

@<SCITEGIC>MOL_PROPERTY
U
SciTegic.value.DoubleValue
13.666

@<SCITEGIC>MOL_PROPERTY
W
SciTegic.value.DoubleValue
-63.195

@<SCITEGIC>MOL_PROPERTY
W(PB)
SciTegic.value.DoubleValue
-65.299

@<SCITEGIC>MOL_PROPERTY
W(SA)
SciTegic.value.DoubleValue
2.103

@<SCITEGIC>MOL_PROPERTY
Valence
SciTegic.value.DoubleValue
15.226

@<SCITEGIC>MOL_PROPERTY
Coulomb
SciTegic.value.DoubleValue
-1.822

@<SCITEGIC>MOL_PROPERTY
VdW
SciTegic.value.DoubleValue
0.261

@<SCITEGIC>MOL_PROPERTY
VdW6
SciTegic.value.DoubleValue
-4.165

@<SCITEGIC>MOL_PROPERTY
VdW12
SciTegic.value.DoubleValue
4.426

@<SCITEGIC>MOL_PROPERTY
Bond
SciTegic.value.DoubleValue
0.044

@<SCITEGIC>MOL_PROPERTY
Angle
SciTegic.value.DoubleValue
2.229

@<SCITEGIC>MOL_PROPERTY
Pdih
SciTegic.value.DoubleValue
12.953

@<SCITEGIC>MOL_PROPERTY
Idih
SciTegic.value.DoubleValue
0.000

@<SCITEGIC>MOL_PROPERTY
Tether
SciTegic.value.DoubleValue
0.000

@<TRIPOS>MOLECULE
guest-s20_confgen4.mol2 : confsearch ligand conformer 713
          17          16           1
SMALL
USER_CHARGES
 
@<TRIPOS>ATOM
       1    C1      19.128629   16.680214   20.915648 C.2        1 MOL1         0.6132
       2    O1      19.631212   16.532893   19.818981 O.co2      1 MOL1        -0.6749
       3    O2      18.986581   15.777293   21.716525 O.co2      1 MOL1        -0.6749
       4    C2      18.642412   18.071008   21.301628 C.3        1 MOL1        -0.1955
       5    H1      17.867525   17.962408   22.069964 H          1 MOL1         0.0733
       6    H2      18.161314   18.513566   20.421743 H          1 MOL1         0.0733
       7    C3      19.767932   18.966060   21.784838 C.2        1 MOL1        -0.1395
       8    H3      20.490128   19.241701   21.018323 H          1 MOL1         0.0816
       9    C4      19.892569   19.393948   23.047410 C.2        1 MOL1        -0.1394
      10    H4      19.152336   19.093646   23.788327 H          1 MOL1         0.0816
      11    C5      20.992255   20.285503   23.599144 C.3        1 MOL1        -0.1826
      12    H5      20.536580   21.181495   24.041935 H          1 MOL1         0.0736
      13    H6      21.489031   19.765994   24.429713 H          1 MOL1         0.0736
      14    C6      22.057957   20.719933   22.568816 C.3        1 MOL1        -0.2882
      15    H7      21.603358   21.290968   21.748657 H          1 MOL1         0.0749
      16    H8      22.814590   21.358057   23.043509 H          1 MOL1         0.0749
      17    H9      22.572455   19.848433   22.143058 H          1 MOL1         0.0749
@<TRIPOS>BOND
    1     1     2    1
    2     1     3    2
    3     1     4    1
    4     4     5    1
    5     4     6    1
    6     4     7    1
    7     7     8    1
    8     7     9    2
    9     9    10    1
   10     9    11    1
   11    11    12    1
   12    11    13    1
   13    11    14    1
   14    14    15    1
   15    14    16    1
   16    14    17    1
@<TRIPOS>SUBSTRUCTURE
       1 MOL1            1 RESIDUE      1      MOL     
@<SCITEGIC>MOL_PROPERTY
VConf Rank
SciTegic.value.IntegerValue
713

@<SCITEGIC>MOL_PROPERTY
Conf_Id
SciTegic.value.IntegerValue
19

@<SCITEGIC>MOL_PROPERTY
Delta U+W
SciTegic.value.DoubleValue
-0.496

@<SCITEGIC>MOL_PROPERTY
U+W
SciTegic.value.DoubleValue
-49.923

@<SCITEGIC>MOL_PROPERTY
Grad RMS
SciTegic.value.DoubleValue
0.000000

@<SCITEGIC>MOL_PROPERTY
U
SciTegic.value.DoubleValue
13.863

@<SCITEGIC>MOL_PROPERTY
W
SciTegic.value.DoubleValue
-63.786

@<SCITEGIC>MOL_PROPERTY
W(PB)
SciTegic.value.DoubleValue
-65.856

@<SCITEGIC>MOL_PROPERTY
W(SA)
SciTegic.value.DoubleValue
2.070

@<SCITEGIC>MOL_PROPERTY
Valence
SciTegic.value.DoubleValue
14.117

@<SCITEGIC>MOL_PROPERTY
Coulomb
SciTegic.value.DoubleValue
-1.228

@<SCITEGIC>MOL_PROPERTY
VdW
SciTegic.value.DoubleValue
0.974

@<SCITEGIC>MOL_PROPERTY
VdW6
SciTegic.value.DoubleValue
-4.885

@<SCITEGIC>MOL_PROPERTY
VdW12
SciTegic.value.DoubleValue
5.859

@<SCITEGIC>MOL_PROPERTY
Bond
SciTegic.value.DoubleValue
0.094

@<SCITEGIC>MOL_PROPERTY
Angle
SciTegic.value.DoubleValue
2.818

@<SCITEGIC>MOL_PROPERTY
Pdih
SciTegic.value.DoubleValue
11.205

@<SCITEGIC>MOL_PROPERTY
Idih
SciTegic.value.DoubleValue
0.000

@<SCITEGIC>MOL_PROPERTY
Tether
SciTegic.value.DoubleValue
0.000

@<TRIPOS>MOLECULE
guest-s20_confgen4.mol2 : confsearch ligand conformer 714
          17          16           1
SMALL
USER_CHARGES
 
@<TRIPOS>ATOM
       1    C1      20.353751   21.413122   23.962562 C.2        1 MOL1         0.6132
       2    O1      19.710178   21.066106   24.933235 O.co2      1 MOL1        -0.6749
       3    O2      21.443739   21.945825   24.034376 O.co2      1 MOL1        -0.6749
       4    C2      19.759247   21.178423   22.580061 C.3        1 MOL1        -0.1955
       5    H1      19.955329   22.071480   21.975506 H          1 MOL1         0.0733
       6    H2      18.670823   21.094069   22.684330 H          1 MOL1         0.0733
       7    C3      20.336933   19.951836   21.899968 C.2        1 MOL1        -0.1395
       8    H3      21.388030   20.025637   21.622545 H          1 MOL1         0.0816
       9    C4      19.644583   18.836940   21.647234 C.2        1 MOL1        -0.1394
      10    H4      18.594949   18.761790   21.929509 H          1 MOL1         0.0816
      11    C5      20.223323   17.613864   20.971601 C.3        1 MOL1        -0.1826
      12    H5      19.551014   17.279945   20.169714 H          1 MOL1         0.0736
      13    H6      21.184496   17.855392   20.497241 H          1 MOL1         0.0736
      14    C6      20.427122   16.468029   21.981809 C.3        1 MOL1        -0.2882
      15    H7      19.473998   16.179114   22.443878 H          1 MOL1         0.0749
      16    H8      20.847638   15.583277   21.486383 H          1 MOL1         0.0749
      17    H9      21.116424   16.771158   22.780970 H          1 MOL1         0.0749
@<TRIPOS>BOND
    1     1     2    1
    2     1     3    2
    3     1     4    1
    4     4     5    1
    5     4     6    1
    6     4     7    1
    7     7     8    1
    8     7     9    2
    9     9    10    1
   10     9    11    1
   11    11    12    1
   12    11    13    1
   13    11    14    1
   14    14    15    1
   15    14    16    1
   16    14    17    1
@<TRIPOS>SUBSTRUCTURE
       1 MOL1            1 RESIDUE      1      MOL     
@<SCITEGIC>MOL_PROPERTY
VConf Rank
SciTegic.value.IntegerValue
714

@<SCITEGIC>MOL_PROPERTY
Conf_Id
SciTegic.value.IntegerValue
7

@<SCITEGIC>MOL_PROPERTY
Delta U+W
SciTegic.value.DoubleValue
-0.041

@<SCITEGIC>MOL_PROPERTY
U+W
SciTegic.value.DoubleValue
-49.468

@<SCITEGIC>MOL_PROPERTY
Grad RMS
SciTegic.value.DoubleValue
0.000000

@<SCITEGIC>MOL_PROPERTY
U
SciTegic.value.DoubleValue
14.121

@<SCITEGIC>MOL_PROPERTY
W
SciTegic.value.DoubleValue
-63.589

@<SCITEGIC>MOL_PROPERTY
W(PB)
SciTegic.value.DoubleValue
-65.660

@<SCITEGIC>MOL_PROPERTY
W(SA)
SciTegic.value.DoubleValue
2.071

@<SCITEGIC>MOL_PROPERTY
Valence
SciTegic.value.DoubleValue
15.230

@<SCITEGIC>MOL_PROPERTY
Coulomb
SciTegic.value.DoubleValue
-1.333

@<SCITEGIC>MOL_PROPERTY
VdW
SciTegic.value.DoubleValue
0.224

@<SCITEGIC>MOL_PROPERTY
VdW6
SciTegic.value.DoubleValue
-4.212

@<SCITEGIC>MOL_PROPERTY
VdW12
SciTegic.value.DoubleValue
4.436

@<SCITEGIC>MOL_PROPERTY
Bond
SciTegic.value.DoubleValue
0.044

@<SCITEGIC>MOL_PROPERTY
Angle
SciTegic.value.DoubleValue
2.230

@<SCITEGIC>MOL_PROPERTY
Pdih
SciTegic.value.DoubleValue
12.956

@<SCITEGIC>MOL_PROPERTY
Idih
SciTegic.value.DoubleValue
0.000

@<SCITEGIC>MOL_PROPERTY
Tether
SciTegic.value.DoubleValue
0.000

@<TRIPOS>MOLECULE
guest-s20_confgen4.mol2 : confsearch ligand conformer 715
          17          16           1
SMALL
USER_CHARGES
 
@<TRIPOS>ATOM
       1    C1      21.119431   19.263520   19.687926 C.2        1 MOL1         0.6132
       2    O1      22.018317   20.075862   19.783301 O.co2      1 MOL1        -0.6749
       3    O2      20.235217   19.335200   18.857197 O.co2      1 MOL1        -0.6749
       4    C2      21.116201   18.074852   20.644292 C.3        1 MOL1        -0.1955
       5    H1      22.158555   17.827387   20.876729 H          1 MOL1         0.0733
       6    H2      20.714486   17.210013   20.103553 H          1 MOL1         0.0733
       7    C3      20.338679   18.274173   21.937585 C.2        1 MOL1        -0.1395
       8    H3      20.349230   17.413746   22.605493 H          1 MOL1         0.0816
       9    C4      19.676552   19.380962   22.294798 C.2        1 MOL1        -0.1394
      10    H4      19.650956   20.255586   21.645868 H          1 MOL1         0.0816
      11    C5      18.916376   19.527559   23.594253 C.3        1 MOL1        -0.1826
      12    H5      17.917185   19.937793   23.394639 H          1 MOL1         0.0736
      13    H6      18.765801   18.546406   24.065231 H          1 MOL1         0.0736
      14    C6      19.665603   20.453132   24.572522 C.3        1 MOL1        -0.2882
      15    H7      19.108930   20.556985   25.512941 H          1 MOL1         0.0749
      16    H8      20.659335   20.049464   24.807348 H          1 MOL1         0.0749
      17    H9      19.796550   21.454431   24.141580 H          1 MOL1         0.0749
@<TRIPOS>BOND
    1     1     2    1
    2     1     3    2
    3     1     4    1
    4     4     5    1
    5     4     6    1
    6     4     7    1
    7     7     8    1
    8     7     9    2
    9     9    10    1
   10     9    11    1
   11    11    12    1
   12    11    13    1
   13    11    14    1
   14    14    15    1
   15    14    16    1
   16    14    17    1
@<TRIPOS>SUBSTRUCTURE
       1 MOL1            1 RESIDUE      1      MOL     
@<SCITEGIC>MOL_PROPERTY
VConf Rank
SciTegic.value.IntegerValue
715

@<SCITEGIC>MOL_PROPERTY
Conf_Id
SciTegic.value.IntegerValue
39

@<SCITEGIC>MOL_PROPERTY
Delta U+W
SciTegic.value.DoubleValue
-0.422

@<SCITEGIC>MOL_PROPERTY
U+W
SciTegic.value.DoubleValue
-49.849

@<SCITEGIC>MOL_PROPERTY
Grad RMS
SciTegic.value.DoubleValue
0.000000

@<SCITEGIC>MOL_PROPERTY
U
SciTegic.value.DoubleValue
14.465

@<SCITEGIC>MOL_PROPERTY
W
SciTegic.value.DoubleValue
-64.314

@<SCITEGIC>MOL_PROPERTY
W(PB)
SciTegic.value.DoubleValue
-66.406

@<SCITEGIC>MOL_PROPERTY
W(SA)
SciTegic.value.DoubleValue
2.093

@<SCITEGIC>MOL_PROPERTY
Valence
SciTegic.value.DoubleValue
14.072

@<SCITEGIC>MOL_PROPERTY
Coulomb
SciTegic.value.DoubleValue
-0.199

@<SCITEGIC>MOL_PROPERTY
VdW
SciTegic.value.DoubleValue
0.592

@<SCITEGIC>MOL_PROPERTY
VdW6
SciTegic.value.DoubleValue
-5.019

@<SCITEGIC>MOL_PROPERTY
VdW12
SciTegic.value.DoubleValue
5.611

@<SCITEGIC>MOL_PROPERTY
Bond
SciTegic.value.DoubleValue
0.085

@<SCITEGIC>MOL_PROPERTY
Angle
SciTegic.value.DoubleValue
2.748

@<SCITEGIC>MOL_PROPERTY
Pdih
SciTegic.value.DoubleValue
11.238

@<SCITEGIC>MOL_PROPERTY
Idih
SciTegic.value.DoubleValue
0.001

@<SCITEGIC>MOL_PROPERTY
Tether
SciTegic.value.DoubleValue
0.000

@<TRIPOS>MOLECULE
guest-s20_confgen4.mol2 : confsearch ligand conformer 716
          17          16           1
SMALL
USER_CHARGES
 
@<TRIPOS>ATOM
       1    C1      19.897439   21.569996   19.937666 C.2        1 MOL1         0.6132
       2    O1      20.570069   22.563412   20.131714 O.co2      1 MOL1        -0.6749
       3    O2      18.763884   21.600815   19.500719 O.co2      1 MOL1        -0.6749
       4    C2      20.512507   20.213300   20.254950 C.3        1 MOL1        -0.1955
       5    H1      21.555609   20.231533   19.918626 H          1 MOL1         0.0733
       6    H2      19.995642   19.453764   19.656121 H          1 MOL1         0.0733
       7    C3      20.447574   19.877390   21.732683 C.2        1 MOL1        -0.1395
       8    H3      21.070676   20.495856   22.378009 H          1 MOL1         0.0816
       9    C4      19.692171   18.903228   22.249016 C.2        1 MOL1        -0.1394
      10    H4      19.067065   18.287114   21.603487 H          1 MOL1         0.0816
      11    C5      19.625811   18.572174   23.723235 C.3        1 MOL1        -0.1826
      12    H5      20.067715   19.382424   24.319419 H          1 MOL1         0.0736
      13    H6      18.576668   18.486113   24.036966 H          1 MOL1         0.0736
      14    C6      20.363145   17.253774   24.028553 C.3        1 MOL1        -0.2882
      15    H7      21.421908   17.324846   23.746469 H          1 MOL1         0.0749
      16    H8      20.311015   17.018517   25.099545 H          1 MOL1         0.0749
      17    H9      19.916816   16.417855   23.474065 H          1 MOL1         0.0749
@<TRIPOS>BOND
    1     1     2    1
    2     1     3    2
    3     1     4    1
    4     4     5    1
    5     4     6    1
    6     4     7    1
    7     7     8    1
    8     7     9    2
    9     9    10    1
   10     9    11    1
   11    11    12    1
   12    11    13    1
   13    11    14    1
   14    14    15    1
   15    14    16    1
   16    14    17    1
@<TRIPOS>SUBSTRUCTURE
       1 MOL1            1 RESIDUE      1      MOL     
@<SCITEGIC>MOL_PROPERTY
VConf Rank
SciTegic.value.IntegerValue
716

@<SCITEGIC>MOL_PROPERTY
Conf_Id
SciTegic.value.IntegerValue
38

@<SCITEGIC>MOL_PROPERTY
Delta U+W
SciTegic.value.DoubleValue
0.000

@<SCITEGIC>MOL_PROPERTY
U+W
SciTegic.value.DoubleValue
-49.427

@<SCITEGIC>MOL_PROPERTY
Grad RMS
SciTegic.value.DoubleValue
0.000000

@<SCITEGIC>MOL_PROPERTY
U
SciTegic.value.DoubleValue
13.666

@<SCITEGIC>MOL_PROPERTY
W
SciTegic.value.DoubleValue
-63.093

@<SCITEGIC>MOL_PROPERTY
W(PB)
SciTegic.value.DoubleValue
-65.225

@<SCITEGIC>MOL_PROPERTY
W(SA)
SciTegic.value.DoubleValue
2.132

@<SCITEGIC>MOL_PROPERTY
Valence
SciTegic.value.DoubleValue
15.226

@<SCITEGIC>MOL_PROPERTY
Coulomb
SciTegic.value.DoubleValue
-1.822

@<SCITEGIC>MOL_PROPERTY
VdW
SciTegic.value.DoubleValue
0.261

@<SCITEGIC>MOL_PROPERTY
VdW6
SciTegic.value.DoubleValue
-4.165

@<SCITEGIC>MOL_PROPERTY
VdW12
SciTegic.value.DoubleValue
4.426

@<SCITEGIC>MOL_PROPERTY
Bond
SciTegic.value.DoubleValue
0.044

@<SCITEGIC>MOL_PROPERTY
Angle
SciTegic.value.DoubleValue
2.229

@<SCITEGIC>MOL_PROPERTY
Pdih
SciTegic.value.DoubleValue
12.953

@<SCITEGIC>MOL_PROPERTY
Idih
SciTegic.value.DoubleValue
0.000

@<SCITEGIC>MOL_PROPERTY
Tether
SciTegic.value.DoubleValue
0.000

@<TRIPOS>MOLECULE
guest-s20_confgen4.mol2 : confsearch ligand conformer 717
          17          16           1
SMALL
USER_CHARGES
 
@<TRIPOS>ATOM
       1    C1      21.027782   16.462635   23.228051 C.2        1 MOL1         0.6132
       2    O1      21.147485   15.683882   22.302831 O.co2      1 MOL1        -0.6749
       3    O2      20.604196   16.146127   24.322289 O.co2      1 MOL1        -0.6749
       4    C2      21.435298   17.913556   23.008133 C.3        1 MOL1        -0.1955
       5    H1      22.157391   17.945895   22.183406 H          1 MOL1         0.0733
       6    H2      21.960776   18.253930   23.907869 H          1 MOL1         0.0733
       7    C3      20.247713   18.814169   22.726556 C.2        1 MOL1        -0.1395
       8    H3      19.565647   18.959753   23.563689 H          1 MOL1         0.0816
       9    C4      20.014952   19.404492   21.550304 C.2        1 MOL1        -0.1394
      10    H4      20.695686   19.255929   20.712693 H          1 MOL1         0.0816
      11    C5      18.828092   20.299040   21.270181 C.3        1 MOL1        -0.1826
      12    H5      18.348422   19.994920   20.329990 H          1 MOL1         0.0736
      13    H6      18.071188   20.191822   22.059370 H          1 MOL1         0.0736
      14    C6      19.258220   21.775745   21.173269 C.3        1 MOL1        -0.2882
      15    H7      19.987630   21.919064   20.365278 H          1 MOL1         0.0749
      16    H8      18.392993   22.419819   20.969219 H          1 MOL1         0.0749
      17    H9      19.718055   22.110326   22.112528 H          1 MOL1         0.0749
@<TRIPOS>BOND
    1     1     2    1
    2     1     3    2
    3     1     4    1
    4     4     5    1
    5     4     6    1
    6     4     7    1
    7     7     8    1
    8     7     9    2
    9     9    10    1
   10     9    11    1
   11    11    12    1
   12    11    13    1
   13    11    14    1
   14    14    15    1
   15    14    16    1
   16    14    17    1
@<TRIPOS>SUBSTRUCTURE
       1 MOL1            1 RESIDUE      1      MOL     
@<SCITEGIC>MOL_PROPERTY
VConf Rank
SciTegic.value.IntegerValue
717

@<SCITEGIC>MOL_PROPERTY
Conf_Id
SciTegic.value.IntegerValue
35

@<SCITEGIC>MOL_PROPERTY
Delta U+W
SciTegic.value.DoubleValue
-0.102

@<SCITEGIC>MOL_PROPERTY
U+W
SciTegic.value.DoubleValue
-49.529

@<SCITEGIC>MOL_PROPERTY
Grad RMS
SciTegic.value.DoubleValue
0.000000

@<SCITEGIC>MOL_PROPERTY
U
SciTegic.value.DoubleValue
13.666

@<SCITEGIC>MOL_PROPERTY
W
SciTegic.value.DoubleValue
-63.195

@<SCITEGIC>MOL_PROPERTY
W(PB)
SciTegic.value.DoubleValue
-65.299

@<SCITEGIC>MOL_PROPERTY
W(SA)
SciTegic.value.DoubleValue
2.103

@<SCITEGIC>MOL_PROPERTY
Valence
SciTegic.value.DoubleValue
15.226

@<SCITEGIC>MOL_PROPERTY
Coulomb
SciTegic.value.DoubleValue
-1.822

@<SCITEGIC>MOL_PROPERTY
VdW
SciTegic.value.DoubleValue
0.261

@<SCITEGIC>MOL_PROPERTY
VdW6
SciTegic.value.DoubleValue
-4.165

@<SCITEGIC>MOL_PROPERTY
VdW12
SciTegic.value.DoubleValue
4.426

@<SCITEGIC>MOL_PROPERTY
Bond
SciTegic.value.DoubleValue
0.044

@<SCITEGIC>MOL_PROPERTY
Angle
SciTegic.value.DoubleValue
2.229

@<SCITEGIC>MOL_PROPERTY
Pdih
SciTegic.value.DoubleValue
12.953

@<SCITEGIC>MOL_PROPERTY
Idih
SciTegic.value.DoubleValue
0.000

@<SCITEGIC>MOL_PROPERTY
Tether
SciTegic.value.DoubleValue
0.000

@<TRIPOS>MOLECULE
guest-s20_confgen4.mol2 : confsearch ligand conformer 718
          17          16           1
SMALL
USER_CHARGES
 
@<TRIPOS>ATOM
       1    C1      20.096757   19.026517   19.256407 C.2        1 MOL1         0.6132
       2    O1      19.003625   19.401532   18.880379 O.co2      1 MOL1        -0.6749
       3    O2      21.141928   19.396413   18.758768 O.co2      1 MOL1        -0.6749
       4    C2      20.157509   18.031542   20.407939 C.3        1 MOL1        -0.1955
       5    H1      21.106129   17.485599   20.339731 H          1 MOL1         0.0733
       6    H2      19.355201   17.299396   20.260380 H          1 MOL1         0.0733
       7    C3      20.009304   18.700430   21.761464 C.2        1 MOL1        -0.1395
       8    H3      19.025854   19.126389   21.952446 H          1 MOL1         0.0816
       9    C4      20.992616   18.781058   22.666620 C.2        1 MOL1        -0.1394
      10    H4      21.965352   18.346680   22.438180 H          1 MOL1         0.0816
      11    C5      20.915054   19.437046   24.034923 C.3        1 MOL1        -0.1826
      12    H5      21.170595   18.693534   24.801993 H          1 MOL1         0.0736
      13    H6      21.691682   20.210766   24.103670 H          1 MOL1         0.0736
      14    C6      19.547073   20.066033   24.379932 C.3        1 MOL1        -0.2882
      15    H7      18.752376   19.308522   24.374058 H          1 MOL1         0.0749
      16    H8      19.572676   20.518406   25.379799 H          1 MOL1         0.0749
      17    H9      19.283132   20.853258   23.661531 H          1 MOL1         0.0749
@<TRIPOS>BOND
    1     1     2    1
    2     1     3    2
    3     1     4    1
    4     4     5    1
    5     4     6    1
    6     4     7    1
    7     7     8    1
    8     7     9    2
    9     9    10    1
   10     9    11    1
   11    11    12    1
   12    11    13    1
   13    11    14    1
   14    14    15    1
   15    14    16    1
   16    14    17    1
@<TRIPOS>SUBSTRUCTURE
       1 MOL1            1 RESIDUE      1      MOL     
@<SCITEGIC>MOL_PROPERTY
VConf Rank
SciTegic.value.IntegerValue
718

@<SCITEGIC>MOL_PROPERTY
Conf_Id
SciTegic.value.IntegerValue
19

@<SCITEGIC>MOL_PROPERTY
Delta U+W
SciTegic.value.DoubleValue
-0.496

@<SCITEGIC>MOL_PROPERTY
U+W
SciTegic.value.DoubleValue
-49.923

@<SCITEGIC>MOL_PROPERTY
Grad RMS
SciTegic.value.DoubleValue
0.000000

@<SCITEGIC>MOL_PROPERTY
U
SciTegic.value.DoubleValue
13.863

@<SCITEGIC>MOL_PROPERTY
W
SciTegic.value.DoubleValue
-63.786

@<SCITEGIC>MOL_PROPERTY
W(PB)
SciTegic.value.DoubleValue
-65.856

@<SCITEGIC>MOL_PROPERTY
W(SA)
SciTegic.value.DoubleValue
2.070

@<SCITEGIC>MOL_PROPERTY
Valence
SciTegic.value.DoubleValue
14.117

@<SCITEGIC>MOL_PROPERTY
Coulomb
SciTegic.value.DoubleValue
-1.228

@<SCITEGIC>MOL_PROPERTY
VdW
SciTegic.value.DoubleValue
0.974

@<SCITEGIC>MOL_PROPERTY
VdW6
SciTegic.value.DoubleValue
-4.885

@<SCITEGIC>MOL_PROPERTY
VdW12
SciTegic.value.DoubleValue
5.859

@<SCITEGIC>MOL_PROPERTY
Bond
SciTegic.value.DoubleValue
0.094

@<SCITEGIC>MOL_PROPERTY
Angle
SciTegic.value.DoubleValue
2.818

@<SCITEGIC>MOL_PROPERTY
Pdih
SciTegic.value.DoubleValue
11.205

@<SCITEGIC>MOL_PROPERTY
Idih
SciTegic.value.DoubleValue
0.000

@<SCITEGIC>MOL_PROPERTY
Tether
SciTegic.value.DoubleValue
0.000

@<TRIPOS>MOLECULE
guest-s20_confgen4.mol2 : confsearch ligand conformer 719
          17          16           1
SMALL
USER_CHARGES
 
@<TRIPOS>ATOM
       1    C1      20.241197   20.790253   24.585507 C.2        1 MOL1         0.6132
       2    O1      20.790476   20.078482   25.403118 O.co2      1 MOL1        -0.6749
       3    O2      20.539255   21.953641   24.399250 O.co2      1 MOL1        -0.6749
       4    C2      19.110213   20.197304   23.755377 C.3        1 MOL1        -0.1955
       5    H1      18.312871   20.946815   23.692414 H          1 MOL1         0.0733
       6    H2      18.700180   19.337376   24.298563 H          1 MOL1         0.0733
       7    C3      19.559821   19.796840   22.363168 C.2        1 MOL1        -0.1395
       8    H3      19.836280   20.622613   21.708275 H          1 MOL1         0.0816
       9    C4      19.634150   18.533997   21.931985 C.2        1 MOL1        -0.1394
      10    H4      19.362500   17.708378   22.588961 H          1 MOL1         0.0816
      11    C5      20.085539   18.136668   20.544284 C.3        1 MOL1        -0.1826
      12    H5      19.374921   17.417658   20.114668 H          1 MOL1         0.0736
      13    H6      20.092547   19.009977   19.877582 H          1 MOL1         0.0736
      14    C6      21.493127   17.510155   20.578471 C.3        1 MOL1        -0.2882
      15    H7      21.506350   16.610813   21.208101 H          1 MOL1         0.0749
      16    H8      21.815885   17.224130   19.568974 H          1 MOL1         0.0749
      17    H9      22.226265   18.220909   20.982225 H          1 MOL1         0.0749
@<TRIPOS>BOND
    1     1     2    1
    2     1     3    2
    3     1     4    1
    4     4     5    1
    5     4     6    1
    6     4     7    1
    7     7     8    1
    8     7     9    2
    9     9    10    1
   10     9    11    1
   11    11    12    1
   12    11    13    1
   13    11    14    1
   14    14    15    1
   15    14    16    1
   16    14    17    1
@<TRIPOS>SUBSTRUCTURE
       1 MOL1            1 RESIDUE      1      MOL     
@<SCITEGIC>MOL_PROPERTY
VConf Rank
SciTegic.value.IntegerValue
719

@<SCITEGIC>MOL_PROPERTY
Conf_Id
SciTegic.value.IntegerValue
7

@<SCITEGIC>MOL_PROPERTY
Delta U+W
SciTegic.value.DoubleValue
-0.041

@<SCITEGIC>MOL_PROPERTY
U+W
SciTegic.value.DoubleValue
-49.468

@<SCITEGIC>MOL_PROPERTY
Grad RMS
SciTegic.value.DoubleValue
0.000000

@<SCITEGIC>MOL_PROPERTY
U
SciTegic.value.DoubleValue
14.121

@<SCITEGIC>MOL_PROPERTY
W
SciTegic.value.DoubleValue
-63.589

@<SCITEGIC>MOL_PROPERTY
W(PB)
SciTegic.value.DoubleValue
-65.660

@<SCITEGIC>MOL_PROPERTY
W(SA)
SciTegic.value.DoubleValue
2.071

@<SCITEGIC>MOL_PROPERTY
Valence
SciTegic.value.DoubleValue
15.230

@<SCITEGIC>MOL_PROPERTY
Coulomb
SciTegic.value.DoubleValue
-1.333

@<SCITEGIC>MOL_PROPERTY
VdW
SciTegic.value.DoubleValue
0.224

@<SCITEGIC>MOL_PROPERTY
VdW6
SciTegic.value.DoubleValue
-4.212

@<SCITEGIC>MOL_PROPERTY
VdW12
SciTegic.value.DoubleValue
4.436

@<SCITEGIC>MOL_PROPERTY
Bond
SciTegic.value.DoubleValue
0.044

@<SCITEGIC>MOL_PROPERTY
Angle
SciTegic.value.DoubleValue
2.230

@<SCITEGIC>MOL_PROPERTY
Pdih
SciTegic.value.DoubleValue
12.956

@<SCITEGIC>MOL_PROPERTY
Idih
SciTegic.value.DoubleValue
0.000

@<SCITEGIC>MOL_PROPERTY
Tether
SciTegic.value.DoubleValue
0.000

@<TRIPOS>MOLECULE
guest-s20_confgen4.mol2 : confsearch ligand conformer 720
          17          16           1
SMALL
USER_CHARGES
 
@<TRIPOS>ATOM
       1    C1      22.744932   19.928808   21.668062 C.2        1 MOL1         0.6132
       2    O1      22.912270   19.297147   20.643369 O.co2      1 MOL1        -0.6749
       3    O2      23.472871   19.840844   22.637314 O.co2      1 MOL1        -0.6749
       4    C2      21.574456   20.905327   21.731105 C.3        1 MOL1        -0.1955
       5    H1      21.410737   21.299695   20.721432 H          1 MOL1         0.0733
       6    H2      21.883769   21.761085   22.342435 H          1 MOL1         0.0733
       7    C3      20.271534   20.335153   22.273481 C.2        1 MOL1        -0.1395
       8    H3      19.449387   21.048797   22.309996 H          1 MOL1         0.0816
       9    C4      20.074891   19.077564   22.686757 C.2        1 MOL1        -0.1394
      10    H4      20.879794   18.343981   22.659893 H          1 MOL1         0.0816
      11    C5      18.757240   18.560478   23.220009 C.3        1 MOL1        -0.1826
      12    H5      18.926376   18.011229   24.156085 H          1 MOL1         0.0736
      13    H6      18.085193   19.395414   23.461648 H          1 MOL1         0.0736
      14    C6      18.071597   17.633622   22.197331 C.3        1 MOL1        -0.2882
      15    H7      17.116854   17.260335   22.589991 H          1 MOL1         0.0749
      16    H8      17.868908   18.169216   21.260501 H          1 MOL1         0.0749
      17    H9      18.706598   16.768379   21.965846 H          1 MOL1         0.0749
@<TRIPOS>BOND
    1     1     2    1
    2     1     3    2
    3     1     4    1
    4     4     5    1
    5     4     6    1
    6     4     7    1
    7     7     8    1
    8     7     9    2
    9     9    10    1
   10     9    11    1
   11    11    12    1
   12    11    13    1
   13    11    14    1
   14    14    15    1
   15    14    16    1
   16    14    17    1
@<TRIPOS>SUBSTRUCTURE
       1 MOL1            1 RESIDUE      1      MOL     
@<SCITEGIC>MOL_PROPERTY
VConf Rank
SciTegic.value.IntegerValue
720

@<SCITEGIC>MOL_PROPERTY
Conf_Id
SciTegic.value.IntegerValue
39

@<SCITEGIC>MOL_PROPERTY
Delta U+W
SciTegic.value.DoubleValue
-0.422

@<SCITEGIC>MOL_PROPERTY
U+W
SciTegic.value.DoubleValue
-49.849

@<SCITEGIC>MOL_PROPERTY
Grad RMS
SciTegic.value.DoubleValue
0.000000

@<SCITEGIC>MOL_PROPERTY
U
SciTegic.value.DoubleValue
14.465

@<SCITEGIC>MOL_PROPERTY
W
SciTegic.value.DoubleValue
-64.314

@<SCITEGIC>MOL_PROPERTY
W(PB)
SciTegic.value.DoubleValue
-66.406

@<SCITEGIC>MOL_PROPERTY
W(SA)
SciTegic.value.DoubleValue
2.093

@<SCITEGIC>MOL_PROPERTY
Valence
SciTegic.value.DoubleValue
14.072

@<SCITEGIC>MOL_PROPERTY
Coulomb
SciTegic.value.DoubleValue
-0.199

@<SCITEGIC>MOL_PROPERTY
VdW
SciTegic.value.DoubleValue
0.592

@<SCITEGIC>MOL_PROPERTY
VdW6
SciTegic.value.DoubleValue
-5.019

@<SCITEGIC>MOL_PROPERTY
VdW12
SciTegic.value.DoubleValue
5.611

@<SCITEGIC>MOL_PROPERTY
Bond
SciTegic.value.DoubleValue
0.085

@<SCITEGIC>MOL_PROPERTY
Angle
SciTegic.value.DoubleValue
2.748

@<SCITEGIC>MOL_PROPERTY
Pdih
SciTegic.value.DoubleValue
11.238

@<SCITEGIC>MOL_PROPERTY
Idih
SciTegic.value.DoubleValue
0.001

@<SCITEGIC>MOL_PROPERTY
Tether
SciTegic.value.DoubleValue
0.000

@<TRIPOS>MOLECULE
guest-s20_confgen4.mol2 : confsearch ligand conformer 721
          17          16           1
SMALL
USER_CHARGES
 
@<TRIPOS>ATOM
       1    C1      20.642962   17.931501   19.289230 C.2        1 MOL1         0.6132
       2    O1      20.290830   18.562096   18.311828 O.co2      1 MOL1        -0.6749
       3    O2      20.517856   16.727160   19.392808 O.co2      1 MOL1        -0.6749
       4    C2      21.280422   18.693323   20.443733 C.3        1 MOL1        -0.1955
       5    H1      21.953520   19.446028   20.017256 H          1 MOL1         0.0733
       6    H2      21.902426   17.993505   21.014702 H          1 MOL1         0.0733
       7    C3      20.252336   19.360588   21.337344 C.2        1 MOL1        -0.1395
       8    H3      19.702932   20.183147   20.880449 H          1 MOL1         0.0816
       9    C4      20.004284   18.996122   22.599034 C.2        1 MOL1        -0.1394
      10    H4      20.551935   18.171587   23.054316 H          1 MOL1         0.0816
      11    C5      18.976095   19.660202   23.487373 C.3        1 MOL1        -0.1826
      12    H5      18.302220   20.290388   22.890732 H          1 MOL1         0.0736
      13    H6      18.350343   18.894941   23.966272 H          1 MOL1         0.0736
      14    C6      19.653816   20.521492   24.570855 C.3        1 MOL1        -0.2882
      15    H7      20.265638   21.311104   24.115015 H          1 MOL1         0.0749
      16    H8      18.902810   21.000222   25.212644 H          1 MOL1         0.0749
      17    H9      20.305287   19.908706   25.207650 H          1 MOL1         0.0749
@<TRIPOS>BOND
    1     1     2    1
    2     1     3    2
    3     1     4    1
    4     4     5    1
    5     4     6    1
    6     4     7    1
    7     7     8    1
    8     7     9    2
    9     9    10    1
   10     9    11    1
   11    11    12    1
   12    11    13    1
   13    11    14    1
   14    14    15    1
   15    14    16    1
   16    14    17    1
@<TRIPOS>SUBSTRUCTURE
       1 MOL1            1 RESIDUE      1      MOL     
@<SCITEGIC>MOL_PROPERTY
VConf Rank
SciTegic.value.IntegerValue
721

@<SCITEGIC>MOL_PROPERTY
Conf_Id
SciTegic.value.IntegerValue
38

@<SCITEGIC>MOL_PROPERTY
Delta U+W
SciTegic.value.DoubleValue
0.000

@<SCITEGIC>MOL_PROPERTY
U+W
SciTegic.value.DoubleValue
-49.427

@<SCITEGIC>MOL_PROPERTY
Grad RMS
SciTegic.value.DoubleValue
0.000000

@<SCITEGIC>MOL_PROPERTY
U
SciTegic.value.DoubleValue
13.666

@<SCITEGIC>MOL_PROPERTY
W
SciTegic.value.DoubleValue
-63.093

@<SCITEGIC>MOL_PROPERTY
W(PB)
SciTegic.value.DoubleValue
-65.225

@<SCITEGIC>MOL_PROPERTY
W(SA)
SciTegic.value.DoubleValue
2.132

@<SCITEGIC>MOL_PROPERTY
Valence
SciTegic.value.DoubleValue
15.226

@<SCITEGIC>MOL_PROPERTY
Coulomb
SciTegic.value.DoubleValue
-1.822

@<SCITEGIC>MOL_PROPERTY
VdW
SciTegic.value.DoubleValue
0.261

@<SCITEGIC>MOL_PROPERTY
VdW6
SciTegic.value.DoubleValue
-4.165

@<SCITEGIC>MOL_PROPERTY
VdW12
SciTegic.value.DoubleValue
4.426

@<SCITEGIC>MOL_PROPERTY
Bond
SciTegic.value.DoubleValue
0.044

@<SCITEGIC>MOL_PROPERTY
Angle
SciTegic.value.DoubleValue
2.229

@<SCITEGIC>MOL_PROPERTY
Pdih
SciTegic.value.DoubleValue
12.953

@<SCITEGIC>MOL_PROPERTY
Idih
SciTegic.value.DoubleValue
0.000

@<SCITEGIC>MOL_PROPERTY
Tether
SciTegic.value.DoubleValue
0.000

@<TRIPOS>MOLECULE
guest-s20_confgen4.mol2 : confsearch ligand conformer 722
          17          16           1
SMALL
USER_CHARGES
 
@<TRIPOS>ATOM
       1    C1      17.035675   20.077384   21.866843 C.2        1 MOL1         0.6132
       2    O1      16.438429   19.205002   21.267623 O.co2      1 MOL1        -0.6749
       3    O2      16.796824   21.262469   21.742415 O.co2      1 MOL1        -0.6749
       4    C2      18.140361   19.665018   22.830808 C.3        1 MOL1        -0.1955
       5    H1      17.951884   18.631987   23.146980 H          1 MOL1         0.0733
       6    H2      18.057065   20.294107   23.724573 H          1 MOL1         0.0733
       7    C3      19.523224   19.803894   22.223234 C.2        1 MOL1        -0.1395
       8    H3      19.846003   20.826595   22.030630 H          1 MOL1         0.0816
       9    C4      20.320483   18.772933   21.927045 C.2        1 MOL1        -0.1394
      10    H4      19.995807   17.750397   22.116957 H          1 MOL1         0.0816
      11    C5      21.697512   18.913137   21.317573 C.3        1 MOL1        -0.1826
      12    H5      21.796874   18.228166   20.464652 H          1 MOL1         0.0736
      13    H6      21.842381   19.928952   20.924695 H          1 MOL1         0.0736
      14    C6      22.795835   18.605707   22.354026 C.3        1 MOL1        -0.2882
      15    H7      22.698076   17.581084   22.736149 H          1 MOL1         0.0749
      16    H8      23.792657   18.708390   21.905822 H          1 MOL1         0.0749
      17    H9      22.732436   19.295884   23.205634 H          1 MOL1         0.0749
@<TRIPOS>BOND
    1     1     2    1
    2     1     3    2
    3     1     4    1
    4     4     5    1
    5     4     6    1
    6     4     7    1
    7     7     8    1
    8     7     9    2
    9     9    10    1
   10     9    11    1
   11    11    12    1
   12    11    13    1
   13    11    14    1
   14    14    15    1
   15    14    16    1
   16    14    17    1
@<TRIPOS>SUBSTRUCTURE
       1 MOL1            1 RESIDUE      1      MOL     
@<SCITEGIC>MOL_PROPERTY
VConf Rank
SciTegic.value.IntegerValue
722

@<SCITEGIC>MOL_PROPERTY
Conf_Id
SciTegic.value.IntegerValue
35

@<SCITEGIC>MOL_PROPERTY
Delta U+W
SciTegic.value.DoubleValue
-0.102

@<SCITEGIC>MOL_PROPERTY
U+W
SciTegic.value.DoubleValue
-49.529

@<SCITEGIC>MOL_PROPERTY
Grad RMS
SciTegic.value.DoubleValue
0.000000

@<SCITEGIC>MOL_PROPERTY
U
SciTegic.value.DoubleValue
13.666

@<SCITEGIC>MOL_PROPERTY
W
SciTegic.value.DoubleValue
-63.195

@<SCITEGIC>MOL_PROPERTY
W(PB)
SciTegic.value.DoubleValue
-65.299

@<SCITEGIC>MOL_PROPERTY
W(SA)
SciTegic.value.DoubleValue
2.103

@<SCITEGIC>MOL_PROPERTY
Valence
SciTegic.value.DoubleValue
15.226

@<SCITEGIC>MOL_PROPERTY
Coulomb
SciTegic.value.DoubleValue
-1.822

@<SCITEGIC>MOL_PROPERTY
VdW
SciTegic.value.DoubleValue
0.261

@<SCITEGIC>MOL_PROPERTY
VdW6
SciTegic.value.DoubleValue
-4.165

@<SCITEGIC>MOL_PROPERTY
VdW12
SciTegic.value.DoubleValue
4.426

@<SCITEGIC>MOL_PROPERTY
Bond
SciTegic.value.DoubleValue
0.044

@<SCITEGIC>MOL_PROPERTY
Angle
SciTegic.value.DoubleValue
2.229

@<SCITEGIC>MOL_PROPERTY
Pdih
SciTegic.value.DoubleValue
12.953

@<SCITEGIC>MOL_PROPERTY
Idih
SciTegic.value.DoubleValue
0.000

@<SCITEGIC>MOL_PROPERTY
Tether
SciTegic.value.DoubleValue
0.000

@<TRIPOS>MOLECULE
guest-s20_confgen4.mol2 : confsearch ligand conformer 723
          17          16           1
SMALL
USER_CHARGES
 
@<TRIPOS>ATOM
       1    C1      17.872947   18.741720   20.455058 C.2        1 MOL1         0.6132
       2    O1      17.031863   18.074633   21.024743 O.co2      1 MOL1        -0.6749
       3    O2      17.620298   19.758175   19.838749 O.co2      1 MOL1        -0.6749
       4    C2      19.320508   18.271329   20.509788 C.3        1 MOL1        -0.1955
       5    H1      19.849506   18.688230   19.644375 H          1 MOL1         0.0733
       6    H2      19.322996   17.181517   20.392254 H          1 MOL1         0.0733
       7    C3      20.007426   18.656586   21.806371 C.2        1 MOL1        -0.1395
       8    H3      19.626717   18.148371   22.690603 H          1 MOL1         0.0816
       9    C4      21.000735   19.550616   21.888584 C.2        1 MOL1        -0.1394
      10    H4      21.352519   20.042529   20.982299 H          1 MOL1         0.0816
      11    C5      21.728602   19.985151   23.149528 C.3        1 MOL1        -0.1826
      12    H5      22.802999   19.793496   23.025250 H          1 MOL1         0.0736
      13    H6      21.633796   21.074045   23.258354 H          1 MOL1         0.0736
      14    C6      21.243487   19.306041   24.449336 C.3        1 MOL1        -0.2882
      15    H7      21.374265   18.217183   24.397503 H          1 MOL1         0.0749
      16    H8      21.815493   19.672487   25.311633 H          1 MOL1         0.0749
      17    H9      20.182707   19.521011   24.633790 H          1 MOL1         0.0749
@<TRIPOS>BOND
    1     1     2    1
    2     1     3    2
    3     1     4    1
    4     4     5    1
    5     4     6    1
    6     4     7    1
    7     7     8    1
    8     7     9    2
    9     9    10    1
   10     9    11    1
   11    11    12    1
   12    11    13    1
   13    11    14    1
   14    14    15    1
   15    14    16    1
   16    14    17    1
@<TRIPOS>SUBSTRUCTURE
       1 MOL1            1 RESIDUE      1      MOL     
@<SCITEGIC>MOL_PROPERTY
VConf Rank
SciTegic.value.IntegerValue
723

@<SCITEGIC>MOL_PROPERTY
Conf_Id
SciTegic.value.IntegerValue
19

@<SCITEGIC>MOL_PROPERTY
Delta U+W
SciTegic.value.DoubleValue
-0.496

@<SCITEGIC>MOL_PROPERTY
U+W
SciTegic.value.DoubleValue
-49.923

@<SCITEGIC>MOL_PROPERTY
Grad RMS
SciTegic.value.DoubleValue
0.000000

@<SCITEGIC>MOL_PROPERTY
U
SciTegic.value.DoubleValue
13.863

@<SCITEGIC>MOL_PROPERTY
W
SciTegic.value.DoubleValue
-63.786

@<SCITEGIC>MOL_PROPERTY
W(PB)
SciTegic.value.DoubleValue
-65.856

@<SCITEGIC>MOL_PROPERTY
W(SA)
SciTegic.value.DoubleValue
2.070

@<SCITEGIC>MOL_PROPERTY
Valence
SciTegic.value.DoubleValue
14.117

@<SCITEGIC>MOL_PROPERTY
Coulomb
SciTegic.value.DoubleValue
-1.228

@<SCITEGIC>MOL_PROPERTY
VdW
SciTegic.value.DoubleValue
0.974

@<SCITEGIC>MOL_PROPERTY
VdW6
SciTegic.value.DoubleValue
-4.885

@<SCITEGIC>MOL_PROPERTY
VdW12
SciTegic.value.DoubleValue
5.859

@<SCITEGIC>MOL_PROPERTY
Bond
SciTegic.value.DoubleValue
0.094

@<SCITEGIC>MOL_PROPERTY
Angle
SciTegic.value.DoubleValue
2.818

@<SCITEGIC>MOL_PROPERTY
Pdih
SciTegic.value.DoubleValue
11.205

@<SCITEGIC>MOL_PROPERTY
Idih
SciTegic.value.DoubleValue
0.000

@<SCITEGIC>MOL_PROPERTY
Tether
SciTegic.value.DoubleValue
0.000

@<TRIPOS>MOLECULE
guest-s20_confgen4.mol2 : confsearch ligand conformer 724
          17          16           1
SMALL
USER_CHARGES
 
@<TRIPOS>ATOM
       1    C1      20.852886   16.847248   24.006359 C.2        1 MOL1         0.6132
       2    O1      21.751760   17.324572   24.670438 O.co2      1 MOL1        -0.6749
       3    O2      19.924427   16.223522   24.481682 O.co2      1 MOL1        -0.6749
       4    C2      20.895740   17.030161   22.494892 C.3        1 MOL1        -0.1955
       5    H1      20.602726   16.079606   22.034378 H          1 MOL1         0.0733
       6    H2      21.934937   17.221939   22.201729 H          1 MOL1         0.0733
       7    C3      19.982168   18.143309   22.018394 C.2        1 MOL1        -0.1395
       8    H3      18.915931   17.952317   22.136185 H          1 MOL1         0.0816
       9    C4      20.411828   19.294786   21.493313 C.2        1 MOL1        -0.1394
      10    H4      21.478250   19.487352   21.380521 H          1 MOL1         0.0816
      11    C5      19.499233   20.404690   21.021489 C.3        1 MOL1        -0.1826
      12    H5      19.806326   20.737285   20.020691 H          1 MOL1         0.0736
      13    H6      18.466674   20.040509   20.929818 H          1 MOL1         0.0736
      14    C6      19.533705   21.600186   21.993390 C.3        1 MOL1        -0.2882
      15    H7      20.549130   22.009744   22.074632 H          1 MOL1         0.0749
      16    H8      18.869476   22.402393   21.646502 H          1 MOL1         0.0749
      17    H9      19.206379   21.296391   22.996509 H          1 MOL1         0.0749
@<TRIPOS>BOND
    1     1     2    1
    2     1     3    2
    3     1     4    1
    4     4     5    1
    5     4     6    1
    6     4     7    1
    7     7     8    1
    8     7     9    2
    9     9    10    1
   10     9    11    1
   11    11    12    1
   12    11    13    1
   13    11    14    1
   14    14    15    1
   15    14    16    1
   16    14    17    1
@<TRIPOS>SUBSTRUCTURE
       1 MOL1            1 RESIDUE      1      MOL     
@<SCITEGIC>MOL_PROPERTY
VConf Rank
SciTegic.value.IntegerValue
724

@<SCITEGIC>MOL_PROPERTY
Conf_Id
SciTegic.value.IntegerValue
7

@<SCITEGIC>MOL_PROPERTY
Delta U+W
SciTegic.value.DoubleValue
-0.041

@<SCITEGIC>MOL_PROPERTY
U+W
SciTegic.value.DoubleValue
-49.468

@<SCITEGIC>MOL_PROPERTY
Grad RMS
SciTegic.value.DoubleValue
0.000000

@<SCITEGIC>MOL_PROPERTY
U
SciTegic.value.DoubleValue
14.121

@<SCITEGIC>MOL_PROPERTY
W
SciTegic.value.DoubleValue
-63.589

@<SCITEGIC>MOL_PROPERTY
W(PB)
SciTegic.value.DoubleValue
-65.660

@<SCITEGIC>MOL_PROPERTY
W(SA)
SciTegic.value.DoubleValue
2.071

@<SCITEGIC>MOL_PROPERTY
Valence
SciTegic.value.DoubleValue
15.230

@<SCITEGIC>MOL_PROPERTY
Coulomb
SciTegic.value.DoubleValue
-1.333

@<SCITEGIC>MOL_PROPERTY
VdW
SciTegic.value.DoubleValue
0.224

@<SCITEGIC>MOL_PROPERTY
VdW6
SciTegic.value.DoubleValue
-4.212

@<SCITEGIC>MOL_PROPERTY
VdW12
SciTegic.value.DoubleValue
4.436

@<SCITEGIC>MOL_PROPERTY
Bond
SciTegic.value.DoubleValue
0.044

@<SCITEGIC>MOL_PROPERTY
Angle
SciTegic.value.DoubleValue
2.230

@<SCITEGIC>MOL_PROPERTY
Pdih
SciTegic.value.DoubleValue
12.956

@<SCITEGIC>MOL_PROPERTY
Idih
SciTegic.value.DoubleValue
0.000

@<SCITEGIC>MOL_PROPERTY
Tether
SciTegic.value.DoubleValue
0.000

@<TRIPOS>MOLECULE
guest-s20_confgen4.mol2 : confsearch ligand conformer 725
          17          16           1
SMALL
USER_CHARGES
 
@<TRIPOS>ATOM
       1    C1      22.188974   20.358050   20.779928 C.2        1 MOL1         0.6132
       2    O1      21.589722   20.721368   19.787008 O.co2      1 MOL1        -0.6749
       3    O2      23.163318   19.632301   20.747956 O.co2      1 MOL1        -0.6749
       4    C2      21.709326   20.862470   22.137528 C.3        1 MOL1        -0.1955
       5    H1      21.288863   21.864731   21.994518 H          1 MOL1         0.0733
       6    H2      22.589877   20.993494   22.777203 H          1 MOL1         0.0733
       7    C3      20.691779   19.978609   22.844820 C.2        1 MOL1        -0.1395
       8    H3      20.363028   20.357002   23.811923 H          1 MOL1         0.0816
       9    C4      20.195224   18.825223   22.382077 C.2        1 MOL1        -0.1394
      10    H4      20.506411   18.425115   21.417811 H          1 MOL1         0.0816
      11    C5      19.184322   17.982016   23.127073 C.3        1 MOL1        -0.1826
      12    H5      19.510449   16.933157   23.134573 H          1 MOL1         0.0736
      13    H6      19.117577   18.298713   24.177027 H          1 MOL1         0.0736
      14    C6      17.791668   18.082242   22.474765 C.3        1 MOL1        -0.2882
      15    H7      17.062618   17.467488   23.018477 H          1 MOL1         0.0749
      16    H8      17.433094   19.120029   22.478985 H          1 MOL1         0.0749
      17    H9      17.821157   17.735065   21.433584 H          1 MOL1         0.0749
@<TRIPOS>BOND
    1     1     2    1
    2     1     3    2
    3     1     4    1
    4     4     5    1
    5     4     6    1
    6     4     7    1
    7     7     8    1
    8     7     9    2
    9     9    10    1
   10     9    11    1
   11    11    12    1
   12    11    13    1
   13    11    14    1
   14    14    15    1
   15    14    16    1
   16    14    17    1
@<TRIPOS>SUBSTRUCTURE
       1 MOL1            1 RESIDUE      1      MOL     
@<SCITEGIC>MOL_PROPERTY
VConf Rank
SciTegic.value.IntegerValue
725

@<SCITEGIC>MOL_PROPERTY
Conf_Id
SciTegic.value.IntegerValue
39

@<SCITEGIC>MOL_PROPERTY
Delta U+W
SciTegic.value.DoubleValue
-0.422

@<SCITEGIC>MOL_PROPERTY
U+W
SciTegic.value.DoubleValue
-49.849

@<SCITEGIC>MOL_PROPERTY
Grad RMS
SciTegic.value.DoubleValue
0.000000

@<SCITEGIC>MOL_PROPERTY
U
SciTegic.value.DoubleValue
14.465

@<SCITEGIC>MOL_PROPERTY
W
SciTegic.value.DoubleValue
-64.314

@<SCITEGIC>MOL_PROPERTY
W(PB)
SciTegic.value.DoubleValue
-66.406

@<SCITEGIC>MOL_PROPERTY
W(SA)
SciTegic.value.DoubleValue
2.093

@<SCITEGIC>MOL_PROPERTY
Valence
SciTegic.value.DoubleValue
14.072

@<SCITEGIC>MOL_PROPERTY
Coulomb
SciTegic.value.DoubleValue
-0.199

@<SCITEGIC>MOL_PROPERTY
VdW
SciTegic.value.DoubleValue
0.592

@<SCITEGIC>MOL_PROPERTY
VdW6
SciTegic.value.DoubleValue
-5.019

@<SCITEGIC>MOL_PROPERTY
VdW12
SciTegic.value.DoubleValue
5.611

@<SCITEGIC>MOL_PROPERTY
Bond
SciTegic.value.DoubleValue
0.085

@<SCITEGIC>MOL_PROPERTY
Angle
SciTegic.value.DoubleValue
2.748

@<SCITEGIC>MOL_PROPERTY
Pdih
SciTegic.value.DoubleValue
11.238

@<SCITEGIC>MOL_PROPERTY
Idih
SciTegic.value.DoubleValue
0.001

@<SCITEGIC>MOL_PROPERTY
Tether
SciTegic.value.DoubleValue
0.000

@<TRIPOS>MOLECULE
guest-s20_confgen4.mol2 : confsearch ligand conformer 726
          17          16           1
SMALL
USER_CHARGES
 
@<TRIPOS>ATOM
       1    C1      22.452506   20.099789   20.144965 C.2        1 MOL1         0.6132
       2    O1      23.517662   19.536804   20.304500 O.co2      1 MOL1        -0.6749
       3    O2      22.350069   21.281059   19.878646 O.co2      1 MOL1        -0.6749
       4    C2      21.178106   19.277045   20.281358 C.3        1 MOL1        -0.1955
       5    H1      21.352196   18.307605   19.800329 H          1 MOL1         0.0733
       6    H2      20.383935   19.778154   19.714946 H          1 MOL1         0.0733
       7    C3      20.769402   19.074690   21.727995 C.2        1 MOL1        -0.1395
       8    H3      21.436146   18.444538   22.315841 H          1 MOL1         0.0816
       9    C4      19.679709   19.613826   22.283088 C.2        1 MOL1        -0.1394
      10    H4      19.015031   20.246270   21.695484 H          1 MOL1         0.0816
      11    C5      19.275779   19.414016   23.726777 C.3        1 MOL1        -0.1826
      12    H5      20.110158   18.993217   24.304669 H          1 MOL1         0.0736
      13    H6      19.034769   20.384206   24.181947 H          1 MOL1         0.0736
      14    C6      18.056323   18.478066   23.836254 C.3        1 MOL1        -0.2882
      15    H7      18.282349   17.491761   23.409973 H          1 MOL1         0.0749
      16    H8      17.767539   18.337416   24.885972 H          1 MOL1         0.0749
      17    H9      17.194035   18.893648   23.298498 H          1 MOL1         0.0749
@<TRIPOS>BOND
    1     1     2    1
    2     1     3    2
    3     1     4    1
    4     4     5    1
    5     4     6    1
    6     4     7    1
    7     7     8    1
    8     7     9    2
    9     9    10    1
   10     9    11    1
   11    11    12    1
   12    11    13    1
   13    11    14    1
   14    14    15    1
   15    14    16    1
   16    14    17    1
@<TRIPOS>SUBSTRUCTURE
       1 MOL1            1 RESIDUE      1      MOL     
@<SCITEGIC>MOL_PROPERTY
VConf Rank
SciTegic.value.IntegerValue
726

@<SCITEGIC>MOL_PROPERTY
Conf_Id
SciTegic.value.IntegerValue
38

@<SCITEGIC>MOL_PROPERTY
Delta U+W
SciTegic.value.DoubleValue
0.000

@<SCITEGIC>MOL_PROPERTY
U+W
SciTegic.value.DoubleValue
-49.427

@<SCITEGIC>MOL_PROPERTY
Grad RMS
SciTegic.value.DoubleValue
0.000000

@<SCITEGIC>MOL_PROPERTY
U
SciTegic.value.DoubleValue
13.666

@<SCITEGIC>MOL_PROPERTY
W
SciTegic.value.DoubleValue
-63.093

@<SCITEGIC>MOL_PROPERTY
W(PB)
SciTegic.value.DoubleValue
-65.225

@<SCITEGIC>MOL_PROPERTY
W(SA)
SciTegic.value.DoubleValue
2.132

@<SCITEGIC>MOL_PROPERTY
Valence
SciTegic.value.DoubleValue
15.226

@<SCITEGIC>MOL_PROPERTY
Coulomb
SciTegic.value.DoubleValue
-1.822

@<SCITEGIC>MOL_PROPERTY
VdW
SciTegic.value.DoubleValue
0.261

@<SCITEGIC>MOL_PROPERTY
VdW6
SciTegic.value.DoubleValue
-4.165

@<SCITEGIC>MOL_PROPERTY
VdW12
SciTegic.value.DoubleValue
4.426

@<SCITEGIC>MOL_PROPERTY
Bond
SciTegic.value.DoubleValue
0.044

@<SCITEGIC>MOL_PROPERTY
Angle
SciTegic.value.DoubleValue
2.229

@<SCITEGIC>MOL_PROPERTY
Pdih
SciTegic.value.DoubleValue
12.953

@<SCITEGIC>MOL_PROPERTY
Idih
SciTegic.value.DoubleValue
0.000

@<SCITEGIC>MOL_PROPERTY
Tether
SciTegic.value.DoubleValue
0.000

@<TRIPOS>MOLECULE
guest-s20_confgen4.mol2 : confsearch ligand conformer 727
          17          16           1
SMALL
USER_CHARGES
 
@<TRIPOS>ATOM
       1    C1      17.001651   18.840986   22.672034 C.2        1 MOL1         0.6132
       2    O1      16.693813   17.706763   22.362854 O.co2      1 MOL1        -0.6749
       3    O2      16.279985   19.803636   22.500385 O.co2      1 MOL1        -0.6749
       4    C2      18.363304   19.070026   23.314721 C.3        1 MOL1        -0.1955
       5    H1      18.687466   18.129493   23.776193 H          1 MOL1         0.0733
       6    H2      18.233249   19.796613   24.125069 H          1 MOL1         0.0733
       7    C3      19.395759   19.573800   22.324270 C.2        1 MOL1        -0.1395
       8    H3      19.222365   20.579633   21.942910 H          1 MOL1         0.0816
       9    C4      20.455260   18.867094   21.918986 C.2        1 MOL1        -0.1394
      10    H4      20.626305   17.860160   22.298312 H          1 MOL1         0.0816
      11    C5      21.481583   19.369552   20.928270 C.3        1 MOL1        -0.1826
      12    H5      21.657739   18.606600   20.157941 H          1 MOL1         0.0736
      13    H6      21.108663   20.262600   20.408064 H          1 MOL1         0.0736
      14    C6      22.811094   19.706599   21.631023 C.3        1 MOL1        -0.2882
      15    H7      23.226920   18.820492   22.128347 H          1 MOL1         0.0749
      16    H8      23.551992   20.069945   20.907051 H          1 MOL1         0.0749
      17    H9      22.664378   20.487112   22.389226 H          1 MOL1         0.0749
@<TRIPOS>BOND
    1     1     2    1
    2     1     3    2
    3     1     4    1
    4     4     5    1
    5     4     6    1
    6     4     7    1
    7     7     8    1
    8     7     9    2
    9     9    10    1
   10     9    11    1
   11    11    12    1
   12    11    13    1
   13    11    14    1
   14    14    15    1
   15    14    16    1
   16    14    17    1
@<TRIPOS>SUBSTRUCTURE
       1 MOL1            1 RESIDUE      1      MOL     
@<SCITEGIC>MOL_PROPERTY
VConf Rank
SciTegic.value.IntegerValue
727

@<SCITEGIC>MOL_PROPERTY
Conf_Id
SciTegic.value.IntegerValue
35

@<SCITEGIC>MOL_PROPERTY
Delta U+W
SciTegic.value.DoubleValue
-0.102

@<SCITEGIC>MOL_PROPERTY
U+W
SciTegic.value.DoubleValue
-49.529

@<SCITEGIC>MOL_PROPERTY
Grad RMS
SciTegic.value.DoubleValue
0.000000

@<SCITEGIC>MOL_PROPERTY
U
SciTegic.value.DoubleValue
13.666

@<SCITEGIC>MOL_PROPERTY
W
SciTegic.value.DoubleValue
-63.195

@<SCITEGIC>MOL_PROPERTY
W(PB)
SciTegic.value.DoubleValue
-65.299

@<SCITEGIC>MOL_PROPERTY
W(SA)
SciTegic.value.DoubleValue
2.103

@<SCITEGIC>MOL_PROPERTY
Valence
SciTegic.value.DoubleValue
15.226

@<SCITEGIC>MOL_PROPERTY
Coulomb
SciTegic.value.DoubleValue
-1.822

@<SCITEGIC>MOL_PROPERTY
VdW
SciTegic.value.DoubleValue
0.261

@<SCITEGIC>MOL_PROPERTY
VdW6
SciTegic.value.DoubleValue
-4.165

@<SCITEGIC>MOL_PROPERTY
VdW12
SciTegic.value.DoubleValue
4.426

@<SCITEGIC>MOL_PROPERTY
Bond
SciTegic.value.DoubleValue
0.044

@<SCITEGIC>MOL_PROPERTY
Angle
SciTegic.value.DoubleValue
2.229

@<SCITEGIC>MOL_PROPERTY
Pdih
SciTegic.value.DoubleValue
12.953

@<SCITEGIC>MOL_PROPERTY
Idih
SciTegic.value.DoubleValue
0.000

@<SCITEGIC>MOL_PROPERTY
Tether
SciTegic.value.DoubleValue
0.000

@<TRIPOS>MOLECULE
guest-s20_confgen4.mol2 : confsearch ligand conformer 728
          17          16           1
SMALL
USER_CHARGES
 
@<TRIPOS>ATOM
       1    C1      22.368677   21.122759   22.129261 C.2        1 MOL1         0.6132
       2    O1      21.960217   22.174620   22.580613 O.co2      1 MOL1        -0.6749
       3    O2      23.444594   20.638934   22.421093 O.co2      1 MOL1        -0.6749
       4    C2      21.486680   20.376607   21.136773 C.3        1 MOL1        -0.1955
       5    H1      22.128902   19.732968   20.523695 H          1 MOL1         0.0733
       6    H2      21.039440   21.117236   20.463753 H          1 MOL1         0.0733
       7    C3      20.398556   19.569687   21.819614 C.2        1 MOL1        -0.1395
       8    H3      19.634703   20.165702   22.315984 H          1 MOL1         0.0816
       9    C4      20.357527   18.231457   21.832590 C.2        1 MOL1        -0.1394
      10    H4      21.142347   17.668438   21.328455 H          1 MOL1         0.0816
      11    C5      19.303575   17.362189   22.497532 C.3        1 MOL1        -0.1826
      12    H5      18.852090   16.706886   21.740402 H          1 MOL1         0.0736
      13    H6      19.795841   16.690268   23.213575 H          1 MOL1         0.0736
      14    C6      18.182783   18.137520   23.224661 C.3        1 MOL1        -0.2882
      15    H7      17.631948   18.781182   22.526320 H          1 MOL1         0.0749
      16    H8      17.464864   17.441563   23.677723 H          1 MOL1         0.0749
      17    H9      18.594122   18.765105   24.026176 H          1 MOL1         0.0749
@<TRIPOS>BOND
    1     1     2    1
    2     1     3    2
    3     1     4    1
    4     4     5    1
    5     4     6    1
    6     4     7    1
    7     7     8    1
    8     7     9    2
    9     9    10    1
   10     9    11    1
   11    11    12    1
   12    11    13    1
   13    11    14    1
   14    14    15    1
   15    14    16    1
   16    14    17    1
@<TRIPOS>SUBSTRUCTURE
       1 MOL1            1 RESIDUE      1      MOL     
@<SCITEGIC>MOL_PROPERTY
VConf Rank
SciTegic.value.IntegerValue
728

@<SCITEGIC>MOL_PROPERTY
Conf_Id
SciTegic.value.IntegerValue
19

@<SCITEGIC>MOL_PROPERTY
Delta U+W
SciTegic.value.DoubleValue
-0.496

@<SCITEGIC>MOL_PROPERTY
U+W
SciTegic.value.DoubleValue
-49.923

@<SCITEGIC>MOL_PROPERTY
Grad RMS
SciTegic.value.DoubleValue
0.000000

@<SCITEGIC>MOL_PROPERTY
U
SciTegic.value.DoubleValue
13.863

@<SCITEGIC>MOL_PROPERTY
W
SciTegic.value.DoubleValue
-63.786

@<SCITEGIC>MOL_PROPERTY
W(PB)
SciTegic.value.DoubleValue
-65.856

@<SCITEGIC>MOL_PROPERTY
W(SA)
SciTegic.value.DoubleValue
2.070

@<SCITEGIC>MOL_PROPERTY
Valence
SciTegic.value.DoubleValue
14.117

@<SCITEGIC>MOL_PROPERTY
Coulomb
SciTegic.value.DoubleValue
-1.228

@<SCITEGIC>MOL_PROPERTY
VdW
SciTegic.value.DoubleValue
0.974

@<SCITEGIC>MOL_PROPERTY
VdW6
SciTegic.value.DoubleValue
-4.885

@<SCITEGIC>MOL_PROPERTY
VdW12
SciTegic.value.DoubleValue
5.859

@<SCITEGIC>MOL_PROPERTY
Bond
SciTegic.value.DoubleValue
0.094

@<SCITEGIC>MOL_PROPERTY
Angle
SciTegic.value.DoubleValue
2.818

@<SCITEGIC>MOL_PROPERTY
Pdih
SciTegic.value.DoubleValue
11.205

@<SCITEGIC>MOL_PROPERTY
Idih
SciTegic.value.DoubleValue
0.000

@<SCITEGIC>MOL_PROPERTY
Tether
SciTegic.value.DoubleValue
0.000

@<TRIPOS>MOLECULE
guest-s20_confgen4.mol2 : confsearch ligand conformer 729
          17          16           1
SMALL
USER_CHARGES
 
@<TRIPOS>ATOM
       1    C1      22.552899   17.950794   23.493465 C.2        1 MOL1         0.6132
       2    O1      22.121989   16.939551   24.011651 O.co2      1 MOL1        -0.6749
       3    O2      23.580872   17.988681   22.846288 O.co2      1 MOL1        -0.6749
       4    C2      21.769339   19.244555   23.672473 C.3        1 MOL1        -0.1955
       5    H1      22.489596   20.048004   23.865309 H          1 MOL1         0.0733
       6    H2      21.148067   19.147993   24.570999 H          1 MOL1         0.0733
       7    C3      20.923032   19.583525   22.460191 C.2        1 MOL1        -0.1395
       8    H3      21.481271   19.845959   21.562018 H          1 MOL1         0.0816
       9    C4      19.586702   19.566286   22.448365 C.2        1 MOL1        -0.1394
      10    H4      19.029089   19.298784   23.345343 H          1 MOL1         0.0816
      11    C5      18.744744   19.901789   21.237629 C.3        1 MOL1        -0.1826
      12    H5      17.954536   20.610520   21.520107 H          1 MOL1         0.0736
      13    H6      19.354892   20.398816   20.470888 H          1 MOL1         0.0736
      14    C6      18.107091   18.633232   20.638335 C.3        1 MOL1        -0.2882
      15    H7      17.459543   18.136097   21.372477 H          1 MOL1         0.0749
      16    H8      17.497675   18.882357   19.759918 H          1 MOL1         0.0749
      17    H9      18.880238   17.919064   20.325466 H          1 MOL1         0.0749
@<TRIPOS>BOND
    1     1     2    1
    2     1     3    2
    3     1     4    1
    4     4     5    1
    5     4     6    1
    6     4     7    1
    7     7     8    1
    8     7     9    2
    9     9    10    1
   10     9    11    1
   11    11    12    1
   12    11    13    1
   13    11    14    1
   14    14    15    1
   15    14    16    1
   16    14    17    1
@<TRIPOS>SUBSTRUCTURE
       1 MOL1            1 RESIDUE      1      MOL     
@<SCITEGIC>MOL_PROPERTY
VConf Rank
SciTegic.value.IntegerValue
729

@<SCITEGIC>MOL_PROPERTY
Conf_Id
SciTegic.value.IntegerValue
7

@<SCITEGIC>MOL_PROPERTY
Delta U+W
SciTegic.value.DoubleValue
-0.041

@<SCITEGIC>MOL_PROPERTY
U+W
SciTegic.value.DoubleValue
-49.468

@<SCITEGIC>MOL_PROPERTY
Grad RMS
SciTegic.value.DoubleValue
0.000000

@<SCITEGIC>MOL_PROPERTY
U
SciTegic.value.DoubleValue
14.121

@<SCITEGIC>MOL_PROPERTY
W
SciTegic.value.DoubleValue
-63.589

@<SCITEGIC>MOL_PROPERTY
W(PB)
SciTegic.value.DoubleValue
-65.660

@<SCITEGIC>MOL_PROPERTY
W(SA)
SciTegic.value.DoubleValue
2.071

@<SCITEGIC>MOL_PROPERTY
Valence
SciTegic.value.DoubleValue
15.230

@<SCITEGIC>MOL_PROPERTY
Coulomb
SciTegic.value.DoubleValue
-1.333

@<SCITEGIC>MOL_PROPERTY
VdW
SciTegic.value.DoubleValue
0.224

@<SCITEGIC>MOL_PROPERTY
VdW6
SciTegic.value.DoubleValue
-4.212

@<SCITEGIC>MOL_PROPERTY
VdW12
SciTegic.value.DoubleValue
4.436

@<SCITEGIC>MOL_PROPERTY
Bond
SciTegic.value.DoubleValue
0.044

@<SCITEGIC>MOL_PROPERTY
Angle
SciTegic.value.DoubleValue
2.230

@<SCITEGIC>MOL_PROPERTY
Pdih
SciTegic.value.DoubleValue
12.956

@<SCITEGIC>MOL_PROPERTY
Idih
SciTegic.value.DoubleValue
0.000

@<SCITEGIC>MOL_PROPERTY
Tether
SciTegic.value.DoubleValue
0.000

@<TRIPOS>MOLECULE
guest-s20_confgen4.mol2 : confsearch ligand conformer 730
          17          16           1
SMALL
USER_CHARGES
 
@<TRIPOS>ATOM
       1    C1      20.583321   16.631861   21.597774 C.2        1 MOL1         0.6132
       2    O1      21.763209   16.525005   21.868769 O.co2      1 MOL1        -0.6749
       3    O2      20.115181   16.346564   20.513093 O.co2      1 MOL1        -0.6749
       4    C2      19.634373   17.124156   22.686222 C.3        1 MOL1        -0.1955
       5    H1      20.024074   16.782086   23.652084 H          1 MOL1         0.0733
       6    H2      18.674049   16.613162   22.550637 H          1 MOL1         0.0733
       7    C3      19.409833   18.628972   22.730834 C.2        1 MOL1        -0.1395
       8    H3      18.729275   18.958787   23.514803 H          1 MOL1         0.0816
       9    C4      19.965624   19.531830   21.914171 C.2        1 MOL1        -0.1394
      10    H4      20.650161   19.228793   21.122773 H          1 MOL1         0.0816
      11    C5      19.707487   21.019757   22.000068 C.3        1 MOL1        -0.1826
      12    H5      19.477759   21.414151   21.000969 H          1 MOL1         0.0736
      13    H6      18.829381   21.222720   22.628470 H          1 MOL1         0.0736
      14    C6      20.929358   21.761226   22.576517 C.3        1 MOL1        -0.2882
      15    H7      20.737022   22.840400   22.635268 H          1 MOL1         0.0749
      16    H8      21.162740   21.400989   23.587138 H          1 MOL1         0.0749
      17    H9      21.814558   21.606614   21.945666 H          1 MOL1         0.0749
@<TRIPOS>BOND
    1     1     2    1
    2     1     3    2
    3     1     4    1
    4     4     5    1
    5     4     6    1
    6     4     7    1
    7     7     8    1
    8     7     9    2
    9     9    10    1
   10     9    11    1
   11    11    12    1
   12    11    13    1
   13    11    14    1
   14    14    15    1
   15    14    16    1
   16    14    17    1
@<TRIPOS>SUBSTRUCTURE
       1 MOL1            1 RESIDUE      1      MOL     
@<SCITEGIC>MOL_PROPERTY
VConf Rank
SciTegic.value.IntegerValue
730

@<SCITEGIC>MOL_PROPERTY
Conf_Id
SciTegic.value.IntegerValue
39

@<SCITEGIC>MOL_PROPERTY
Delta U+W
SciTegic.value.DoubleValue
-0.422

@<SCITEGIC>MOL_PROPERTY
U+W
SciTegic.value.DoubleValue
-49.849

@<SCITEGIC>MOL_PROPERTY
Grad RMS
SciTegic.value.DoubleValue
0.000000

@<SCITEGIC>MOL_PROPERTY
U
SciTegic.value.DoubleValue
14.465

@<SCITEGIC>MOL_PROPERTY
W
SciTegic.value.DoubleValue
-64.314

@<SCITEGIC>MOL_PROPERTY
W(PB)
SciTegic.value.DoubleValue
-66.406

@<SCITEGIC>MOL_PROPERTY
W(SA)
SciTegic.value.DoubleValue
2.093

@<SCITEGIC>MOL_PROPERTY
Valence
SciTegic.value.DoubleValue
14.072

@<SCITEGIC>MOL_PROPERTY
Coulomb
SciTegic.value.DoubleValue
-0.199

@<SCITEGIC>MOL_PROPERTY
VdW
SciTegic.value.DoubleValue
0.592

@<SCITEGIC>MOL_PROPERTY
VdW6
SciTegic.value.DoubleValue
-5.019

@<SCITEGIC>MOL_PROPERTY
VdW12
SciTegic.value.DoubleValue
5.611

@<SCITEGIC>MOL_PROPERTY
Bond
SciTegic.value.DoubleValue
0.085

@<SCITEGIC>MOL_PROPERTY
Angle
SciTegic.value.DoubleValue
2.748

@<SCITEGIC>MOL_PROPERTY
Pdih
SciTegic.value.DoubleValue
11.238

@<SCITEGIC>MOL_PROPERTY
Idih
SciTegic.value.DoubleValue
0.001

@<SCITEGIC>MOL_PROPERTY
Tether
SciTegic.value.DoubleValue
0.000

@<TRIPOS>MOLECULE
guest-s20_confgen4.mol2 : confsearch ligand conformer 731
          17          16           1
SMALL
USER_CHARGES
 
@<TRIPOS>ATOM
       1    C1      23.143581   19.499731   21.234665 C.2        1 MOL1         0.6132
       2    O1      23.703018   20.549510   21.483571 O.co2      1 MOL1        -0.6749
       3    O2      23.308489   18.878474   20.203324 O.co2      1 MOL1        -0.6749
       4    C2      22.188382   18.930843   22.275609 C.3        1 MOL1        -0.1955
       5    H1      22.641843   19.078620   23.262546 H          1 MOL1         0.0733
       6    H2      22.112383   17.848484   22.116348 H          1 MOL1         0.0733
       7    C3      20.820600   19.584774   22.227730 C.2        1 MOL1        -0.1395
       8    H3      20.793997   20.630243   22.533487 H          1 MOL1         0.0816
       9    C4      19.703071   18.961295   21.842206 C.2        1 MOL1        -0.1394
      10    H4      19.730896   17.916718   21.533748 H          1 MOL1         0.0816
      11    C5      18.340700   19.616044   21.791497 C.3        1 MOL1        -0.1826
      12    H5      18.436252   20.708285   21.862905 H          1 MOL1         0.0736
      13    H6      17.863214   19.403920   20.825295 H          1 MOL1         0.0736
      14    C6      17.438858   19.107263   22.932936 C.3        1 MOL1        -0.2882
      15    H7      17.884276   19.331452   23.911170 H          1 MOL1         0.0749
      16    H8      16.451591   19.585378   22.890547 H          1 MOL1         0.0749
      17    H9      17.294563   18.021073   22.863656 H          1 MOL1         0.0749
@<TRIPOS>BOND
    1     1     2    1
    2     1     3    2
    3     1     4    1
    4     4     5    1
    5     4     6    1
    6     4     7    1
    7     7     8    1
    8     7     9    2
    9     9    10    1
   10     9    11    1
   11    11    12    1
   12    11    13    1
   13    11    14    1
   14    14    15    1
   15    14    16    1
   16    14    17    1
@<TRIPOS>SUBSTRUCTURE
       1 MOL1            1 RESIDUE      1      MOL     
@<SCITEGIC>MOL_PROPERTY
VConf Rank
SciTegic.value.IntegerValue
731

@<SCITEGIC>MOL_PROPERTY
Conf_Id
SciTegic.value.IntegerValue
38

@<SCITEGIC>MOL_PROPERTY
Delta U+W
SciTegic.value.DoubleValue
0.000

@<SCITEGIC>MOL_PROPERTY
U+W
SciTegic.value.DoubleValue
-49.427

@<SCITEGIC>MOL_PROPERTY
Grad RMS
SciTegic.value.DoubleValue
0.000000

@<SCITEGIC>MOL_PROPERTY
U
SciTegic.value.DoubleValue
13.666

@<SCITEGIC>MOL_PROPERTY
W
SciTegic.value.DoubleValue
-63.093

@<SCITEGIC>MOL_PROPERTY
W(PB)
SciTegic.value.DoubleValue
-65.225

@<SCITEGIC>MOL_PROPERTY
W(SA)
SciTegic.value.DoubleValue
2.132

@<SCITEGIC>MOL_PROPERTY
Valence
SciTegic.value.DoubleValue
15.226

@<SCITEGIC>MOL_PROPERTY
Coulomb
SciTegic.value.DoubleValue
-1.822

@<SCITEGIC>MOL_PROPERTY
VdW
SciTegic.value.DoubleValue
0.261

@<SCITEGIC>MOL_PROPERTY
VdW6
SciTegic.value.DoubleValue
-4.165

@<SCITEGIC>MOL_PROPERTY
VdW12
SciTegic.value.DoubleValue
4.426

@<SCITEGIC>MOL_PROPERTY
Bond
SciTegic.value.DoubleValue
0.044

@<SCITEGIC>MOL_PROPERTY
Angle
SciTegic.value.DoubleValue
2.229

@<SCITEGIC>MOL_PROPERTY
Pdih
SciTegic.value.DoubleValue
12.953

@<SCITEGIC>MOL_PROPERTY
Idih
SciTegic.value.DoubleValue
0.000

@<SCITEGIC>MOL_PROPERTY
Tether
SciTegic.value.DoubleValue
0.000

@<TRIPOS>MOLECULE
guest-s20_confgen4.mol2 : confsearch ligand conformer 732
          17          16           1
SMALL
USER_CHARGES
 
@<TRIPOS>ATOM
       1    C1      21.838552   21.378785   23.682522 C.2        1 MOL1         0.6132
       2    O1      21.426641   22.496494   23.441954 O.co2      1 MOL1        -0.6749
       3    O2      23.016118   21.111808   23.820441 O.co2      1 MOL1        -0.6749
       4    C2      20.825219   20.250713   23.824696 C.3        1 MOL1        -0.1955
       5    H1      19.858214   20.690454   24.097035 H          1 MOL1         0.0733
       6    H2      21.139732   19.621969   24.665689 H          1 MOL1         0.0733
       7    C3      20.706594   19.414257   22.564928 C.2        1 MOL1        -0.1395
       8    H3      21.584187   18.817244   22.318741 H          1 MOL1         0.0816
       9    C4      19.623441   19.384140   21.782560 C.2        1 MOL1        -0.1394
      10    H4      18.747421   19.983813   22.027598 H          1 MOL1         0.0816
      11    C5      19.508417   18.552499   20.524600 C.3        1 MOL1        -0.1826
      12    H5      19.126053   19.173608   19.703287 H          1 MOL1         0.0736
      13    H6      20.497297   18.189955   20.211716 H          1 MOL1         0.0736
      14    C6      18.568900   17.349951   20.739650 C.3        1 MOL1        -0.2882
      15    H7      17.560739   17.685122   21.016595 H          1 MOL1         0.0749
      16    H8      18.488874   16.750733   19.823343 H          1 MOL1         0.0749
      17    H9      18.945127   16.699557   21.540301 H          1 MOL1         0.0749
@<TRIPOS>BOND
    1     1     2    1
    2     1     3    2
    3     1     4    1
    4     4     5    1
    5     4     6    1
    6     4     7    1
    7     7     8    1
    8     7     9    2
    9     9    10    1
   10     9    11    1
   11    11    12    1
   12    11    13    1
   13    11    14    1
   14    14    15    1
   15    14    16    1
   16    14    17    1
@<TRIPOS>SUBSTRUCTURE
       1 MOL1            1 RESIDUE      1      MOL     
@<SCITEGIC>MOL_PROPERTY
VConf Rank
SciTegic.value.IntegerValue
732

@<SCITEGIC>MOL_PROPERTY
Conf_Id
SciTegic.value.IntegerValue
35

@<SCITEGIC>MOL_PROPERTY
Delta U+W
SciTegic.value.DoubleValue
-0.102

@<SCITEGIC>MOL_PROPERTY
U+W
SciTegic.value.DoubleValue
-49.529

@<SCITEGIC>MOL_PROPERTY
Grad RMS
SciTegic.value.DoubleValue
0.000000

@<SCITEGIC>MOL_PROPERTY
U
SciTegic.value.DoubleValue
13.666

@<SCITEGIC>MOL_PROPERTY
W
SciTegic.value.DoubleValue
-63.195

@<SCITEGIC>MOL_PROPERTY
W(PB)
SciTegic.value.DoubleValue
-65.299

@<SCITEGIC>MOL_PROPERTY
W(SA)
SciTegic.value.DoubleValue
2.103

@<SCITEGIC>MOL_PROPERTY
Valence
SciTegic.value.DoubleValue
15.226

@<SCITEGIC>MOL_PROPERTY
Coulomb
SciTegic.value.DoubleValue
-1.822

@<SCITEGIC>MOL_PROPERTY
VdW
SciTegic.value.DoubleValue
0.261

@<SCITEGIC>MOL_PROPERTY
VdW6
SciTegic.value.DoubleValue
-4.165

@<SCITEGIC>MOL_PROPERTY
VdW12
SciTegic.value.DoubleValue
4.426

@<SCITEGIC>MOL_PROPERTY
Bond
SciTegic.value.DoubleValue
0.044

@<SCITEGIC>MOL_PROPERTY
Angle
SciTegic.value.DoubleValue
2.229

@<SCITEGIC>MOL_PROPERTY
Pdih
SciTegic.value.DoubleValue
12.953

@<SCITEGIC>MOL_PROPERTY
Idih
SciTegic.value.DoubleValue
0.000

@<SCITEGIC>MOL_PROPERTY
Tether
SciTegic.value.DoubleValue
0.000

@<TRIPOS>MOLECULE
guest-s20_confgen4.mol2 : confsearch ligand conformer 733
          17          16           1
SMALL
USER_CHARGES
 
@<TRIPOS>ATOM
       1    C1      22.750851   17.689305   21.631129 C.2        1 MOL1         0.6132
       2    O1      23.505875   18.424534   21.025861 O.co2      1 MOL1        -0.6749
       3    O2      23.094852   16.997513   22.569178 O.co2      1 MOL1        -0.6749
       4    C2      21.296924   17.625825   21.181951 C.3        1 MOL1        -0.1955
       5    H1      20.880665   16.663277   21.502596 H          1 MOL1         0.0733
       6    H2      21.284674   17.630985   20.085897 H          1 MOL1         0.0733
       7    C3      20.473038   18.781760   21.717144 C.2        1 MOL1        -0.1395
       8    H3      20.737901   19.755651   21.309131 H          1 MOL1         0.0816
       9    C4      19.496295   18.646682   22.622925 C.2        1 MOL1        -0.1394
      10    H4      19.262357   17.656240   23.012005 H          1 MOL1         0.0816
      11    C5      18.636924   19.757150   23.203382 C.3        1 MOL1        -0.1826
      12    H5      17.580257   19.529762   23.007792 H          1 MOL1         0.0736
      13    H6      18.741839   19.754335   24.296774 H          1 MOL1         0.0736
      14    C6      18.953723   21.172434   22.671746 C.3        1 MOL1        -0.2882
      15    H7      18.806493   21.227266   21.585138 H          1 MOL1         0.0749
      16    H8      18.293790   21.915393   23.138148 H          1 MOL1         0.0749
      17    H9      19.990406   21.455009   22.897422 H          1 MOL1         0.0749
@<TRIPOS>BOND
    1     1     2    1
    2     1     3    2
    3     1     4    1
    4     4     5    1
    5     4     6    1
    6     4     7    1
    7     7     8    1
    8     7     9    2
    9     9    10    1
   10     9    11    1
   11    11    12    1
   12    11    13    1
   13    11    14    1
   14    14    15    1
   15    14    16    1
   16    14    17    1
@<TRIPOS>SUBSTRUCTURE
       1 MOL1            1 RESIDUE      1      MOL     
@<SCITEGIC>MOL_PROPERTY
VConf Rank
SciTegic.value.IntegerValue
733

@<SCITEGIC>MOL_PROPERTY
Conf_Id
SciTegic.value.IntegerValue
19

@<SCITEGIC>MOL_PROPERTY
Delta U+W
SciTegic.value.DoubleValue
-0.496

@<SCITEGIC>MOL_PROPERTY
U+W
SciTegic.value.DoubleValue
-49.923

@<SCITEGIC>MOL_PROPERTY
Grad RMS
SciTegic.value.DoubleValue
0.000000

@<SCITEGIC>MOL_PROPERTY
U
SciTegic.value.DoubleValue
13.863

@<SCITEGIC>MOL_PROPERTY
W
SciTegic.value.DoubleValue
-63.786

@<SCITEGIC>MOL_PROPERTY
W(PB)
SciTegic.value.DoubleValue
-65.856

@<SCITEGIC>MOL_PROPERTY
W(SA)
SciTegic.value.DoubleValue
2.070

@<SCITEGIC>MOL_PROPERTY
Valence
SciTegic.value.DoubleValue
14.117

@<SCITEGIC>MOL_PROPERTY
Coulomb
SciTegic.value.DoubleValue
-1.228

@<SCITEGIC>MOL_PROPERTY
VdW
SciTegic.value.DoubleValue
0.974

@<SCITEGIC>MOL_PROPERTY
VdW6
SciTegic.value.DoubleValue
-4.885

@<SCITEGIC>MOL_PROPERTY
VdW12
SciTegic.value.DoubleValue
5.859

@<SCITEGIC>MOL_PROPERTY
Bond
SciTegic.value.DoubleValue
0.094

@<SCITEGIC>MOL_PROPERTY
Angle
SciTegic.value.DoubleValue
2.818

@<SCITEGIC>MOL_PROPERTY
Pdih
SciTegic.value.DoubleValue
11.205

@<SCITEGIC>MOL_PROPERTY
Idih
SciTegic.value.DoubleValue
0.000

@<SCITEGIC>MOL_PROPERTY
Tether
SciTegic.value.DoubleValue
0.000

@<TRIPOS>MOLECULE
guest-s20_confgen4.mol2 : confsearch ligand conformer 734
          17          16           1
SMALL
USER_CHARGES
 
@<TRIPOS>ATOM
       1    C1      21.582903   20.046373   19.840224 C.2        1 MOL1         0.6132
       2    O1      22.701744   20.240271   20.273134 O.co2      1 MOL1        -0.6749
       3    O2      21.357551   19.468711   18.794985 O.co2      1 MOL1        -0.6749
       4    C2      20.397424   20.564006   20.644292 C.3        1 MOL1        -0.1955
       5    H1      19.680166   21.000457   19.939639 H          1 MOL1         0.0733
       6    H2      20.749456   21.378003   21.289378 H          1 MOL1         0.0733
       7    C3      19.728705   19.474134   21.460232 C.2        1 MOL1        -0.1395
       8    H3      19.218078   18.706001   20.880191 H          1 MOL1         0.0816
       9    C4      19.746748   19.417158   22.795389 C.2        1 MOL1        -0.1394
      10    H4      20.261886   20.182716   23.374709 H          1 MOL1         0.0816
      11    C5      19.081776   18.327908   23.606982 C.3        1 MOL1        -0.1826
      12    H5      18.486484   18.777093   24.413445 H          1 MOL1         0.0736
      13    H6      18.383811   17.754337   22.981627 H          1 MOL1         0.0736
      14    C6      20.128009   17.371656   24.211938 C.3        1 MOL1        -0.2882
      15    H7      20.816883   17.912836   24.873756 H          1 MOL1         0.0749
      16    H8      19.640081   16.583057   24.799393 H          1 MOL1         0.0749
      17    H9      20.719873   16.891290   23.421605 H          1 MOL1         0.0749
@<TRIPOS>BOND
    1     1     2    1
    2     1     3    2
    3     1     4    1
    4     4     5    1
    5     4     6    1
    6     4     7    1
    7     7     8    1
    8     7     9    2
    9     9    10    1
   10     9    11    1
   11    11    12    1
   12    11    13    1
   13    11    14    1
   14    14    15    1
   15    14    16    1
   16    14    17    1
@<TRIPOS>SUBSTRUCTURE
       1 MOL1            1 RESIDUE      1      MOL     
@<SCITEGIC>MOL_PROPERTY
VConf Rank
SciTegic.value.IntegerValue
734

@<SCITEGIC>MOL_PROPERTY
Conf_Id
SciTegic.value.IntegerValue
7

@<SCITEGIC>MOL_PROPERTY
Delta U+W
SciTegic.value.DoubleValue
-0.041

@<SCITEGIC>MOL_PROPERTY
U+W
SciTegic.value.DoubleValue
-49.468

@<SCITEGIC>MOL_PROPERTY
Grad RMS
SciTegic.value.DoubleValue
0.000000

@<SCITEGIC>MOL_PROPERTY
U
SciTegic.value.DoubleValue
14.121

@<SCITEGIC>MOL_PROPERTY
W
SciTegic.value.DoubleValue
-63.589

@<SCITEGIC>MOL_PROPERTY
W(PB)
SciTegic.value.DoubleValue
-65.660

@<SCITEGIC>MOL_PROPERTY
W(SA)
SciTegic.value.DoubleValue
2.071

@<SCITEGIC>MOL_PROPERTY
Valence
SciTegic.value.DoubleValue
15.230

@<SCITEGIC>MOL_PROPERTY
Coulomb
SciTegic.value.DoubleValue
-1.333

@<SCITEGIC>MOL_PROPERTY
VdW
SciTegic.value.DoubleValue
0.224

@<SCITEGIC>MOL_PROPERTY
VdW6
SciTegic.value.DoubleValue
-4.212

@<SCITEGIC>MOL_PROPERTY
VdW12
SciTegic.value.DoubleValue
4.436

@<SCITEGIC>MOL_PROPERTY
Bond
SciTegic.value.DoubleValue
0.044

@<SCITEGIC>MOL_PROPERTY
Angle
SciTegic.value.DoubleValue
2.230

@<SCITEGIC>MOL_PROPERTY
Pdih
SciTegic.value.DoubleValue
12.956

@<SCITEGIC>MOL_PROPERTY
Idih
SciTegic.value.DoubleValue
0.000

@<SCITEGIC>MOL_PROPERTY
Tether
SciTegic.value.DoubleValue
0.000

@<TRIPOS>MOLECULE
guest-s20_confgen4.mol2 : confsearch ligand conformer 735
          17          16           1
SMALL
USER_CHARGES
 
@<TRIPOS>ATOM
       1    C1      21.707053   17.566259   20.773857 C.2        1 MOL1         0.6132
       2    O1      22.695002   17.491144   21.477638 O.co2      1 MOL1        -0.6749
       3    O2      21.741034   17.881672   19.600638 O.co2      1 MOL1        -0.6749
       4    C2      20.354662   17.219010   21.388701 C.3        1 MOL1        -0.1955
       5    H1      20.519817   16.449605   22.151923 H          1 MOL1         0.0733
       6    H2      19.743873   16.745881   20.611008 H          1 MOL1         0.0733
       7    C3      19.590723   18.386109   21.997924 C.2        1 MOL1        -0.1395
       8    H3      18.628322   18.116268   22.430956 H          1 MOL1         0.0816
       9    C4      20.000803   19.659370   22.038402 C.2        1 MOL1        -0.1394
      10    H4      20.959164   19.955739   21.613617 H          1 MOL1         0.0816
      11    C5      19.200741   20.784715   22.656011 C.3        1 MOL1        -0.1826
      12    H5      19.166845   21.637803   21.964916 H          1 MOL1         0.0736
      13    H6      18.160601   20.472007   22.821766 H          1 MOL1         0.0736
      14    C6      19.818033   21.232728   23.995142 C.3        1 MOL1        -0.2882
      15    H7      19.234391   22.050216   24.438014 H          1 MOL1         0.0749
      16    H8      19.838968   20.401417   24.712134 H          1 MOL1         0.0749
      17    H9      20.847374   21.587128   23.852607 H          1 MOL1         0.0749
@<TRIPOS>BOND
    1     1     2    1
    2     1     3    2
    3     1     4    1
    4     4     5    1
    5     4     6    1
    6     4     7    1
    7     7     8    1
    8     7     9    2
    9     9    10    1
   10     9    11    1
   11    11    12    1
   12    11    13    1
   13    11    14    1
   14    14    15    1
   15    14    16    1
   16    14    17    1
@<TRIPOS>SUBSTRUCTURE
       1 MOL1            1 RESIDUE      1      MOL     
@<SCITEGIC>MOL_PROPERTY
VConf Rank
SciTegic.value.IntegerValue
735

@<SCITEGIC>MOL_PROPERTY
Conf_Id
SciTegic.value.IntegerValue
39

@<SCITEGIC>MOL_PROPERTY
Delta U+W
SciTegic.value.DoubleValue
-0.422

@<SCITEGIC>MOL_PROPERTY
U+W
SciTegic.value.DoubleValue
-49.849

@<SCITEGIC>MOL_PROPERTY
Grad RMS
SciTegic.value.DoubleValue
0.000000

@<SCITEGIC>MOL_PROPERTY
U
SciTegic.value.DoubleValue
14.465

@<SCITEGIC>MOL_PROPERTY
W
SciTegic.value.DoubleValue
-64.314

@<SCITEGIC>MOL_PROPERTY
W(PB)
SciTegic.value.DoubleValue
-66.406

@<SCITEGIC>MOL_PROPERTY
W(SA)
SciTegic.value.DoubleValue
2.093

@<SCITEGIC>MOL_PROPERTY
Valence
SciTegic.value.DoubleValue
14.072

@<SCITEGIC>MOL_PROPERTY
Coulomb
SciTegic.value.DoubleValue
-0.199

@<SCITEGIC>MOL_PROPERTY
VdW
SciTegic.value.DoubleValue
0.592

@<SCITEGIC>MOL_PROPERTY
VdW6
SciTegic.value.DoubleValue
-5.019

@<SCITEGIC>MOL_PROPERTY
VdW12
SciTegic.value.DoubleValue
5.611

@<SCITEGIC>MOL_PROPERTY
Bond
SciTegic.value.DoubleValue
0.085

@<SCITEGIC>MOL_PROPERTY
Angle
SciTegic.value.DoubleValue
2.748

@<SCITEGIC>MOL_PROPERTY
Pdih
SciTegic.value.DoubleValue
11.238

@<SCITEGIC>MOL_PROPERTY
Idih
SciTegic.value.DoubleValue
0.001

@<SCITEGIC>MOL_PROPERTY
Tether
SciTegic.value.DoubleValue
0.000

@<TRIPOS>MOLECULE
guest-s20_confgen4.mol2 : confsearch ligand conformer 736
          17          16           1
SMALL
USER_CHARGES
 
@<TRIPOS>ATOM
       1    C1      18.593485   17.699515   24.394858 C.2        1 MOL1         0.6132
       2    O1      19.093348   16.652392   24.756286 O.co2      1 MOL1        -0.6749
       3    O2      17.396385   17.862799   24.264066 O.co2      1 MOL1        -0.6749
       4    C2      19.519195   18.871226   24.095257 C.3        1 MOL1        -0.1955
       5    H1      20.301673   18.884649   24.862758 H          1 MOL1         0.0733
       6    H2      18.945185   19.799049   24.206142 H          1 MOL1         0.0733
       7    C3      20.143972   18.779984   22.716100 C.2        1 MOL1        -0.1395
       8    H3      20.857507   17.967592   22.581606 H          1 MOL1         0.0816
       9    C4      19.865925   19.613370   21.708934 C.2        1 MOL1        -0.1394
      10    H4      19.150098   20.423691   21.843221 H          1 MOL1         0.0816
      11    C5      20.487077   19.518558   20.333251 C.3        1 MOL1        -0.1826
      12    H5      20.984162   18.547523   20.202033 H          1 MOL1         0.0736
      13    H6      19.701995   19.576819   19.567231 H          1 MOL1         0.0736
      14    C6      21.509514   20.649477   20.108073 C.3        1 MOL1        -0.2882
      15    H7      22.319175   20.596050   20.847801 H          1 MOL1         0.0749
      16    H8      21.956334   20.575816   19.108067 H          1 MOL1         0.0749
      17    H9      21.030682   21.633599   20.195558 H          1 MOL1         0.0749
@<TRIPOS>BOND
    1     1     2    1
    2     1     3    2
    3     1     4    1
    4     4     5    1
    5     4     6    1
    6     4     7    1
    7     7     8    1
    8     7     9    2
    9     9    10    1
   10     9    11    1
   11    11    12    1
   12    11    13    1
   13    11    14    1
   14    14    15    1
   15    14    16    1
   16    14    17    1
@<TRIPOS>SUBSTRUCTURE
       1 MOL1            1 RESIDUE      1      MOL     
@<SCITEGIC>MOL_PROPERTY
VConf Rank
SciTegic.value.IntegerValue
736

@<SCITEGIC>MOL_PROPERTY
Conf_Id
SciTegic.value.IntegerValue
38

@<SCITEGIC>MOL_PROPERTY
Delta U+W
SciTegic.value.DoubleValue
0.000

@<SCITEGIC>MOL_PROPERTY
U+W
SciTegic.value.DoubleValue
-49.427

@<SCITEGIC>MOL_PROPERTY
Grad RMS
SciTegic.value.DoubleValue
0.000000

@<SCITEGIC>MOL_PROPERTY
U
SciTegic.value.DoubleValue
13.666

@<SCITEGIC>MOL_PROPERTY
W
SciTegic.value.DoubleValue
-63.093

@<SCITEGIC>MOL_PROPERTY
W(PB)
SciTegic.value.DoubleValue
-65.225

@<SCITEGIC>MOL_PROPERTY
W(SA)
SciTegic.value.DoubleValue
2.132

@<SCITEGIC>MOL_PROPERTY
Valence
SciTegic.value.DoubleValue
15.226

@<SCITEGIC>MOL_PROPERTY
Coulomb
SciTegic.value.DoubleValue
-1.822

@<SCITEGIC>MOL_PROPERTY
VdW
SciTegic.value.DoubleValue
0.261

@<SCITEGIC>MOL_PROPERTY
VdW6
SciTegic.value.DoubleValue
-4.165

@<SCITEGIC>MOL_PROPERTY
VdW12
SciTegic.value.DoubleValue
4.426

@<SCITEGIC>MOL_PROPERTY
Bond
SciTegic.value.DoubleValue
0.044

@<SCITEGIC>MOL_PROPERTY
Angle
SciTegic.value.DoubleValue
2.229

@<SCITEGIC>MOL_PROPERTY
Pdih
SciTegic.value.DoubleValue
12.953

@<SCITEGIC>MOL_PROPERTY
Idih
SciTegic.value.DoubleValue
0.000

@<SCITEGIC>MOL_PROPERTY
Tether
SciTegic.value.DoubleValue
0.000

@<TRIPOS>MOLECULE
guest-s20_confgen4.mol2 : confsearch ligand conformer 737
          17          16           1
SMALL
USER_CHARGES
 
@<TRIPOS>ATOM
       1    C1      18.106269   16.880314   22.735692 C.2        1 MOL1         0.6132
       2    O1      17.028271   17.112283   22.224879 O.co2      1 MOL1        -0.6749
       3    O2      18.235376   16.339174   23.816182 O.co2      1 MOL1        -0.6749
       4    C2      19.365416   17.283993   21.979917 C.3        1 MOL1        -0.1955
       5    H1      19.119857   17.346853   20.912963 H          1 MOL1         0.0733
       6    H2      20.097608   16.476195   22.093334 H          1 MOL1         0.0733
       7    C3      19.949917   18.590839   22.481173 C.2        1 MOL1        -0.1395
       8    H3      20.365329   18.558660   23.487950 H          1 MOL1         0.0816
       9    C4      19.971995   19.724260   21.773292 C.2        1 MOL1        -0.1394
      10    H4      19.553565   19.756544   20.767839 H          1 MOL1         0.0816
      11    C5      20.551687   21.027450   22.276258 C.3        1 MOL1        -0.1826
      12    H5      19.839783   21.844145   22.095324 H          1 MOL1         0.0736
      13    H6      20.711436   20.983290   23.362420 H          1 MOL1         0.0736
      14    C6      21.887500   21.345951   21.576815 C.3        1 MOL1        -0.2882
      15    H7      21.749958   21.433921   20.491102 H          1 MOL1         0.0749
      16    H8      22.302880   22.292916   21.945329 H          1 MOL1         0.0749
      17    H9      22.624678   20.554317   21.765189 H          1 MOL1         0.0749
@<TRIPOS>BOND
    1     1     2    1
    2     1     3    2
    3     1     4    1
    4     4     5    1
    5     4     6    1
    6     4     7    1
    7     7     8    1
    8     7     9    2
    9     9    10    1
   10     9    11    1
   11    11    12    1
   12    11    13    1
   13    11    14    1
   14    14    15    1
   15    14    16    1
   16    14    17    1
@<TRIPOS>SUBSTRUCTURE
       1 MOL1            1 RESIDUE      1      MOL     
@<SCITEGIC>MOL_PROPERTY
VConf Rank
SciTegic.value.IntegerValue
737

@<SCITEGIC>MOL_PROPERTY
Conf_Id
SciTegic.value.IntegerValue
35

@<SCITEGIC>MOL_PROPERTY
Delta U+W
SciTegic.value.DoubleValue
-0.102

@<SCITEGIC>MOL_PROPERTY
U+W
SciTegic.value.DoubleValue
-49.529

@<SCITEGIC>MOL_PROPERTY
Grad RMS
SciTegic.value.DoubleValue
0.000000

@<SCITEGIC>MOL_PROPERTY
U
SciTegic.value.DoubleValue
13.666

@<SCITEGIC>MOL_PROPERTY
W
SciTegic.value.DoubleValue
-63.195

@<SCITEGIC>MOL_PROPERTY
W(PB)
SciTegic.value.DoubleValue
-65.299

@<SCITEGIC>MOL_PROPERTY
W(SA)
SciTegic.value.DoubleValue
2.103

@<SCITEGIC>MOL_PROPERTY
Valence
SciTegic.value.DoubleValue
15.226

@<SCITEGIC>MOL_PROPERTY
Coulomb
SciTegic.value.DoubleValue
-1.822

@<SCITEGIC>MOL_PROPERTY
VdW
SciTegic.value.DoubleValue
0.261

@<SCITEGIC>MOL_PROPERTY
VdW6
SciTegic.value.DoubleValue
-4.165

@<SCITEGIC>MOL_PROPERTY
VdW12
SciTegic.value.DoubleValue
4.426

@<SCITEGIC>MOL_PROPERTY
Bond
SciTegic.value.DoubleValue
0.044

@<SCITEGIC>MOL_PROPERTY
Angle
SciTegic.value.DoubleValue
2.229

@<SCITEGIC>MOL_PROPERTY
Pdih
SciTegic.value.DoubleValue
12.953

@<SCITEGIC>MOL_PROPERTY
Idih
SciTegic.value.DoubleValue
0.000

@<SCITEGIC>MOL_PROPERTY
Tether
SciTegic.value.DoubleValue
0.000

@<TRIPOS>MOLECULE
guest-s20_confgen4.mol2 : confsearch ligand conformer 738
          17          16           1
SMALL
USER_CHARGES
 
@<TRIPOS>ATOM
       1    C1      20.714089   17.788476   19.605898 C.2        1 MOL1         0.6132
       2    O1      20.923908   18.628172   18.752753 O.co2      1 MOL1        -0.6749
       3    O2      21.382151   16.781769   19.736605 O.co2      1 MOL1        -0.6749
       4    C2      19.543895   18.007013   20.555941 C.3        1 MOL1        -0.1955
       5    H1      19.229054   17.030293   20.942566 H          1 MOL1         0.0733
       6    H2      18.707000   18.404632   19.970265 H          1 MOL1         0.0733
       7    C3      19.884986   18.957526   21.688013 C.2        1 MOL1        -0.1395
       8    H3      20.053263   19.988217   21.380689 H          1 MOL1         0.0816
       9    C4      19.983909   18.586648   22.970735 C.2        1 MOL1        -0.1394
      10    H4      19.812821   17.544836   23.239885 H          1 MOL1         0.0816
      11    C5      20.324197   19.481531   24.150556 C.3        1 MOL1        -0.1826
      12    H5      19.511487   19.424930   24.887308 H          1 MOL1         0.0736
      13    H6      21.211348   19.079586   24.658418 H          1 MOL1         0.0736
      14    C6      20.577429   20.962927   23.793671 C.3        1 MOL1        -0.2882
      15    H7      19.689585   21.414251   23.331671 H          1 MOL1         0.0749
      16    H8      20.817126   21.540587   24.695826 H          1 MOL1         0.0749
      17    H9      21.420615   21.061729   23.097419 H          1 MOL1         0.0749
@<TRIPOS>BOND
    1     1     2    1
    2     1     3    2
    3     1     4    1
    4     4     5    1
    5     4     6    1
    6     4     7    1
    7     7     8    1
    8     7     9    2
    9     9    10    1
   10     9    11    1
   11    11    12    1
   12    11    13    1
   13    11    14    1
   14    14    15    1
   15    14    16    1
   16    14    17    1
@<TRIPOS>SUBSTRUCTURE
       1 MOL1            1 RESIDUE      1      MOL     
@<SCITEGIC>MOL_PROPERTY
VConf Rank
SciTegic.value.IntegerValue
738

@<SCITEGIC>MOL_PROPERTY
Conf_Id
SciTegic.value.IntegerValue
19

@<SCITEGIC>MOL_PROPERTY
Delta U+W
SciTegic.value.DoubleValue
-0.496

@<SCITEGIC>MOL_PROPERTY
U+W
SciTegic.value.DoubleValue
-49.923

@<SCITEGIC>MOL_PROPERTY
Grad RMS
SciTegic.value.DoubleValue
0.000000

@<SCITEGIC>MOL_PROPERTY
U
SciTegic.value.DoubleValue
13.863

@<SCITEGIC>MOL_PROPERTY
W
SciTegic.value.DoubleValue
-63.786

@<SCITEGIC>MOL_PROPERTY
W(PB)
SciTegic.value.DoubleValue
-65.856

@<SCITEGIC>MOL_PROPERTY
W(SA)
SciTegic.value.DoubleValue
2.070

@<SCITEGIC>MOL_PROPERTY
Valence
SciTegic.value.DoubleValue
14.117

@<SCITEGIC>MOL_PROPERTY
Coulomb
SciTegic.value.DoubleValue
-1.228

@<SCITEGIC>MOL_PROPERTY
VdW
SciTegic.value.DoubleValue
0.974

@<SCITEGIC>MOL_PROPERTY
VdW6
SciTegic.value.DoubleValue
-4.885

@<SCITEGIC>MOL_PROPERTY
VdW12
SciTegic.value.DoubleValue
5.859

@<SCITEGIC>MOL_PROPERTY
Bond
SciTegic.value.DoubleValue
0.094

@<SCITEGIC>MOL_PROPERTY
Angle
SciTegic.value.DoubleValue
2.818

@<SCITEGIC>MOL_PROPERTY
Pdih
SciTegic.value.DoubleValue
11.205

@<SCITEGIC>MOL_PROPERTY
Idih
SciTegic.value.DoubleValue
0.000

@<SCITEGIC>MOL_PROPERTY
Tether
SciTegic.value.DoubleValue
0.000

@<TRIPOS>MOLECULE
guest-s20_confgen4.mol2 : confsearch ligand conformer 739
          17          16           1
SMALL
USER_CHARGES
 
@<TRIPOS>ATOM
       1    C1      22.734787   19.032616   20.805584 C.2        1 MOL1         0.6132
       2    O1      22.622588   18.062178   20.082760 O.co2      1 MOL1        -0.6749
       3    O2      23.158807   20.106896   20.427259 O.co2      1 MOL1        -0.6749
       4    C2      22.332843   18.894340   22.268167 C.3        1 MOL1        -0.1955
       5    H1      23.087257   19.410867   22.872770 H          1 MOL1         0.0733
       6    H2      22.377866   17.832231   22.537521 H          1 MOL1         0.0733
       7    C3      20.957405   19.468689   22.549341 C.2        1 MOL1        -0.1395
       8    H3      20.876755   20.550983   22.452644 H          1 MOL1         0.0816
       9    C4      19.891849   18.735770   22.886440 C.2        1 MOL1        -0.1394
      10    H4      19.971841   17.653049   22.977953 H          1 MOL1         0.0816
      11    C5      18.520496   19.310178   23.163535 C.3        1 MOL1        -0.1826
      12    H5      18.126577   18.894413   24.100813 H          1 MOL1         0.0736
      13    H6      18.580377   20.398525   23.301821 H          1 MOL1         0.0736
      14    C6      17.545783   18.995512   22.012053 C.3        1 MOL1        -0.2882
      15    H7      17.436556   17.911475   21.876563 H          1 MOL1         0.0749
      16    H8      16.552459   19.414955   22.218069 H          1 MOL1         0.0749
      17    H9      17.907330   19.423330   21.067628 H          1 MOL1         0.0749
@<TRIPOS>BOND
    1     1     2    1
    2     1     3    2
    3     1     4    1
    4     4     5    1
    5     4     6    1
    6     4     7    1
    7     7     8    1
    8     7     9    2
    9     9    10    1
   10     9    11    1
   11    11    12    1
   12    11    13    1
   13    11    14    1
   14    14    15    1
   15    14    16    1
   16    14    17    1
@<TRIPOS>SUBSTRUCTURE
       1 MOL1            1 RESIDUE      1      MOL     
@<SCITEGIC>MOL_PROPERTY
VConf Rank
SciTegic.value.IntegerValue
739

@<SCITEGIC>MOL_PROPERTY
Conf_Id
SciTegic.value.IntegerValue
7

@<SCITEGIC>MOL_PROPERTY
Delta U+W
SciTegic.value.DoubleValue
-0.041

@<SCITEGIC>MOL_PROPERTY
U+W
SciTegic.value.DoubleValue
-49.468

@<SCITEGIC>MOL_PROPERTY
Grad RMS
SciTegic.value.DoubleValue
0.000000

@<SCITEGIC>MOL_PROPERTY
U
SciTegic.value.DoubleValue
14.121

@<SCITEGIC>MOL_PROPERTY
W
SciTegic.value.DoubleValue
-63.589

@<SCITEGIC>MOL_PROPERTY
W(PB)
SciTegic.value.DoubleValue
-65.660

@<SCITEGIC>MOL_PROPERTY
W(SA)
SciTegic.value.DoubleValue
2.071

@<SCITEGIC>MOL_PROPERTY
Valence
SciTegic.value.DoubleValue
15.230

@<SCITEGIC>MOL_PROPERTY
Coulomb
SciTegic.value.DoubleValue
-1.333

@<SCITEGIC>MOL_PROPERTY
VdW
SciTegic.value.DoubleValue
0.224

@<SCITEGIC>MOL_PROPERTY
VdW6
SciTegic.value.DoubleValue
-4.212

@<SCITEGIC>MOL_PROPERTY
VdW12
SciTegic.value.DoubleValue
4.436

@<SCITEGIC>MOL_PROPERTY
Bond
SciTegic.value.DoubleValue
0.044

@<SCITEGIC>MOL_PROPERTY
Angle
SciTegic.value.DoubleValue
2.230

@<SCITEGIC>MOL_PROPERTY
Pdih
SciTegic.value.DoubleValue
12.956

@<SCITEGIC>MOL_PROPERTY
Idih
SciTegic.value.DoubleValue
0.000

@<SCITEGIC>MOL_PROPERTY
Tether
SciTegic.value.DoubleValue
0.000

@<TRIPOS>MOLECULE
guest-s20_confgen4.mol2 : confsearch ligand conformer 740
          17          16           1
SMALL
USER_CHARGES
 
@<TRIPOS>ATOM
       1    C1      19.931758   21.889135   23.127703 C.2        1 MOL1         0.6132
       2    O1      19.780264   22.468936   22.070408 O.co2      1 MOL1        -0.6749
       3    O2      20.797759   22.173996   23.931431 O.co2      1 MOL1        -0.6749
       4    C2      18.965630   20.761368   23.477442 C.3        1 MOL1        -0.1955
       5    H1      17.993442   21.000823   23.031036 H          1 MOL1         0.0733
       6    H2      18.810888   20.776318   24.562592 H          1 MOL1         0.0733
       7    C3      19.397210   19.367949   23.042703 C.2        1 MOL1        -0.1395
       8    H3      18.693464   18.578057   23.302241 H          1 MOL1         0.0816
       9    C4      20.526197   19.061016   22.392952 C.2        1 MOL1        -0.1394
      10    H4      21.246249   19.831854   22.120800 H          1 MOL1         0.0816
      11    C5      20.909605   17.656124   21.984030 C.3        1 MOL1        -0.1826
      12    H5      21.948937   17.455543   22.277418 H          1 MOL1         0.0736
      13    H6      20.286324   16.918696   22.508315 H          1 MOL1         0.0736
      14    C6      20.758694   17.461726   20.462691 C.3        1 MOL1        -0.2882
      15    H7      21.039500   16.441233   20.171483 H          1 MOL1         0.0749
      16    H8      19.720341   17.632247   20.149099 H          1 MOL1         0.0749
      17    H9      21.401145   18.162052   19.912911 H          1 MOL1         0.0749
@<TRIPOS>BOND
    1     1     2    1
    2     1     3    2
    3     1     4    1
    4     4     5    1
    5     4     6    1
    6     4     7    1
    7     7     8    1
    8     7     9    2
    9     9    10    1
   10     9    11    1
   11    11    12    1
   12    11    13    1
   13    11    14    1
   14    14    15    1
   15    14    16    1
   16    14    17    1
@<TRIPOS>SUBSTRUCTURE
       1 MOL1            1 RESIDUE      1      MOL     
@<SCITEGIC>MOL_PROPERTY
VConf Rank
SciTegic.value.IntegerValue
740

@<SCITEGIC>MOL_PROPERTY
Conf_Id
SciTegic.value.IntegerValue
39

@<SCITEGIC>MOL_PROPERTY
Delta U+W
SciTegic.value.DoubleValue
-0.422

@<SCITEGIC>MOL_PROPERTY
U+W
SciTegic.value.DoubleValue
-49.849

@<SCITEGIC>MOL_PROPERTY
Grad RMS
SciTegic.value.DoubleValue
0.000000

@<SCITEGIC>MOL_PROPERTY
U
SciTegic.value.DoubleValue
14.465

@<SCITEGIC>MOL_PROPERTY
W
SciTegic.value.DoubleValue
-64.314

@<SCITEGIC>MOL_PROPERTY
W(PB)
SciTegic.value.DoubleValue
-66.406

@<SCITEGIC>MOL_PROPERTY
W(SA)
SciTegic.value.DoubleValue
2.093

@<SCITEGIC>MOL_PROPERTY
Valence
SciTegic.value.DoubleValue
14.072

@<SCITEGIC>MOL_PROPERTY
Coulomb
SciTegic.value.DoubleValue
-0.199

@<SCITEGIC>MOL_PROPERTY
VdW
SciTegic.value.DoubleValue
0.592

@<SCITEGIC>MOL_PROPERTY
VdW6
SciTegic.value.DoubleValue
-5.019

@<SCITEGIC>MOL_PROPERTY
VdW12
SciTegic.value.DoubleValue
5.611

@<SCITEGIC>MOL_PROPERTY
Bond
SciTegic.value.DoubleValue
0.085

@<SCITEGIC>MOL_PROPERTY
Angle
SciTegic.value.DoubleValue
2.748

@<SCITEGIC>MOL_PROPERTY
Pdih
SciTegic.value.DoubleValue
11.238

@<SCITEGIC>MOL_PROPERTY
Idih
SciTegic.value.DoubleValue
0.001

@<SCITEGIC>MOL_PROPERTY
Tether
SciTegic.value.DoubleValue
0.000

@<TRIPOS>MOLECULE
guest-s20_confgen4.mol2 : confsearch ligand conformer 741
          17          16           1
SMALL
USER_CHARGES
 
@<TRIPOS>ATOM
       1    C1      18.929352   21.420397   24.109486 C.2        1 MOL1         0.6132
       2    O1      19.298158   22.567991   23.954658 O.co2      1 MOL1        -0.6749
       3    O2      18.776526   20.904941   25.199334 O.co2      1 MOL1        -0.6749
       4    C2      18.638217   20.586310   22.868864 C.3        1 MOL1        -0.1955
       5    H1      18.115990   21.227352   22.149243 H          1 MOL1         0.0733
       6    H2      17.942908   19.785860   23.148981 H          1 MOL1         0.0733
       7    C3      19.897328   20.018164   22.242292 C.2        1 MOL1        -0.1395
       8    H3      20.565884   20.752540   21.794044 H          1 MOL1         0.0816
       9    C4      20.205038   18.717736   22.221529 C.2        1 MOL1        -0.1394
      10    H4      19.537503   17.984235   22.672566 H          1 MOL1         0.0816
      11    C5      21.462844   18.153410   21.599611 C.3        1 MOL1        -0.1826
      12    H5      22.188430   18.955159   21.404815 H          1 MOL1         0.0736
      13    H6      21.942919   17.457341   22.300718 H          1 MOL1         0.0736
      14    C6      21.147805   17.419364   20.281663 C.3        1 MOL1        -0.2882
      15    H7      20.689775   18.102858   19.554583 H          1 MOL1         0.0749
      16    H8      22.064154   17.011565   19.835469 H          1 MOL1         0.0749
      17    H9      20.452882   16.586885   20.453385 H          1 MOL1         0.0749
@<TRIPOS>BOND
    1     1     2    1
    2     1     3    2
    3     1     4    1
    4     4     5    1
    5     4     6    1
    6     4     7    1
    7     7     8    1
    8     7     9    2
    9     9    10    1
   10     9    11    1
   11    11    12    1
   12    11    13    1
   13    11    14    1
   14    14    15    1
   15    14    16    1
   16    14    17    1
@<TRIPOS>SUBSTRUCTURE
       1 MOL1            1 RESIDUE      1      MOL     
@<SCITEGIC>MOL_PROPERTY
VConf Rank
SciTegic.value.IntegerValue
741

@<SCITEGIC>MOL_PROPERTY
Conf_Id
SciTegic.value.IntegerValue
38

@<SCITEGIC>MOL_PROPERTY
Delta U+W
SciTegic.value.DoubleValue
0.000

@<SCITEGIC>MOL_PROPERTY
U+W
SciTegic.value.DoubleValue
-49.427

@<SCITEGIC>MOL_PROPERTY
Grad RMS
SciTegic.value.DoubleValue
0.000000

@<SCITEGIC>MOL_PROPERTY
U
SciTegic.value.DoubleValue
13.666

@<SCITEGIC>MOL_PROPERTY
W
SciTegic.value.DoubleValue
-63.093

@<SCITEGIC>MOL_PROPERTY
W(PB)
SciTegic.value.DoubleValue
-65.225

@<SCITEGIC>MOL_PROPERTY
W(SA)
SciTegic.value.DoubleValue
2.132

@<SCITEGIC>MOL_PROPERTY
Valence
SciTegic.value.DoubleValue
15.226

@<SCITEGIC>MOL_PROPERTY
Coulomb
SciTegic.value.DoubleValue
-1.822

@<SCITEGIC>MOL_PROPERTY
VdW
SciTegic.value.DoubleValue
0.261

@<SCITEGIC>MOL_PROPERTY
VdW6
SciTegic.value.DoubleValue
-4.165

@<SCITEGIC>MOL_PROPERTY
VdW12
SciTegic.value.DoubleValue
4.426

@<SCITEGIC>MOL_PROPERTY
Bond
SciTegic.value.DoubleValue
0.044

@<SCITEGIC>MOL_PROPERTY
Angle
SciTegic.value.DoubleValue
2.229

@<SCITEGIC>MOL_PROPERTY
Pdih
SciTegic.value.DoubleValue
12.953

@<SCITEGIC>MOL_PROPERTY
Idih
SciTegic.value.DoubleValue
0.000

@<SCITEGIC>MOL_PROPERTY
Tether
SciTegic.value.DoubleValue
0.000

@<TRIPOS>MOLECULE
guest-s20_confgen4.mol2 : confsearch ligand conformer 742
          17          16           1
SMALL
USER_CHARGES
 
@<TRIPOS>ATOM
       1    C1      19.564698   17.101893   24.353175 C.2        1 MOL1         0.6132
       2    O1      18.692287   17.503723   25.097656 O.co2      1 MOL1        -0.6749
       3    O2      20.530424   16.467724   24.730221 O.co2      1 MOL1        -0.6749
       4    C2      19.440227   17.403674   22.865546 C.3        1 MOL1        -0.1955
       5    H1      18.381656   17.577992   22.638211 H          1 MOL1         0.0733
       6    H2      19.742638   16.505314   22.315087 H          1 MOL1         0.0733
       7    C3      20.289603   18.586004   22.439634 C.2        1 MOL1        -0.1395
       8    H3      21.366348   18.425671   22.485622 H          1 MOL1         0.0816
       9    C4      19.794380   19.758921   22.033127 C.2        1 MOL1        -0.1394
      10    H4      18.717621   19.919628   21.990415 H          1 MOL1         0.0816
      11    C5      20.642910   20.938097   21.612576 C.3        1 MOL1        -0.1826
      12    H5      20.288656   21.847927   22.115811 H          1 MOL1         0.0736
      13    H6      21.686296   20.791407   21.924101 H          1 MOL1         0.0736
      14    C6      20.590301   21.141815   20.085883 C.3        1 MOL1        -0.2882
      15    H7      19.561637   21.329072   19.750899 H          1 MOL1         0.0749
      16    H8      21.207257   21.999156   19.786854 H          1 MOL1         0.0749
      17    H9      20.964587   20.253086   19.560840 H          1 MOL1         0.0749
@<TRIPOS>BOND
    1     1     2    1
    2     1     3    2
    3     1     4    1
    4     4     5    1
    5     4     6    1
    6     4     7    1
    7     7     8    1
    8     7     9    2
    9     9    10    1
   10     9    11    1
   11    11    12    1
   12    11    13    1
   13    11    14    1
   14    14    15    1
   15    14    16    1
   16    14    17    1
@<TRIPOS>SUBSTRUCTURE
       1 MOL1            1 RESIDUE      1      MOL     
@<SCITEGIC>MOL_PROPERTY
VConf Rank
SciTegic.value.IntegerValue
742

@<SCITEGIC>MOL_PROPERTY
Conf_Id
SciTegic.value.IntegerValue
35

@<SCITEGIC>MOL_PROPERTY
Delta U+W
SciTegic.value.DoubleValue
-0.102

@<SCITEGIC>MOL_PROPERTY
U+W
SciTegic.value.DoubleValue
-49.529

@<SCITEGIC>MOL_PROPERTY
Grad RMS
SciTegic.value.DoubleValue
0.000000

@<SCITEGIC>MOL_PROPERTY
U
SciTegic.value.DoubleValue
13.666

@<SCITEGIC>MOL_PROPERTY
W
SciTegic.value.DoubleValue
-63.195

@<SCITEGIC>MOL_PROPERTY
W(PB)
SciTegic.value.DoubleValue
-65.299

@<SCITEGIC>MOL_PROPERTY
W(SA)
SciTegic.value.DoubleValue
2.103

@<SCITEGIC>MOL_PROPERTY
Valence
SciTegic.value.DoubleValue
15.226

@<SCITEGIC>MOL_PROPERTY
Coulomb
SciTegic.value.DoubleValue
-1.822

@<SCITEGIC>MOL_PROPERTY
VdW
SciTegic.value.DoubleValue
0.261

@<SCITEGIC>MOL_PROPERTY
VdW6
SciTegic.value.DoubleValue
-4.165

@<SCITEGIC>MOL_PROPERTY
VdW12
SciTegic.value.DoubleValue
4.426

@<SCITEGIC>MOL_PROPERTY
Bond
SciTegic.value.DoubleValue
0.044

@<SCITEGIC>MOL_PROPERTY
Angle
SciTegic.value.DoubleValue
2.229

@<SCITEGIC>MOL_PROPERTY
Pdih
SciTegic.value.DoubleValue
12.953

@<SCITEGIC>MOL_PROPERTY
Idih
SciTegic.value.DoubleValue
0.000

@<SCITEGIC>MOL_PROPERTY
Tether
SciTegic.value.DoubleValue
0.000

@<TRIPOS>MOLECULE
guest-s20_confgen4.mol2 : confsearch ligand conformer 743
          17          16           1
SMALL
USER_CHARGES
 
@<TRIPOS>ATOM
       1    C1      17.718822   20.261471   23.245075 C.2        1 MOL1         0.6132
       2    O1      17.280265   19.564384   24.138780 O.co2      1 MOL1        -0.6749
       3    O2      17.785654   21.473192   23.309209 O.co2      1 MOL1        -0.6749
       4    C2      18.201663   19.577944   21.972538 C.3        1 MOL1        -0.1955
       5    H1      18.149073   20.303849   21.152244 H          1 MOL1         0.0733
       6    H2      17.494720   18.774568   21.735203 H          1 MOL1         0.0733
       7    C3      19.602902   19.013729   22.112523 C.2        1 MOL1        -0.1395
       8    H3      19.688445   18.175827   22.802228 H          1 MOL1         0.0816
       9    C4      20.669129   19.490600   21.457950 C.2        1 MOL1        -0.1394
      10    H4      20.545513   20.333610   20.778880 H          1 MOL1         0.0816
      11    C5      22.096375   18.978248   21.553112 C.3        1 MOL1        -0.1826
      12    H5      22.439836   18.690812   20.550156 H          1 MOL1         0.0736
      13    H6      22.751220   19.803514   21.863973 H          1 MOL1         0.0736
      14    C6      22.298651   17.786552   22.514867 C.3        1 MOL1        -0.2882
      15    H7      21.698469   16.921890   22.202551 H          1 MOL1         0.0749
      16    H8      23.351843   17.477299   22.528284 H          1 MOL1         0.0749
      17    H9      22.014285   18.055632   23.540646 H          1 MOL1         0.0749
@<TRIPOS>BOND
    1     1     2    1
    2     1     3    2
    3     1     4    1
    4     4     5    1
    5     4     6    1
    6     4     7    1
    7     7     8    1
    8     7     9    2
    9     9    10    1
   10     9    11    1
   11    11    12    1
   12    11    13    1
   13    11    14    1
   14    14    15    1
   15    14    16    1
   16    14    17    1
@<TRIPOS>SUBSTRUCTURE
       1 MOL1            1 RESIDUE      1      MOL     
@<SCITEGIC>MOL_PROPERTY
VConf Rank
SciTegic.value.IntegerValue
743

@<SCITEGIC>MOL_PROPERTY
Conf_Id
SciTegic.value.IntegerValue
19

@<SCITEGIC>MOL_PROPERTY
Delta U+W
SciTegic.value.DoubleValue
-0.496

@<SCITEGIC>MOL_PROPERTY
U+W
SciTegic.value.DoubleValue
-49.923

@<SCITEGIC>MOL_PROPERTY
Grad RMS
SciTegic.value.DoubleValue
0.000000

@<SCITEGIC>MOL_PROPERTY
U
SciTegic.value.DoubleValue
13.863

@<SCITEGIC>MOL_PROPERTY
W
SciTegic.value.DoubleValue
-63.786

@<SCITEGIC>MOL_PROPERTY
W(PB)
SciTegic.value.DoubleValue
-65.856

@<SCITEGIC>MOL_PROPERTY
W(SA)
SciTegic.value.DoubleValue
2.070

@<SCITEGIC>MOL_PROPERTY
Valence
SciTegic.value.DoubleValue
14.117

@<SCITEGIC>MOL_PROPERTY
Coulomb
SciTegic.value.DoubleValue
-1.228

@<SCITEGIC>MOL_PROPERTY
VdW
SciTegic.value.DoubleValue
0.974

@<SCITEGIC>MOL_PROPERTY
VdW6
SciTegic.value.DoubleValue
-4.885

@<SCITEGIC>MOL_PROPERTY
VdW12
SciTegic.value.DoubleValue
5.859

@<SCITEGIC>MOL_PROPERTY
Bond
SciTegic.value.DoubleValue
0.094

@<SCITEGIC>MOL_PROPERTY
Angle
SciTegic.value.DoubleValue
2.818

@<SCITEGIC>MOL_PROPERTY
Pdih
SciTegic.value.DoubleValue
11.205

@<SCITEGIC>MOL_PROPERTY
Idih
SciTegic.value.DoubleValue
0.000

@<SCITEGIC>MOL_PROPERTY
Tether
SciTegic.value.DoubleValue
0.000

@<TRIPOS>MOLECULE
guest-s20_confgen4.mol2 : confsearch ligand conformer 744
          17          16           1
SMALL
USER_CHARGES
 
@<TRIPOS>ATOM
       1    C1      18.402170   20.840490   23.755650 C.2        1 MOL1         0.6132
       2    O1      17.803184   21.435263   22.881424 O.co2      1 MOL1        -0.6749
       3    O2      17.861576   20.354884   24.729789 O.co2      1 MOL1        -0.6749
       4    C2      19.914058   20.704263   23.631289 C.3        1 MOL1        -0.1955
       5    H1      20.348383   20.878686   24.622462 H          1 MOL1         0.0733
       6    H2      20.278024   21.504758   22.976010 H          1 MOL1         0.0733
       7    C3      20.333715   19.342690   23.110932 C.2        1 MOL1        -0.1395
       8    H3      20.142887   18.508202   23.785046 H          1 MOL1         0.0816
       9    C4      20.893077   19.135303   21.914972 C.2        1 MOL1        -0.1394
      10    H4      21.078939   19.969480   21.239203 H          1 MOL1         0.0816
      11    C5      21.308120   17.776410   21.396817 C.3        1 MOL1        -0.1826
      12    H5      22.329255   17.828431   20.995444 H          1 MOL1         0.0736
      13    H6      21.327591   17.042759   22.214487 H          1 MOL1         0.0736
      14    C6      20.347428   17.287033   20.295648 C.3        1 MOL1        -0.2882
      15    H7      20.337452   17.983285   19.446791 H          1 MOL1         0.0749
      16    H8      20.652948   16.300478   19.923580 H          1 MOL1         0.0749
      17    H9      19.322767   17.203594   20.681377 H          1 MOL1         0.0749
@<TRIPOS>BOND
    1     1     2    1
    2     1     3    2
    3     1     4    1
    4     4     5    1
    5     4     6    1
    6     4     7    1
    7     7     8    1
    8     7     9    2
    9     9    10    1
   10     9    11    1
   11    11    12    1
   12    11    13    1
   13    11    14    1
   14    14    15    1
   15    14    16    1
   16    14    17    1
@<TRIPOS>SUBSTRUCTURE
       1 MOL1            1 RESIDUE      1      MOL     
@<SCITEGIC>MOL_PROPERTY
VConf Rank
SciTegic.value.IntegerValue
744

@<SCITEGIC>MOL_PROPERTY
Conf_Id
SciTegic.value.IntegerValue
7

@<SCITEGIC>MOL_PROPERTY
Delta U+W
SciTegic.value.DoubleValue
-0.041

@<SCITEGIC>MOL_PROPERTY
U+W
SciTegic.value.DoubleValue
-49.468

@<SCITEGIC>MOL_PROPERTY
Grad RMS
SciTegic.value.DoubleValue
0.000000

@<SCITEGIC>MOL_PROPERTY
U
SciTegic.value.DoubleValue
14.121

@<SCITEGIC>MOL_PROPERTY
W
SciTegic.value.DoubleValue
-63.589

@<SCITEGIC>MOL_PROPERTY
W(PB)
SciTegic.value.DoubleValue
-65.660

@<SCITEGIC>MOL_PROPERTY
W(SA)
SciTegic.value.DoubleValue
2.071

@<SCITEGIC>MOL_PROPERTY
Valence
SciTegic.value.DoubleValue
15.230

@<SCITEGIC>MOL_PROPERTY
Coulomb
SciTegic.value.DoubleValue
-1.333

@<SCITEGIC>MOL_PROPERTY
VdW
SciTegic.value.DoubleValue
0.224

@<SCITEGIC>MOL_PROPERTY
VdW6
SciTegic.value.DoubleValue
-4.212

@<SCITEGIC>MOL_PROPERTY
VdW12
SciTegic.value.DoubleValue
4.436

@<SCITEGIC>MOL_PROPERTY
Bond
SciTegic.value.DoubleValue
0.044

@<SCITEGIC>MOL_PROPERTY
Angle
SciTegic.value.DoubleValue
2.230

@<SCITEGIC>MOL_PROPERTY
Pdih
SciTegic.value.DoubleValue
12.956

@<SCITEGIC>MOL_PROPERTY
Idih
SciTegic.value.DoubleValue
0.000

@<SCITEGIC>MOL_PROPERTY
Tether
SciTegic.value.DoubleValue
0.000

@<TRIPOS>MOLECULE
guest-s20_confgen4.mol2 : confsearch ligand conformer 745
          17          16           1
SMALL
USER_CHARGES
 
@<TRIPOS>ATOM
       1    C1      17.636796   18.282530   21.609732 C.2        1 MOL1         0.6132
       2    O1      17.566896   18.593588   20.436979 O.co2      1 MOL1        -0.6749
       3    O2      16.794263   18.578557   22.434104 O.co2      1 MOL1        -0.6749
       4    C2      18.832387   17.452033   22.066256 C.3        1 MOL1        -0.1955
       5    H1      19.133501   16.808712   21.231248 H          1 MOL1         0.0733
       6    H2      18.489077   16.776611   22.858508 H          1 MOL1         0.0733
       7    C3      20.034517   18.245816   22.557854 C.2        1 MOL1        -0.1395
       8    H3      20.876443   17.633753   22.878925 H          1 MOL1         0.0816
       9    C4      20.125219   19.579663   22.618037 C.2        1 MOL1        -0.1394
      10    H4      19.298368   20.214789   22.302339 H          1 MOL1         0.0816
      11    C5      21.345358   20.321161   23.117418 C.3        1 MOL1        -0.1826
      12    H5      21.041021   21.092288   23.838018 H          1 MOL1         0.0736
      13    H6      22.018966   19.637944   23.652787 H          1 MOL1         0.0736
      14    C6      22.108374   20.979955   21.951728 C.3        1 MOL1        -0.2882
      15    H7      22.991766   21.517630   22.319946 H          1 MOL1         0.0749
      16    H8      22.445485   20.224237   21.230035 H          1 MOL1         0.0749
      17    H9      21.468970   21.697804   21.421339 H          1 MOL1         0.0749
@<TRIPOS>BOND
    1     1     2    1
    2     1     3    2
    3     1     4    1
    4     4     5    1
    5     4     6    1
    6     4     7    1
    7     7     8    1
    8     7     9    2
    9     9    10    1
   10     9    11    1
   11    11    12    1
   12    11    13    1
   13    11    14    1
   14    14    15    1
   15    14    16    1
   16    14    17    1
@<TRIPOS>SUBSTRUCTURE
       1 MOL1            1 RESIDUE      1      MOL     
@<SCITEGIC>MOL_PROPERTY
VConf Rank
SciTegic.value.IntegerValue
745

@<SCITEGIC>MOL_PROPERTY
Conf_Id
SciTegic.value.IntegerValue
39

@<SCITEGIC>MOL_PROPERTY
Delta U+W
SciTegic.value.DoubleValue
-0.422

@<SCITEGIC>MOL_PROPERTY
U+W
SciTegic.value.DoubleValue
-49.849

@<SCITEGIC>MOL_PROPERTY
Grad RMS
SciTegic.value.DoubleValue
0.000000

@<SCITEGIC>MOL_PROPERTY
U
SciTegic.value.DoubleValue
14.465

@<SCITEGIC>MOL_PROPERTY
W
SciTegic.value.DoubleValue
-64.314

@<SCITEGIC>MOL_PROPERTY
W(PB)
SciTegic.value.DoubleValue
-66.406

@<SCITEGIC>MOL_PROPERTY
W(SA)
SciTegic.value.DoubleValue
2.093

@<SCITEGIC>MOL_PROPERTY
Valence
SciTegic.value.DoubleValue
14.072

@<SCITEGIC>MOL_PROPERTY
Coulomb
SciTegic.value.DoubleValue
-0.199

@<SCITEGIC>MOL_PROPERTY
VdW
SciTegic.value.DoubleValue
0.592

@<SCITEGIC>MOL_PROPERTY
VdW6
SciTegic.value.DoubleValue
-5.019

@<SCITEGIC>MOL_PROPERTY
VdW12
SciTegic.value.DoubleValue
5.611

@<SCITEGIC>MOL_PROPERTY
Bond
SciTegic.value.DoubleValue
0.085

@<SCITEGIC>MOL_PROPERTY
Angle
SciTegic.value.DoubleValue
2.748

@<SCITEGIC>MOL_PROPERTY
Pdih
SciTegic.value.DoubleValue
11.238

@<SCITEGIC>MOL_PROPERTY
Idih
SciTegic.value.DoubleValue
0.001

@<SCITEGIC>MOL_PROPERTY
Tether
SciTegic.value.DoubleValue
0.000

@<TRIPOS>MOLECULE
guest-s20_confgen4.mol2 : confsearch ligand conformer 746
          17          16           1
SMALL
USER_CHARGES
 
@<TRIPOS>ATOM
       1    C1      19.874153   17.546563   24.747123 C.2        1 MOL1         0.6132
       2    O1      20.005524   18.141926   25.798430 O.co2      1 MOL1        -0.6749
       3    O2      20.330790   16.439549   24.540191 O.co2      1 MOL1        -0.6749
       4    C2      19.089569   18.224295   23.631457 C.3        1 MOL1        -0.1955
       5    H1      18.220798   18.716195   24.083983 H          1 MOL1         0.0733
       6    H2      18.704655   17.446339   22.961184 H          1 MOL1         0.0733
       7    C3      19.922114   19.236566   22.867965 C.2        1 MOL1        -0.1395
       8    H3      20.207145   20.124278   23.431814 H          1 MOL1         0.0816
       9    C4      20.303020   19.088967   21.595427 C.2        1 MOL1        -0.1394
      10    H4      20.020166   18.199670   21.033105 H          1 MOL1         0.0816
      11    C5      21.136369   20.097662   20.836886 C.3        1 MOL1        -0.1826
      12    H5      21.589505   20.820391   21.529384 H          1 MOL1         0.0736
      13    H6      21.964879   19.586436   20.328207 H          1 MOL1         0.0736
      14    C6      20.283253   20.852076   19.798563 C.3        1 MOL1        -0.2882
      15    H7      19.462154   21.392821   20.287432 H          1 MOL1         0.0749
      16    H8      20.893460   21.582044   19.250951 H          1 MOL1         0.0749
      17    H9      19.848156   20.156331   19.069140 H          1 MOL1         0.0749
@<TRIPOS>BOND
    1     1     2    1
    2     1     3    2
    3     1     4    1
    4     4     5    1
    5     4     6    1
    6     4     7    1
    7     7     8    1
    8     7     9    2
    9     9    10    1
   10     9    11    1
   11    11    12    1
   12    11    13    1
   13    11    14    1
   14    14    15    1
   15    14    16    1
   16    14    17    1
@<TRIPOS>SUBSTRUCTURE
       1 MOL1            1 RESIDUE      1      MOL     
@<SCITEGIC>MOL_PROPERTY
VConf Rank
SciTegic.value.IntegerValue
746

@<SCITEGIC>MOL_PROPERTY
Conf_Id
SciTegic.value.IntegerValue
38

@<SCITEGIC>MOL_PROPERTY
Delta U+W
SciTegic.value.DoubleValue
0.000

@<SCITEGIC>MOL_PROPERTY
U+W
SciTegic.value.DoubleValue
-49.427

@<SCITEGIC>MOL_PROPERTY
Grad RMS
SciTegic.value.DoubleValue
0.000000

@<SCITEGIC>MOL_PROPERTY
U
SciTegic.value.DoubleValue
13.666

@<SCITEGIC>MOL_PROPERTY
W
SciTegic.value.DoubleValue
-63.093

@<SCITEGIC>MOL_PROPERTY
W(PB)
SciTegic.value.DoubleValue
-65.225

@<SCITEGIC>MOL_PROPERTY
W(SA)
SciTegic.value.DoubleValue
2.132

@<SCITEGIC>MOL_PROPERTY
Valence
SciTegic.value.DoubleValue
15.226

@<SCITEGIC>MOL_PROPERTY
Coulomb
SciTegic.value.DoubleValue
-1.822

@<SCITEGIC>MOL_PROPERTY
VdW
SciTegic.value.DoubleValue
0.261

@<SCITEGIC>MOL_PROPERTY
VdW6
SciTegic.value.DoubleValue
-4.165

@<SCITEGIC>MOL_PROPERTY
VdW12
SciTegic.value.DoubleValue
4.426

@<SCITEGIC>MOL_PROPERTY
Bond
SciTegic.value.DoubleValue
0.044

@<SCITEGIC>MOL_PROPERTY
Angle
SciTegic.value.DoubleValue
2.229

@<SCITEGIC>MOL_PROPERTY
Pdih
SciTegic.value.DoubleValue
12.953

@<SCITEGIC>MOL_PROPERTY
Idih
SciTegic.value.DoubleValue
0.000

@<SCITEGIC>MOL_PROPERTY
Tether
SciTegic.value.DoubleValue
0.000

@<TRIPOS>MOLECULE
guest-s20_confgen4.mol2 : confsearch ligand conformer 747
          17          16           1
SMALL
USER_CHARGES
 
@<TRIPOS>ATOM
       1    C1      16.948851   19.233942   21.687969 C.2        1 MOL1         0.6132
       2    O1      16.504929   18.178761   22.095820 O.co2      1 MOL1        -0.6749
       3    O2      16.526300   19.804365   20.701547 O.co2      1 MOL1        -0.6749
       4    C2      18.093450   19.881195   22.456449 C.3        1 MOL1        -0.1955
       5    H1      18.067693   19.509497   23.487864 H          1 MOL1         0.0733
       6    H2      17.900653   20.959388   22.499314 H          1 MOL1         0.0733
       7    C3      19.443838   19.618616   21.817505 C.2        1 MOL1        -0.1395
       8    H3      19.602351   20.097474   20.851705 H          1 MOL1         0.0816
       9    C4      20.398196   18.858910   22.363650 C.2        1 MOL1        -0.1394
      10    H4      20.237816   18.377790   23.327944 H          1 MOL1         0.0816
      11    C5      21.742635   18.594978   21.723225 C.3        1 MOL1        -0.1826
      12    H5      21.959683   17.518479   21.747131 H          1 MOL1         0.0736
      13    H6      21.728990   18.890434   20.665047 H          1 MOL1         0.0736
      14    C6      22.863422   19.361346   22.452319 C.3        1 MOL1        -0.2882
      15    H7      22.925104   19.056988   23.505405 H          1 MOL1         0.0749
      16    H8      23.836548   19.165355   21.983598 H          1 MOL1         0.0749
      17    H9      22.681067   20.443587   22.419162 H          1 MOL1         0.0749
@<TRIPOS>BOND
    1     1     2    1
    2     1     3    2
    3     1     4    1
    4     4     5    1
    5     4     6    1
    6     4     7    1
    7     7     8    1
    8     7     9    2
    9     9    10    1
   10     9    11    1
   11    11    12    1
   12    11    13    1
   13    11    14    1
   14    14    15    1
   15    14    16    1
   16    14    17    1
@<TRIPOS>SUBSTRUCTURE
       1 MOL1            1 RESIDUE      1      MOL     
@<SCITEGIC>MOL_PROPERTY
VConf Rank
SciTegic.value.IntegerValue
747

@<SCITEGIC>MOL_PROPERTY
Conf_Id
SciTegic.value.IntegerValue
35

@<SCITEGIC>MOL_PROPERTY
Delta U+W
SciTegic.value.DoubleValue
-0.102

@<SCITEGIC>MOL_PROPERTY
U+W
SciTegic.value.DoubleValue
-49.529

@<SCITEGIC>MOL_PROPERTY
Grad RMS
SciTegic.value.DoubleValue
0.000000

@<SCITEGIC>MOL_PROPERTY
U
SciTegic.value.DoubleValue
13.666

@<SCITEGIC>MOL_PROPERTY
W
SciTegic.value.DoubleValue
-63.195

@<SCITEGIC>MOL_PROPERTY
W(PB)
SciTegic.value.DoubleValue
-65.299

@<SCITEGIC>MOL_PROPERTY
W(SA)
SciTegic.value.DoubleValue
2.103

@<SCITEGIC>MOL_PROPERTY
Valence
SciTegic.value.DoubleValue
15.226

@<SCITEGIC>MOL_PROPERTY
Coulomb
SciTegic.value.DoubleValue
-1.822

@<SCITEGIC>MOL_PROPERTY
VdW
SciTegic.value.DoubleValue
0.261

@<SCITEGIC>MOL_PROPERTY
VdW6
SciTegic.value.DoubleValue
-4.165

@<SCITEGIC>MOL_PROPERTY
VdW12
SciTegic.value.DoubleValue
4.426

@<SCITEGIC>MOL_PROPERTY
Bond
SciTegic.value.DoubleValue
0.044

@<SCITEGIC>MOL_PROPERTY
Angle
SciTegic.value.DoubleValue
2.229

@<SCITEGIC>MOL_PROPERTY
Pdih
SciTegic.value.DoubleValue
12.953

@<SCITEGIC>MOL_PROPERTY
Idih
SciTegic.value.DoubleValue
0.000

@<SCITEGIC>MOL_PROPERTY
Tether
SciTegic.value.DoubleValue
0.000

@<TRIPOS>MOLECULE
guest-s20_confgen4.mol2 : confsearch ligand conformer 748
          17          16           1
SMALL
USER_CHARGES
 
@<TRIPOS>ATOM
       1    C1      21.267670   16.756177   23.661282 C.2        1 MOL1         0.6132
       2    O1      21.484276   15.848280   22.882966 O.co2      1 MOL1        -0.6749
       3    O2      22.040633   17.088306   24.538247 O.co2      1 MOL1        -0.6749
       4    C2      19.951075   17.511377   23.535013 C.3        1 MOL1        -0.1955
       5    H1      19.719363   17.961640   24.507720 H          1 MOL1         0.0733
       6    H2      19.163482   16.778348   23.325546 H          1 MOL1         0.0733
       7    C3      19.987521   18.562860   22.442099 C.2        1 MOL1        -0.1395
       8    H3      20.056556   18.165075   21.431114 H          1 MOL1         0.0816
       9    C4      19.945558   19.881215   22.672079 C.2        1 MOL1        -0.1394
      10    H4      19.880938   20.242311   23.698002 H          1 MOL1         0.0816
      11    C5      19.981779   20.985947   21.629561 C.3        1 MOL1        -0.1826
      12    H5      19.084568   21.609955   21.739711 H          1 MOL1         0.0736
      13    H6      20.830695   21.649525   21.842932 H          1 MOL1         0.0736
      14    C6      20.079595   20.499243   20.166830 C.3        1 MOL1        -0.2882
      15    H7      19.216453   19.875100   19.900687 H          1 MOL1         0.0749
      16    H8      20.101817   21.353419   19.477686 H          1 MOL1         0.0749
      17    H9      20.994885   19.914345   20.006743 H          1 MOL1         0.0749
@<TRIPOS>BOND
    1     1     2    1
    2     1     3    2
    3     1     4    1
    4     4     5    1
    5     4     6    1
    6     4     7    1
    7     7     8    1
    8     7     9    2
    9     9    10    1
   10     9    11    1
   11    11    12    1
   12    11    13    1
   13    11    14    1
   14    14    15    1
   15    14    16    1
   16    14    17    1
@<TRIPOS>SUBSTRUCTURE
       1 MOL1            1 RESIDUE      1      MOL     
@<SCITEGIC>MOL_PROPERTY
VConf Rank
SciTegic.value.IntegerValue
748

@<SCITEGIC>MOL_PROPERTY
Conf_Id
SciTegic.value.IntegerValue
19

@<SCITEGIC>MOL_PROPERTY
Delta U+W
SciTegic.value.DoubleValue
-0.496

@<SCITEGIC>MOL_PROPERTY
U+W
SciTegic.value.DoubleValue
-49.923

@<SCITEGIC>MOL_PROPERTY
Grad RMS
SciTegic.value.DoubleValue
0.000000

@<SCITEGIC>MOL_PROPERTY
U
SciTegic.value.DoubleValue
13.863

@<SCITEGIC>MOL_PROPERTY
W
SciTegic.value.DoubleValue
-63.786

@<SCITEGIC>MOL_PROPERTY
W(PB)
SciTegic.value.DoubleValue
-65.856

@<SCITEGIC>MOL_PROPERTY
W(SA)
SciTegic.value.DoubleValue
2.070

@<SCITEGIC>MOL_PROPERTY
Valence
SciTegic.value.DoubleValue
14.117

@<SCITEGIC>MOL_PROPERTY
Coulomb
SciTegic.value.DoubleValue
-1.228

@<SCITEGIC>MOL_PROPERTY
VdW
SciTegic.value.DoubleValue
0.974

@<SCITEGIC>MOL_PROPERTY
VdW6
SciTegic.value.DoubleValue
-4.885

@<SCITEGIC>MOL_PROPERTY
VdW12
SciTegic.value.DoubleValue
5.859

@<SCITEGIC>MOL_PROPERTY
Bond
SciTegic.value.DoubleValue
0.094

@<SCITEGIC>MOL_PROPERTY
Angle
SciTegic.value.DoubleValue
2.818

@<SCITEGIC>MOL_PROPERTY
Pdih
SciTegic.value.DoubleValue
11.205

@<SCITEGIC>MOL_PROPERTY
Idih
SciTegic.value.DoubleValue
0.000

@<SCITEGIC>MOL_PROPERTY
Tether
SciTegic.value.DoubleValue
0.000

@<TRIPOS>MOLECULE
guest-s20_confgen4.mol2 : confsearch ligand conformer 749
          17          16           1
SMALL
USER_CHARGES
 
@<TRIPOS>ATOM
       1    C1      20.682602   17.477686   19.798043 C.2        1 MOL1         0.6132
       2    O1      21.894194   17.384192   19.808831 O.co2      1 MOL1        -0.6749
       3    O2      19.937971   16.539078   19.594225 O.co2      1 MOL1        -0.6749
       4    C2      20.061484   18.846753   20.042366 C.3        1 MOL1        -0.1955
       5    H1      19.232957   18.969301   19.335252 H          1 MOL1         0.0733
       6    H2      20.808505   19.611243   19.797072 H          1 MOL1         0.0733
       7    C3      19.561175   19.012124   21.464726 C.2        1 MOL1        -0.1395
       8    H3      18.708951   18.388613   21.733357 H          1 MOL1         0.0816
       9    C4      20.102073   19.844868   22.359255 C.2        1 MOL1        -0.1394
      10    H4      20.957472   20.464335   22.091649 H          1 MOL1         0.0816
      11    C5      19.603486   20.006109   23.777969 C.3        1 MOL1        -0.1826
      12    H5      19.494060   21.073335   24.013716 H          1 MOL1         0.0736
      13    H6      18.607903   19.554821   23.889151 H          1 MOL1         0.0736
      14    C6      20.573533   19.354692   24.782785 C.3        1 MOL1        -0.2882
      15    H7      21.568758   19.814125   24.720541 H          1 MOL1         0.0749
      16    H8      20.206728   19.474227   25.810517 H          1 MOL1         0.0749
      17    H9      20.679724   18.280506   24.581466 H          1 MOL1         0.0749
@<TRIPOS>BOND
    1     1     2    1
    2     1     3    2
    3     1     4    1
    4     4     5    1
    5     4     6    1
    6     4     7    1
    7     7     8    1
    8     7     9    2
    9     9    10    1
   10     9    11    1
   11    11    12    1
   12    11    13    1
   13    11    14    1
   14    14    15    1
   15    14    16    1
   16    14    17    1
@<TRIPOS>SUBSTRUCTURE
       1 MOL1            1 RESIDUE      1      MOL     
@<SCITEGIC>MOL_PROPERTY
VConf Rank
SciTegic.value.IntegerValue
749

@<SCITEGIC>MOL_PROPERTY
Conf_Id
SciTegic.value.IntegerValue
7

@<SCITEGIC>MOL_PROPERTY
Delta U+W
SciTegic.value.DoubleValue
-0.041

@<SCITEGIC>MOL_PROPERTY
U+W
SciTegic.value.DoubleValue
-49.468

@<SCITEGIC>MOL_PROPERTY
Grad RMS
SciTegic.value.DoubleValue
0.000000

@<SCITEGIC>MOL_PROPERTY
U
SciTegic.value.DoubleValue
14.121

@<SCITEGIC>MOL_PROPERTY
W
SciTegic.value.DoubleValue
-63.589

@<SCITEGIC>MOL_PROPERTY
W(PB)
SciTegic.value.DoubleValue
-65.660

@<SCITEGIC>MOL_PROPERTY
W(SA)
SciTegic.value.DoubleValue
2.071

@<SCITEGIC>MOL_PROPERTY
Valence
SciTegic.value.DoubleValue
15.230

@<SCITEGIC>MOL_PROPERTY
Coulomb
SciTegic.value.DoubleValue
-1.333

@<SCITEGIC>MOL_PROPERTY
VdW
SciTegic.value.DoubleValue
0.224

@<SCITEGIC>MOL_PROPERTY
VdW6
SciTegic.value.DoubleValue
-4.212

@<SCITEGIC>MOL_PROPERTY
VdW12
SciTegic.value.DoubleValue
4.436

@<SCITEGIC>MOL_PROPERTY
Bond
SciTegic.value.DoubleValue
0.044

@<SCITEGIC>MOL_PROPERTY
Angle
SciTegic.value.DoubleValue
2.230

@<SCITEGIC>MOL_PROPERTY
Pdih
SciTegic.value.DoubleValue
12.956

@<SCITEGIC>MOL_PROPERTY
Idih
SciTegic.value.DoubleValue
0.000

@<SCITEGIC>MOL_PROPERTY
Tether
SciTegic.value.DoubleValue
0.000

@<TRIPOS>MOLECULE
guest-s20_confgen4.mol2 : confsearch ligand conformer 750
          17          16           1
SMALL
USER_CHARGES
 
@<TRIPOS>ATOM
       1    C1      20.887057   18.433625   24.785970 C.2        1 MOL1         0.6132
       2    O1      20.182122   17.453284   24.923778 O.co2      1 MOL1        -0.6749
       3    O2      20.924668   19.350730   25.582579 O.co2      1 MOL1        -0.6749
       4    C2      21.794209   18.504058   23.561352 C.3        1 MOL1        -0.1955
       5    H1      22.091438   17.480808   23.303702 H          1 MOL1         0.0733
       6    H2      22.715407   19.020539   23.855226 H          1 MOL1         0.0733
       7    C3      21.195578   19.184550   22.338467 C.2        1 MOL1        -0.1395
       8    H3      21.859694   19.224082   21.475951 H          1 MOL1         0.0816
       9    C4      19.967960   19.710510   22.252928 C.2        1 MOL1        -0.1394
      10    H4      19.283804   19.683435   23.100236 H          1 MOL1         0.0816
      11    C5      19.420488   20.378763   21.011295 C.3        1 MOL1        -0.1826
      12    H5      18.963309   21.340855   21.279413 H          1 MOL1         0.0736
      13    H6      20.231489   20.601471   20.304308 H          1 MOL1         0.0736
      14    C6      18.371478   19.486696   20.319319 C.3        1 MOL1        -0.2882
      15    H7      17.976697   19.977027   19.419996 H          1 MOL1         0.0749
      16    H8      18.813019   18.527411   20.018639 H          1 MOL1         0.0749
      17    H9      17.528990   19.279228   20.992096 H          1 MOL1         0.0749
@<TRIPOS>BOND
    1     1     2    1
    2     1     3    2
    3     1     4    1
    4     4     5    1
    5     4     6    1
    6     4     7    1
    7     7     8    1
    8     7     9    2
    9     9    10    1
   10     9    11    1
   11    11    12    1
   12    11    13    1
   13    11    14    1
   14    14    15    1
   15    14    16    1
   16    14    17    1
@<TRIPOS>SUBSTRUCTURE
       1 MOL1            1 RESIDUE      1      MOL     
@<SCITEGIC>MOL_PROPERTY
VConf Rank
SciTegic.value.IntegerValue
750

@<SCITEGIC>MOL_PROPERTY
Conf_Id
SciTegic.value.IntegerValue
39

@<SCITEGIC>MOL_PROPERTY
Delta U+W
SciTegic.value.DoubleValue
-0.422

@<SCITEGIC>MOL_PROPERTY
U+W
SciTegic.value.DoubleValue
-49.849

@<SCITEGIC>MOL_PROPERTY
Grad RMS
SciTegic.value.DoubleValue
0.000000

@<SCITEGIC>MOL_PROPERTY
U
SciTegic.value.DoubleValue
14.465

@<SCITEGIC>MOL_PROPERTY
W
SciTegic.value.DoubleValue
-64.314

@<SCITEGIC>MOL_PROPERTY
W(PB)
SciTegic.value.DoubleValue
-66.406

@<SCITEGIC>MOL_PROPERTY
W(SA)
SciTegic.value.DoubleValue
2.093

@<SCITEGIC>MOL_PROPERTY
Valence
SciTegic.value.DoubleValue
14.072

@<SCITEGIC>MOL_PROPERTY
Coulomb
SciTegic.value.DoubleValue
-0.199

@<SCITEGIC>MOL_PROPERTY
VdW
SciTegic.value.DoubleValue
0.592

@<SCITEGIC>MOL_PROPERTY
VdW6
SciTegic.value.DoubleValue
-5.019

@<SCITEGIC>MOL_PROPERTY
VdW12
SciTegic.value.DoubleValue
5.611

@<SCITEGIC>MOL_PROPERTY
Bond
SciTegic.value.DoubleValue
0.085

@<SCITEGIC>MOL_PROPERTY
Angle
SciTegic.value.DoubleValue
2.748

@<SCITEGIC>MOL_PROPERTY
Pdih
SciTegic.value.DoubleValue
11.238

@<SCITEGIC>MOL_PROPERTY
Idih
SciTegic.value.DoubleValue
0.001

@<SCITEGIC>MOL_PROPERTY
Tether
SciTegic.value.DoubleValue
0.000

@<TRIPOS>MOLECULE
guest-s20_confgen4.mol2 : confsearch ligand conformer 751
          17          16           1
SMALL
USER_CHARGES
 
@<TRIPOS>ATOM
       1    C1      18.819057   22.110806   22.655958 C.2        1 MOL1         0.6132
       2    O1      18.073957   22.191940   23.612621 O.co2      1 MOL1        -0.6749
       3    O2      18.613360   22.666548   21.594988 O.co2      1 MOL1        -0.6749
       4    C2      20.081470   21.270794   22.798427 C.3        1 MOL1        -0.1955
       5    H1      20.500802   21.462362   23.792898 H          1 MOL1         0.0733
       6    H2      20.815753   21.628084   22.066435 H          1 MOL1         0.0733
       7    C3      19.815408   19.787920   22.622239 C.2        1 MOL1        -0.1395
       8    H3      19.220077   19.325550   23.409002 H          1 MOL1         0.0816
       9    C4      20.258000   19.062805   21.590470 C.2        1 MOL1        -0.1394
      10    H4      20.850735   19.526422   20.802570 H          1 MOL1         0.0816
      11    C5      19.988525   17.585055   21.414514 C.3        1 MOL1        -0.1826
      12    H5      19.188128   17.256949   22.091960 H          1 MOL1         0.0736
      13    H6      19.635424   17.391760   20.392511 H          1 MOL1         0.0736
      14    C6      21.258161   16.754476   21.685116 C.3        1 MOL1        -0.2882
      15    H7      21.615722   16.911969   22.711248 H          1 MOL1         0.0749
      16    H8      21.056598   15.683216   21.555271 H          1 MOL1         0.0749
      17    H9      22.064535   17.035454   20.995014 H          1 MOL1         0.0749
@<TRIPOS>BOND
    1     1     2    1
    2     1     3    2
    3     1     4    1
    4     4     5    1
    5     4     6    1
    6     4     7    1
    7     7     8    1
    8     7     9    2
    9     9    10    1
   10     9    11    1
   11    11    12    1
   12    11    13    1
   13    11    14    1
   14    14    15    1
   15    14    16    1
   16    14    17    1
@<TRIPOS>SUBSTRUCTURE
       1 MOL1            1 RESIDUE      1      MOL     
@<SCITEGIC>MOL_PROPERTY
VConf Rank
SciTegic.value.IntegerValue
751

@<SCITEGIC>MOL_PROPERTY
Conf_Id
SciTegic.value.IntegerValue
38

@<SCITEGIC>MOL_PROPERTY
Delta U+W
SciTegic.value.DoubleValue
0.000

@<SCITEGIC>MOL_PROPERTY
U+W
SciTegic.value.DoubleValue
-49.427

@<SCITEGIC>MOL_PROPERTY
Grad RMS
SciTegic.value.DoubleValue
0.000000

@<SCITEGIC>MOL_PROPERTY
U
SciTegic.value.DoubleValue
13.666

@<SCITEGIC>MOL_PROPERTY
W
SciTegic.value.DoubleValue
-63.093

@<SCITEGIC>MOL_PROPERTY
W(PB)
SciTegic.value.DoubleValue
-65.225

@<SCITEGIC>MOL_PROPERTY
W(SA)
SciTegic.value.DoubleValue
2.132

@<SCITEGIC>MOL_PROPERTY
Valence
SciTegic.value.DoubleValue
15.226

@<SCITEGIC>MOL_PROPERTY
Coulomb
SciTegic.value.DoubleValue
-1.822

@<SCITEGIC>MOL_PROPERTY
VdW
SciTegic.value.DoubleValue
0.261

@<SCITEGIC>MOL_PROPERTY
VdW6
SciTegic.value.DoubleValue
-4.165

@<SCITEGIC>MOL_PROPERTY
VdW12
SciTegic.value.DoubleValue
4.426

@<SCITEGIC>MOL_PROPERTY
Bond
SciTegic.value.DoubleValue
0.044

@<SCITEGIC>MOL_PROPERTY
Angle
SciTegic.value.DoubleValue
2.229

@<SCITEGIC>MOL_PROPERTY
Pdih
SciTegic.value.DoubleValue
12.953

@<SCITEGIC>MOL_PROPERTY
Idih
SciTegic.value.DoubleValue
0.000

@<SCITEGIC>MOL_PROPERTY
Tether
SciTegic.value.DoubleValue
0.000

@<TRIPOS>MOLECULE
guest-s20_confgen4.mol2 : confsearch ligand conformer 752
          17          16           1
SMALL
USER_CHARGES
 
@<TRIPOS>ATOM
       1    C1      17.288882   20.747960   22.147091 C.2        1 MOL1         0.6132
       2    O1      17.463961   21.921272   22.410728 O.co2      1 MOL1        -0.6749
       3    O2      16.339736   20.103495   22.548023 O.co2      1 MOL1        -0.6749
       4    C2      18.310464   20.046439   21.261741 C.3        1 MOL1        -0.1955
       5    H1      18.824408   20.807096   20.661822 H          1 MOL1         0.0733
       6    H2      17.762794   19.403327   20.563191 H          1 MOL1         0.0733
       7    C3      19.302355   19.222156   22.060148 C.2        1 MOL1        -0.1395
       8    H3      18.885894   18.346352   22.556865 H          1 MOL1         0.0816
       9    C4      20.601424   19.514484   22.175010 C.2        1 MOL1        -0.1394
      10    H4      21.016570   20.392170   21.680661 H          1 MOL1         0.0816
      11    C5      21.588225   18.693598   22.974817 C.3        1 MOL1        -0.1826
      12    H5      22.181463   19.354038   23.621671 H          1 MOL1         0.0736
      13    H6      21.059083   17.995220   23.637762 H          1 MOL1         0.0736
      14    C6      22.530185   17.901670   22.047119 C.3        1 MOL1        -0.2882
      15    H7      23.101242   18.578683   21.398293 H          1 MOL1         0.0749
      16    H8      23.244299   17.308589   22.633108 H          1 MOL1         0.0749
      17    H9      21.960540   17.214554   21.407607 H          1 MOL1         0.0749
@<TRIPOS>BOND
    1     1     2    1
    2     1     3    2
    3     1     4    1
    4     4     5    1
    5     4     6    1
    6     4     7    1
    7     7     8    1
    8     7     9    2
    9     9    10    1
   10     9    11    1
   11    11    12    1
   12    11    13    1
   13    11    14    1
   14    14    15    1
   15    14    16    1
   16    14    17    1
@<TRIPOS>SUBSTRUCTURE
       1 MOL1            1 RESIDUE      1      MOL     
@<SCITEGIC>MOL_PROPERTY
VConf Rank
SciTegic.value.IntegerValue
752

@<SCITEGIC>MOL_PROPERTY
Conf_Id
SciTegic.value.IntegerValue
35

@<SCITEGIC>MOL_PROPERTY
Delta U+W
SciTegic.value.DoubleValue
-0.102

@<SCITEGIC>MOL_PROPERTY
U+W
SciTegic.value.DoubleValue
-49.529

@<SCITEGIC>MOL_PROPERTY
Grad RMS
SciTegic.value.DoubleValue
0.000000

@<SCITEGIC>MOL_PROPERTY
U
SciTegic.value.DoubleValue
13.666

@<SCITEGIC>MOL_PROPERTY
W
SciTegic.value.DoubleValue
-63.195

@<SCITEGIC>MOL_PROPERTY
W(PB)
SciTegic.value.DoubleValue
-65.299

@<SCITEGIC>MOL_PROPERTY
W(SA)
SciTegic.value.DoubleValue
2.103

@<SCITEGIC>MOL_PROPERTY
Valence
SciTegic.value.DoubleValue
15.226

@<SCITEGIC>MOL_PROPERTY
Coulomb
SciTegic.value.DoubleValue
-1.822

@<SCITEGIC>MOL_PROPERTY
VdW
SciTegic.value.DoubleValue
0.261

@<SCITEGIC>MOL_PROPERTY
VdW6
SciTegic.value.DoubleValue
-4.165

@<SCITEGIC>MOL_PROPERTY
VdW12
SciTegic.value.DoubleValue
4.426

@<SCITEGIC>MOL_PROPERTY
Bond
SciTegic.value.DoubleValue
0.044

@<SCITEGIC>MOL_PROPERTY
Angle
SciTegic.value.DoubleValue
2.229

@<SCITEGIC>MOL_PROPERTY
Pdih
SciTegic.value.DoubleValue
12.953

@<SCITEGIC>MOL_PROPERTY
Idih
SciTegic.value.DoubleValue
0.000

@<SCITEGIC>MOL_PROPERTY
Tether
SciTegic.value.DoubleValue
0.000

@<TRIPOS>MOLECULE
guest-s20_confgen4.mol2 : confsearch ligand conformer 753
          17          16           1
SMALL
USER_CHARGES
 
@<TRIPOS>ATOM
       1    C1      19.780516   19.274579   25.115407 C.2        1 MOL1         0.6132
       2    O1      18.854693   20.026735   25.347969 O.co2      1 MOL1        -0.6749
       3    O2      19.917761   18.192234   25.650703 O.co2      1 MOL1        -0.6749
       4    C2      20.829846   19.718618   24.104749 C.3        1 MOL1        -0.1955
       5    H1      21.761936   19.182544   24.320199 H          1 MOL1         0.0733
       6    H2      21.026717   20.783767   24.272702 H          1 MOL1         0.0733
       7    C3      20.388351   19.490584   22.671400 C.2        1 MOL1        -0.1395
       8    H3      19.559164   20.116612   22.346396 H          1 MOL1         0.0816
       9    C4      20.950245   18.594744   21.850147 C.2        1 MOL1        -0.1394
      10    H4      21.775601   17.982611   22.212313 H          1 MOL1         0.0816
      11    C5      20.557513   18.312413   20.409785 C.3        1 MOL1        -0.1826
      12    H5      21.433509   18.464520   19.764805 H          1 MOL1         0.0736
      13    H6      20.300553   17.248920   20.312444 H          1 MOL1         0.0736
      14    C6      19.384933   19.163778   19.874749 C.3        1 MOL1        -0.2882
      15    H7      19.628397   20.233883   19.906392 H          1 MOL1         0.0749
      16    H8      19.162345   18.900507   18.832553 H          1 MOL1         0.0749
      17    H9      18.474784   18.996071   20.465506 H          1 MOL1         0.0749
@<TRIPOS>BOND
    1     1     2    1
    2     1     3    2
    3     1     4    1
    4     4     5    1
    5     4     6    1
    6     4     7    1
    7     7     8    1
    8     7     9    2
    9     9    10    1
   10     9    11    1
   11    11    12    1
   12    11    13    1
   13    11    14    1
   14    14    15    1
   15    14    16    1
   16    14    17    1
@<TRIPOS>SUBSTRUCTURE
       1 MOL1            1 RESIDUE      1      MOL     
@<SCITEGIC>MOL_PROPERTY
VConf Rank
SciTegic.value.IntegerValue
753

@<SCITEGIC>MOL_PROPERTY
Conf_Id
SciTegic.value.IntegerValue
19

@<SCITEGIC>MOL_PROPERTY
Delta U+W
SciTegic.value.DoubleValue
-0.496

@<SCITEGIC>MOL_PROPERTY
U+W
SciTegic.value.DoubleValue
-49.923

@<SCITEGIC>MOL_PROPERTY
Grad RMS
SciTegic.value.DoubleValue
0.000000

@<SCITEGIC>MOL_PROPERTY
U
SciTegic.value.DoubleValue
13.863

@<SCITEGIC>MOL_PROPERTY
W
SciTegic.value.DoubleValue
-63.786

@<SCITEGIC>MOL_PROPERTY
W(PB)
SciTegic.value.DoubleValue
-65.856

@<SCITEGIC>MOL_PROPERTY
W(SA)
SciTegic.value.DoubleValue
2.070

@<SCITEGIC>MOL_PROPERTY
Valence
SciTegic.value.DoubleValue
14.117

@<SCITEGIC>MOL_PROPERTY
Coulomb
SciTegic.value.DoubleValue
-1.228

@<SCITEGIC>MOL_PROPERTY
VdW
SciTegic.value.DoubleValue
0.974

@<SCITEGIC>MOL_PROPERTY
VdW6
SciTegic.value.DoubleValue
-4.885

@<SCITEGIC>MOL_PROPERTY
VdW12
SciTegic.value.DoubleValue
5.859

@<SCITEGIC>MOL_PROPERTY
Bond
SciTegic.value.DoubleValue
0.094

@<SCITEGIC>MOL_PROPERTY
Angle
SciTegic.value.DoubleValue
2.818

@<SCITEGIC>MOL_PROPERTY
Pdih
SciTegic.value.DoubleValue
11.205

@<SCITEGIC>MOL_PROPERTY
Idih
SciTegic.value.DoubleValue
0.000

@<SCITEGIC>MOL_PROPERTY
Tether
SciTegic.value.DoubleValue
0.000

@<TRIPOS>MOLECULE
guest-s20_confgen4.mol2 : confsearch ligand conformer 754
          17          16           1
SMALL
USER_CHARGES
 
@<TRIPOS>ATOM
       1    C1      19.535652   16.210763   22.510217 C.2        1 MOL1         0.6132
       2    O1      20.575771   15.764607   22.952834 O.co2      1 MOL1        -0.6749
       3    O2      18.441195   15.939403   22.963570 O.co2      1 MOL1        -0.6749
       4    C2      19.604186   17.153061   21.315560 C.3        1 MOL1        -0.1955
       5    H1      18.796452   16.879555   20.626905 H          1 MOL1         0.0733
       6    H2      20.549351   16.972242   20.789611 H          1 MOL1         0.0733
       7    C3      19.475491   18.610144   21.716943 C.2        1 MOL1        -0.1395
       8    H3      18.500379   18.900732   22.106726 H          1 MOL1         0.0816
       9    C4      20.463647   19.505152   21.623536 C.2        1 MOL1        -0.1394
      10    H4      21.440051   19.212815   21.238524 H          1 MOL1         0.0816
      11    C5      20.334106   20.956948   22.027074 C.3        1 MOL1        -0.1826
      12    H5      20.728738   21.600439   21.229135 H          1 MOL1         0.0736
      13    H6      19.276989   21.227127   22.156355 H          1 MOL1         0.0736
      14    C6      21.095755   21.237187   23.337169 C.3        1 MOL1        -0.2882
      15    H7      22.164477   21.012223   23.224690 H          1 MOL1         0.0749
      16    H8      20.998066   22.291865   23.625576 H          1 MOL1         0.0749
      17    H9      20.701269   20.621746   24.156495 H          1 MOL1         0.0749
@<TRIPOS>BOND
    1     1     2    1
    2     1     3    2
    3     1     4    1
    4     4     5    1
    5     4     6    1
    6     4     7    1
    7     7     8    1
    8     7     9    2
    9     9    10    1
   10     9    11    1
   11    11    12    1
   12    11    13    1
   13    11    14    1
   14    14    15    1
   15    14    16    1
   16    14    17    1
@<TRIPOS>SUBSTRUCTURE
       1 MOL1            1 RESIDUE      1      MOL     
@<SCITEGIC>MOL_PROPERTY
VConf Rank
SciTegic.value.IntegerValue
754

@<SCITEGIC>MOL_PROPERTY
Conf_Id
SciTegic.value.IntegerValue
7

@<SCITEGIC>MOL_PROPERTY
Delta U+W
SciTegic.value.DoubleValue
-0.041

@<SCITEGIC>MOL_PROPERTY
U+W
SciTegic.value.DoubleValue
-49.468

@<SCITEGIC>MOL_PROPERTY
Grad RMS
SciTegic.value.DoubleValue
0.000000

@<SCITEGIC>MOL_PROPERTY
U
SciTegic.value.DoubleValue
14.121

@<SCITEGIC>MOL_PROPERTY
W
SciTegic.value.DoubleValue
-63.589

@<SCITEGIC>MOL_PROPERTY
W(PB)
SciTegic.value.DoubleValue
-65.660

@<SCITEGIC>MOL_PROPERTY
W(SA)
SciTegic.value.DoubleValue
2.071

@<SCITEGIC>MOL_PROPERTY
Valence
SciTegic.value.DoubleValue
15.230

@<SCITEGIC>MOL_PROPERTY
Coulomb
SciTegic.value.DoubleValue
-1.333

@<SCITEGIC>MOL_PROPERTY
VdW
SciTegic.value.DoubleValue
0.224

@<SCITEGIC>MOL_PROPERTY
VdW6
SciTegic.value.DoubleValue
-4.212

@<SCITEGIC>MOL_PROPERTY
VdW12
SciTegic.value.DoubleValue
4.436

@<SCITEGIC>MOL_PROPERTY
Bond
SciTegic.value.DoubleValue
0.044

@<SCITEGIC>MOL_PROPERTY
Angle
SciTegic.value.DoubleValue
2.230

@<SCITEGIC>MOL_PROPERTY
Pdih
SciTegic.value.DoubleValue
12.956

@<SCITEGIC>MOL_PROPERTY
Idih
SciTegic.value.DoubleValue
0.000

@<SCITEGIC>MOL_PROPERTY
Tether
SciTegic.value.DoubleValue
0.000

@<TRIPOS>MOLECULE
guest-s20_confgen4.mol2 : confsearch ligand conformer 755
          17          16           1
SMALL
USER_CHARGES
 
@<TRIPOS>ATOM
       1    C1      22.555597   20.479919   21.732018 C.2        1 MOL1         0.6132
       2    O1      23.015211   19.717277   20.904900 O.co2      1 MOL1        -0.6749
       3    O2      23.141169   20.801396   22.747321 O.co2      1 MOL1        -0.6749
       4    C2      21.181540   21.088190   21.468290 C.3        1 MOL1        -0.1955
       5    H1      21.065979   21.200516   20.383948 H          1 MOL1         0.0733
       6    H2      21.180113   22.104795   21.878452 H          1 MOL1         0.0733
       7    C3      19.999802   20.309954   22.029289 C.2        1 MOL1        -0.1395
       8    H3      19.028820   20.761589   21.829876 H          1 MOL1         0.0816
       9    C4      20.067655   19.163159   22.715767 C.2        1 MOL1        -0.1394
      10    H4      21.025744   18.690117   22.927972 H          1 MOL1         0.0816
      11    C5      18.859827   18.428767   23.254062 C.3        1 MOL1        -0.1826
      12    H5      19.029373   18.157106   24.304763 H          1 MOL1         0.0736
      13    H6      17.974102   19.078619   23.235643 H          1 MOL1         0.0736
      14    C6      18.575171   17.155501   22.433817 C.3        1 MOL1        -0.2882
      15    H7      17.698790   16.625996   22.829596 H          1 MOL1         0.0749
      16    H8      18.376974   17.404984   21.383070 H          1 MOL1         0.0749
      17    H9      19.431538   16.469187   22.466471 H          1 MOL1         0.0749
@<TRIPOS>BOND
    1     1     2    1
    2     1     3    2
    3     1     4    1
    4     4     5    1
    5     4     6    1
    6     4     7    1
    7     7     8    1
    8     7     9    2
    9     9    10    1
   10     9    11    1
   11    11    12    1
   12    11    13    1
   13    11    14    1
   14    14    15    1
   15    14    16    1
   16    14    17    1
@<TRIPOS>SUBSTRUCTURE
       1 MOL1            1 RESIDUE      1      MOL     
@<SCITEGIC>MOL_PROPERTY
VConf Rank
SciTegic.value.IntegerValue
755

@<SCITEGIC>MOL_PROPERTY
Conf_Id
SciTegic.value.IntegerValue
39

@<SCITEGIC>MOL_PROPERTY
Delta U+W
SciTegic.value.DoubleValue
-0.422

@<SCITEGIC>MOL_PROPERTY
U+W
SciTegic.value.DoubleValue
-49.849

@<SCITEGIC>MOL_PROPERTY
Grad RMS
SciTegic.value.DoubleValue
0.000000

@<SCITEGIC>MOL_PROPERTY
U
SciTegic.value.DoubleValue
14.465

@<SCITEGIC>MOL_PROPERTY
W
SciTegic.value.DoubleValue
-64.314

@<SCITEGIC>MOL_PROPERTY
W(PB)
SciTegic.value.DoubleValue
-66.406

@<SCITEGIC>MOL_PROPERTY
W(SA)
SciTegic.value.DoubleValue
2.093

@<SCITEGIC>MOL_PROPERTY
Valence
SciTegic.value.DoubleValue
14.072

@<SCITEGIC>MOL_PROPERTY
Coulomb
SciTegic.value.DoubleValue
-0.199

@<SCITEGIC>MOL_PROPERTY
VdW
SciTegic.value.DoubleValue
0.592

@<SCITEGIC>MOL_PROPERTY
VdW6
SciTegic.value.DoubleValue
-5.019

@<SCITEGIC>MOL_PROPERTY
VdW12
SciTegic.value.DoubleValue
5.611

@<SCITEGIC>MOL_PROPERTY
Bond
SciTegic.value.DoubleValue
0.085

@<SCITEGIC>MOL_PROPERTY
Angle
SciTegic.value.DoubleValue
2.748

@<SCITEGIC>MOL_PROPERTY
Pdih
SciTegic.value.DoubleValue
11.238

@<SCITEGIC>MOL_PROPERTY
Idih
SciTegic.value.DoubleValue
0.001

@<SCITEGIC>MOL_PROPERTY
Tether
SciTegic.value.DoubleValue
0.000

@<TRIPOS>MOLECULE
guest-s20_confgen4.mol2 : confsearch ligand conformer 756
          17          16           1
SMALL
USER_CHARGES
 
@<TRIPOS>ATOM
       1    C1      17.240101   18.363606   23.083766 C.2        1 MOL1         0.6132
       2    O1      17.187338   17.334320   23.727773 O.co2      1 MOL1        -0.6749
       3    O2      16.417107   18.674692   22.245479 O.co2      1 MOL1        -0.6749
       4    C2      18.398584   19.316605   23.347041 C.3        1 MOL1        -0.1955
       5    H1      18.565624   19.349699   24.429867 H          1 MOL1         0.0733
       6    H2      18.091535   20.323301   23.038943 H          1 MOL1         0.0733
       7    C3      19.670609   18.894879   22.636516 C.2        1 MOL1        -0.1395
       8    H3      20.126112   17.976038   23.004550 H          1 MOL1         0.0816
       9    C4      20.225683   19.570539   21.625772 C.2        1 MOL1        -0.1394
      10    H4      19.768049   20.487663   21.256291 H          1 MOL1         0.0816
      11    C5      21.492055   19.146476   20.915989 C.3        1 MOL1        -0.1826
      12    H5      21.741240   18.105393   21.163529 H          1 MOL1         0.0736
      13    H6      21.338048   19.183816   19.829057 H          1 MOL1         0.0736
      14    C6      22.673678   20.058652   21.299085 C.3        1 MOL1        -0.2882
      15    H7      22.863296   20.017820   22.379816 H          1 MOL1         0.0749
      16    H8      23.589493   19.746465   20.780522 H          1 MOL1         0.0749
      17    H9      22.467162   21.102147   21.027243 H          1 MOL1         0.0749
@<TRIPOS>BOND
    1     1     2    1
    2     1     3    2
    3     1     4    1
    4     4     5    1
    5     4     6    1
    6     4     7    1
    7     7     8    1
    8     7     9    2
    9     9    10    1
   10     9    11    1
   11    11    12    1
   12    11    13    1
   13    11    14    1
   14    14    15    1
   15    14    16    1
   16    14    17    1
@<TRIPOS>SUBSTRUCTURE
       1 MOL1            1 RESIDUE      1      MOL     
@<SCITEGIC>MOL_PROPERTY
VConf Rank
SciTegic.value.IntegerValue
756

@<SCITEGIC>MOL_PROPERTY
Conf_Id
SciTegic.value.IntegerValue
38

@<SCITEGIC>MOL_PROPERTY
Delta U+W
SciTegic.value.DoubleValue
0.000

@<SCITEGIC>MOL_PROPERTY
U+W
SciTegic.value.DoubleValue
-49.427

@<SCITEGIC>MOL_PROPERTY
Grad RMS
SciTegic.value.DoubleValue
0.000000

@<SCITEGIC>MOL_PROPERTY
U
SciTegic.value.DoubleValue
13.666

@<SCITEGIC>MOL_PROPERTY
W
SciTegic.value.DoubleValue
-63.093

@<SCITEGIC>MOL_PROPERTY
W(PB)
SciTegic.value.DoubleValue
-65.225

@<SCITEGIC>MOL_PROPERTY
W(SA)
SciTegic.value.DoubleValue
2.132

@<SCITEGIC>MOL_PROPERTY
Valence
SciTegic.value.DoubleValue
15.226

@<SCITEGIC>MOL_PROPERTY
Coulomb
SciTegic.value.DoubleValue
-1.822

@<SCITEGIC>MOL_PROPERTY
VdW
SciTegic.value.DoubleValue
0.261

@<SCITEGIC>MOL_PROPERTY
VdW6
SciTegic.value.DoubleValue
-4.165

@<SCITEGIC>MOL_PROPERTY
VdW12
SciTegic.value.DoubleValue
4.426

@<SCITEGIC>MOL_PROPERTY
Bond
SciTegic.value.DoubleValue
0.044

@<SCITEGIC>MOL_PROPERTY
Angle
SciTegic.value.DoubleValue
2.229

@<SCITEGIC>MOL_PROPERTY
Pdih
SciTegic.value.DoubleValue
12.953

@<SCITEGIC>MOL_PROPERTY
Idih
SciTegic.value.DoubleValue
0.000

@<SCITEGIC>MOL_PROPERTY
Tether
SciTegic.value.DoubleValue
0.000

@<TRIPOS>MOLECULE
guest-s20_confgen4.mol2 : confsearch ligand conformer 757
          17          16           1
SMALL
USER_CHARGES
 
@<TRIPOS>ATOM
       1    C1      20.092702   17.174326   24.478708 C.2        1 MOL1         0.6132
       2    O1      19.865555   17.755200   25.521689 O.co2      1 MOL1        -0.6749
       3    O2      20.871868   16.246685   24.382057 O.co2      1 MOL1        -0.6749
       4    C2      19.357959   17.628427   23.224296 C.3        1 MOL1        -0.1955
       5    H1      18.435045   18.134816   23.531610 H          1 MOL1         0.0733
       6    H2      19.061628   16.732370   22.666823 H          1 MOL1         0.0733
       7    C3      20.206816   18.529854   22.348161 C.2        1 MOL1        -0.1395
       8    H3      21.060442   18.047069   21.873351 H          1 MOL1         0.0816
       9    C4      19.962959   19.828541   22.147724 C.2        1 MOL1        -0.1394
      10    H4      19.111035   20.311399   22.625357 H          1 MOL1         0.0816
      11    C5      20.812774   20.726764   21.276901 C.3        1 MOL1        -0.1826
      12    H5      21.047206   21.653558   21.817851 H          1 MOL1         0.0736
      13    H6      21.772788   20.243840   21.048039 H          1 MOL1         0.0736
      14    C6      20.087698   21.069431   19.960882 C.3        1 MOL1        -0.2882
      15    H7      19.140706   21.588430   20.159058 H          1 MOL1         0.0749
      16    H8      20.708872   21.721905   19.333581 H          1 MOL1         0.0749
      17    H9      19.865473   20.158487   19.389569 H          1 MOL1         0.0749
@<TRIPOS>BOND
    1     1     2    1
    2     1     3    2
    3     1     4    1
    4     4     5    1
    5     4     6    1
    6     4     7    1
    7     7     8    1
    8     7     9    2
    9     9    10    1
   10     9    11    1
   11    11    12    1
   12    11    13    1
   13    11    14    1
   14    14    15    1
   15    14    16    1
   16    14    17    1
@<TRIPOS>SUBSTRUCTURE
       1 MOL1            1 RESIDUE      1      MOL     
@<SCITEGIC>MOL_PROPERTY
VConf Rank
SciTegic.value.IntegerValue
757

@<SCITEGIC>MOL_PROPERTY
Conf_Id
SciTegic.value.IntegerValue
35

@<SCITEGIC>MOL_PROPERTY
Delta U+W
SciTegic.value.DoubleValue
-0.102

@<SCITEGIC>MOL_PROPERTY
U+W
SciTegic.value.DoubleValue
-49.529

@<SCITEGIC>MOL_PROPERTY
Grad RMS
SciTegic.value.DoubleValue
0.000000

@<SCITEGIC>MOL_PROPERTY
U
SciTegic.value.DoubleValue
13.666

@<SCITEGIC>MOL_PROPERTY
W
SciTegic.value.DoubleValue
-63.195

@<SCITEGIC>MOL_PROPERTY
W(PB)
SciTegic.value.DoubleValue
-65.299

@<SCITEGIC>MOL_PROPERTY
W(SA)
SciTegic.value.DoubleValue
2.103

@<SCITEGIC>MOL_PROPERTY
Valence
SciTegic.value.DoubleValue
15.226

@<SCITEGIC>MOL_PROPERTY
Coulomb
SciTegic.value.DoubleValue
-1.822

@<SCITEGIC>MOL_PROPERTY
VdW
SciTegic.value.DoubleValue
0.261

@<SCITEGIC>MOL_PROPERTY
VdW6
SciTegic.value.DoubleValue
-4.165

@<SCITEGIC>MOL_PROPERTY
VdW12
SciTegic.value.DoubleValue
4.426

@<SCITEGIC>MOL_PROPERTY
Bond
SciTegic.value.DoubleValue
0.044

@<SCITEGIC>MOL_PROPERTY
Angle
SciTegic.value.DoubleValue
2.229

@<SCITEGIC>MOL_PROPERTY
Pdih
SciTegic.value.DoubleValue
12.953

@<SCITEGIC>MOL_PROPERTY
Idih
SciTegic.value.DoubleValue
0.000

@<SCITEGIC>MOL_PROPERTY
Tether
SciTegic.value.DoubleValue
0.000

@<TRIPOS>MOLECULE
guest-s20_confgen4.mol2 : confsearch ligand conformer 758
          17          16           1
SMALL
USER_CHARGES
 
@<TRIPOS>ATOM
       1    C1      17.538405   17.895506   21.975645 C.2        1 MOL1         0.6132
       2    O1      16.949522   17.996037   23.033984 O.co2      1 MOL1        -0.6749
       3    O2      17.031976   18.142013   20.898791 O.co2      1 MOL1        -0.6749
       4    C2      18.986976   17.425772   22.001830 C.3        1 MOL1        -0.1955
       5    H1      19.222282   16.985112   21.025595 H          1 MOL1         0.0733
       6    H2      19.064925   16.622169   22.743218 H          1 MOL1         0.0733
       7    C3      19.953761   18.544038   22.342731 C.2        1 MOL1        -0.1395
       8    H3      19.874607   18.918026   23.362024 H          1 MOL1         0.0816
       9    C4      20.840291   19.054437   21.478863 C.2        1 MOL1        -0.1394
      10    H4      20.887429   18.657418   20.465335 H          1 MOL1         0.0816
      11    C5      21.831989   20.172994   21.750811 C.3        1 MOL1        -0.1826
      12    H5      22.847678   19.805676   21.550915 H          1 MOL1         0.0736
      13    H6      21.663299   20.982371   21.027642 H          1 MOL1         0.0736
      14    C6      21.780411   20.757054   23.179881 C.3        1 MOL1        -0.2882
      15    H7      21.998794   19.984924   23.929232 H          1 MOL1         0.0749
      16    H8      22.522974   21.557196   23.295652 H          1 MOL1         0.0749
      17    H9      20.791548   21.182380   23.396069 H          1 MOL1         0.0749
@<TRIPOS>BOND
    1     1     2    1
    2     1     3    2
    3     1     4    1
    4     4     5    1
    5     4     6    1
    6     4     7    1
    7     7     8    1
    8     7     9    2
    9     9    10    1
   10     9    11    1
   11    11    12    1
   12    11    13    1
   13    11    14    1
   14    14    15    1
   15    14    16    1
   16    14    17    1
@<TRIPOS>SUBSTRUCTURE
       1 MOL1            1 RESIDUE      1      MOL     
@<SCITEGIC>MOL_PROPERTY
VConf Rank
SciTegic.value.IntegerValue
758

@<SCITEGIC>MOL_PROPERTY
Conf_Id
SciTegic.value.IntegerValue
19

@<SCITEGIC>MOL_PROPERTY
Delta U+W
SciTegic.value.DoubleValue
-0.496

@<SCITEGIC>MOL_PROPERTY
U+W
SciTegic.value.DoubleValue
-49.923

@<SCITEGIC>MOL_PROPERTY
Grad RMS
SciTegic.value.DoubleValue
0.000000

@<SCITEGIC>MOL_PROPERTY
U
SciTegic.value.DoubleValue
13.863

@<SCITEGIC>MOL_PROPERTY
W
SciTegic.value.DoubleValue
-63.786

@<SCITEGIC>MOL_PROPERTY
W(PB)
SciTegic.value.DoubleValue
-65.856

@<SCITEGIC>MOL_PROPERTY
W(SA)
SciTegic.value.DoubleValue
2.070

@<SCITEGIC>MOL_PROPERTY
Valence
SciTegic.value.DoubleValue
14.117

@<SCITEGIC>MOL_PROPERTY
Coulomb
SciTegic.value.DoubleValue
-1.228

@<SCITEGIC>MOL_PROPERTY
VdW
SciTegic.value.DoubleValue
0.974

@<SCITEGIC>MOL_PROPERTY
VdW6
SciTegic.value.DoubleValue
-4.885

@<SCITEGIC>MOL_PROPERTY
VdW12
SciTegic.value.DoubleValue
5.859

@<SCITEGIC>MOL_PROPERTY
Bond
SciTegic.value.DoubleValue
0.094

@<SCITEGIC>MOL_PROPERTY
Angle
SciTegic.value.DoubleValue
2.818

@<SCITEGIC>MOL_PROPERTY
Pdih
SciTegic.value.DoubleValue
11.205

@<SCITEGIC>MOL_PROPERTY
Idih
SciTegic.value.DoubleValue
0.000

@<SCITEGIC>MOL_PROPERTY
Tether
SciTegic.value.DoubleValue
0.000

@<TRIPOS>MOLECULE
guest-s20_confgen4.mol2 : confsearch ligand conformer 759
          17          16           1
SMALL
USER_CHARGES
 
@<TRIPOS>ATOM
       1    C1      18.157704   18.031348   20.327092 C.2        1 MOL1         0.6132
       2    O1      17.116603   18.429133   20.811537 O.co2      1 MOL1        -0.6749
       3    O2      18.427808   18.123974   19.145794 O.co2      1 MOL1        -0.6749
       4    C2      19.176439   17.370743   21.246662 C.3        1 MOL1        -0.1955
       5    H1      19.581787   16.496720   20.723918 H          1 MOL1         0.0733
       6    H2      18.648293   16.998372   22.132695 H          1 MOL1         0.0733
       7    C3      20.300427   18.310763   21.638807 C.2        1 MOL1        -0.1395
       8    H3      20.967355   18.601972   20.827869 H          1 MOL1         0.0816
       9    C4      20.491030   18.778864   22.876049 C.2        1 MOL1        -0.1394
      10    H4      19.820771   18.491415   23.685485 H          1 MOL1         0.0816
      11    C5      21.610730   19.718453   23.264355 C.3        1 MOL1        -0.1826
      12    H5      22.110301   19.346395   24.169078 H          1 MOL1         0.0736
      13    H6      22.373852   19.754128   22.474684 H          1 MOL1         0.0736
      14    C6      21.075678   21.140758   23.520789 C.3        1 MOL1        -0.2882
      15    H7      20.337725   21.140957   24.333717 H          1 MOL1         0.0749
      16    H8      21.892298   21.818453   23.801731 H          1 MOL1         0.0749
      17    H9      20.592774   21.543561   22.620658 H          1 MOL1         0.0749
@<TRIPOS>BOND
    1     1     2    1
    2     1     3    2
    3     1     4    1
    4     4     5    1
    5     4     6    1
    6     4     7    1
    7     7     8    1
    8     7     9    2
    9     9    10    1
   10     9    11    1
   11    11    12    1
   12    11    13    1
   13    11    14    1
   14    14    15    1
   15    14    16    1
   16    14    17    1
@<TRIPOS>SUBSTRUCTURE
       1 MOL1            1 RESIDUE      1      MOL     
@<SCITEGIC>MOL_PROPERTY
VConf Rank
SciTegic.value.IntegerValue
759

@<SCITEGIC>MOL_PROPERTY
Conf_Id
SciTegic.value.IntegerValue
7

@<SCITEGIC>MOL_PROPERTY
Delta U+W
SciTegic.value.DoubleValue
-0.041

@<SCITEGIC>MOL_PROPERTY
U+W
SciTegic.value.DoubleValue
-49.468

@<SCITEGIC>MOL_PROPERTY
Grad RMS
SciTegic.value.DoubleValue
0.000000

@<SCITEGIC>MOL_PROPERTY
U
SciTegic.value.DoubleValue
14.121

@<SCITEGIC>MOL_PROPERTY
W
SciTegic.value.DoubleValue
-63.589

@<SCITEGIC>MOL_PROPERTY
W(PB)
SciTegic.value.DoubleValue
-65.660

@<SCITEGIC>MOL_PROPERTY
W(SA)
SciTegic.value.DoubleValue
2.071

@<SCITEGIC>MOL_PROPERTY
Valence
SciTegic.value.DoubleValue
15.230

@<SCITEGIC>MOL_PROPERTY
Coulomb
SciTegic.value.DoubleValue
-1.333

@<SCITEGIC>MOL_PROPERTY
VdW
SciTegic.value.DoubleValue
0.224

@<SCITEGIC>MOL_PROPERTY
VdW6
SciTegic.value.DoubleValue
-4.212

@<SCITEGIC>MOL_PROPERTY
VdW12
SciTegic.value.DoubleValue
4.436

@<SCITEGIC>MOL_PROPERTY
Bond
SciTegic.value.DoubleValue
0.044

@<SCITEGIC>MOL_PROPERTY
Angle
SciTegic.value.DoubleValue
2.230

@<SCITEGIC>MOL_PROPERTY
Pdih
SciTegic.value.DoubleValue
12.956

@<SCITEGIC>MOL_PROPERTY
Idih
SciTegic.value.DoubleValue
0.000

@<SCITEGIC>MOL_PROPERTY
Tether
SciTegic.value.DoubleValue
0.000

@<TRIPOS>MOLECULE
guest-s20_confgen4.mol2 : confsearch ligand conformer 760
          17          16           1
SMALL
USER_CHARGES
 
@<TRIPOS>ATOM
       1    C1      18.187368   19.326297   24.228517 C.2        1 MOL1         0.6132
       2    O1      18.193019   20.504596   24.526130 O.co2      1 MOL1        -0.6749
       3    O2      18.327018   18.429194   25.036468 O.co2      1 MOL1        -0.6749
       4    C2      17.965219   18.952159   22.766242 C.3        1 MOL1        -0.1955
       5    H1      17.312021   19.711297   22.320362 H          1 MOL1         0.0733
       6    H2      17.397801   18.014516   22.742101 H          1 MOL1         0.0733
       7    C3      19.226256   18.807237   21.926206 C.2        1 MOL1        -0.1395
       8    H3      19.045031   18.539773   20.885934 H          1 MOL1         0.0816
       9    C4      20.481888   18.979502   22.355983 C.2        1 MOL1        -0.1394
      10    H4      20.690648   19.248034   23.390895 H          1 MOL1         0.0816
      11    C5      21.703695   18.821643   21.478367 C.3        1 MOL1        -0.1826
      12    H5      22.447150   18.193799   21.987883 H          1 MOL1         0.0736
      13    H6      21.442811   18.305705   20.544076 H          1 MOL1         0.0736
      14    C6      22.328194   20.191115   21.147330 C.3        1 MOL1        -0.2882
      15    H7      23.214967   20.070481   20.511609 H          1 MOL1         0.0749
      16    H8      21.610362   20.828093   20.613880 H          1 MOL1         0.0749
      17    H9      22.633956   20.713630   22.063270 H          1 MOL1         0.0749
@<TRIPOS>BOND
    1     1     2    1
    2     1     3    2
    3     1     4    1
    4     4     5    1
    5     4     6    1
    6     4     7    1
    7     7     8    1
    8     7     9    2
    9     9    10    1
   10     9    11    1
   11    11    12    1
   12    11    13    1
   13    11    14    1
   14    14    15    1
   15    14    16    1
   16    14    17    1
@<TRIPOS>SUBSTRUCTURE
       1 MOL1            1 RESIDUE      1      MOL     
@<SCITEGIC>MOL_PROPERTY
VConf Rank
SciTegic.value.IntegerValue
760

@<SCITEGIC>MOL_PROPERTY
Conf_Id
SciTegic.value.IntegerValue
39

@<SCITEGIC>MOL_PROPERTY
Delta U+W
SciTegic.value.DoubleValue
-0.422

@<SCITEGIC>MOL_PROPERTY
U+W
SciTegic.value.DoubleValue
-49.849

@<SCITEGIC>MOL_PROPERTY
Grad RMS
SciTegic.value.DoubleValue
0.000000

@<SCITEGIC>MOL_PROPERTY
U
SciTegic.value.DoubleValue
14.465

@<SCITEGIC>MOL_PROPERTY
W
SciTegic.value.DoubleValue
-64.314

@<SCITEGIC>MOL_PROPERTY
W(PB)
SciTegic.value.DoubleValue
-66.406

@<SCITEGIC>MOL_PROPERTY
W(SA)
SciTegic.value.DoubleValue
2.093

@<SCITEGIC>MOL_PROPERTY
Valence
SciTegic.value.DoubleValue
14.072

@<SCITEGIC>MOL_PROPERTY
Coulomb
SciTegic.value.DoubleValue
-0.199

@<SCITEGIC>MOL_PROPERTY
VdW
SciTegic.value.DoubleValue
0.592

@<SCITEGIC>MOL_PROPERTY
VdW6
SciTegic.value.DoubleValue
-5.019

@<SCITEGIC>MOL_PROPERTY
VdW12
SciTegic.value.DoubleValue
5.611

@<SCITEGIC>MOL_PROPERTY
Bond
SciTegic.value.DoubleValue
0.085

@<SCITEGIC>MOL_PROPERTY
Angle
SciTegic.value.DoubleValue
2.748

@<SCITEGIC>MOL_PROPERTY
Pdih
SciTegic.value.DoubleValue
11.238

@<SCITEGIC>MOL_PROPERTY
Idih
SciTegic.value.DoubleValue
0.001

@<SCITEGIC>MOL_PROPERTY
Tether
SciTegic.value.DoubleValue
0.000

@<TRIPOS>MOLECULE
guest-s20_confgen4.mol2 : confsearch ligand conformer 761
          17          16           1
SMALL
USER_CHARGES
 
@<TRIPOS>ATOM
       1    C1      23.124451   18.319285   21.986442 C.2        1 MOL1         0.6132
       2    O1      23.803811   18.777224   21.088822 O.co2      1 MOL1        -0.6749
       3    O2      23.190480   17.163686   22.356642 O.co2      1 MOL1        -0.6749
       4    C2      22.141335   19.247281   22.687805 C.3        1 MOL1        -0.1955
       5    H1      22.635744   20.215641   22.826905 H          1 MOL1         0.0733
       6    H2      21.941108   18.842859   23.687301 H          1 MOL1         0.0733
       7    C3      20.853903   19.427358   21.906246 C.2        1 MOL1        -0.1395
       8    H3      20.952188   19.970807   20.966989 H          1 MOL1         0.0816
       9    C4      19.663695   18.966666   22.302977 C.2        1 MOL1        -0.1394
      10    H4      19.566648   18.420739   23.240851 H          1 MOL1         0.0816
      11    C5      18.381650   19.143899   21.520500 C.3        1 MOL1        -0.1826
      12    H5      18.599951   19.464322   20.492447 H          1 MOL1         0.0736
      13    H6      17.856801   18.181855   21.446062 H          1 MOL1         0.0736
      14    C6      17.461020   20.180684   22.193240 C.3        1 MOL1        -0.2882
      15    H7      17.955688   21.158952   22.255652 H          1 MOL1         0.0749
      16    H8      16.532210   20.304497   21.621341 H          1 MOL1         0.0749
      17    H9      17.195029   19.866353   23.211018 H          1 MOL1         0.0749
@<TRIPOS>BOND
    1     1     2    1
    2     1     3    2
    3     1     4    1
    4     4     5    1
    5     4     6    1
    6     4     7    1
    7     7     8    1
    8     7     9    2
    9     9    10    1
   10     9    11    1
   11    11    12    1
   12    11    13    1
   13    11    14    1
   14    14    15    1
   15    14    16    1
   16    14    17    1
@<TRIPOS>SUBSTRUCTURE
       1 MOL1            1 RESIDUE      1      MOL     
@<SCITEGIC>MOL_PROPERTY
VConf Rank
SciTegic.value.IntegerValue
761

@<SCITEGIC>MOL_PROPERTY
Conf_Id
SciTegic.value.IntegerValue
38

@<SCITEGIC>MOL_PROPERTY
Delta U+W
SciTegic.value.DoubleValue
0.000

@<SCITEGIC>MOL_PROPERTY
U+W
SciTegic.value.DoubleValue
-49.427

@<SCITEGIC>MOL_PROPERTY
Grad RMS
SciTegic.value.DoubleValue
0.000000

@<SCITEGIC>MOL_PROPERTY
U
SciTegic.value.DoubleValue
13.666

@<SCITEGIC>MOL_PROPERTY
W
SciTegic.value.DoubleValue
-63.093

@<SCITEGIC>MOL_PROPERTY
W(PB)
SciTegic.value.DoubleValue
-65.225

@<SCITEGIC>MOL_PROPERTY
W(SA)
SciTegic.value.DoubleValue
2.132

@<SCITEGIC>MOL_PROPERTY
Valence
SciTegic.value.DoubleValue
15.226

@<SCITEGIC>MOL_PROPERTY
Coulomb
SciTegic.value.DoubleValue
-1.822

@<SCITEGIC>MOL_PROPERTY
VdW
SciTegic.value.DoubleValue
0.261

@<SCITEGIC>MOL_PROPERTY
VdW6
SciTegic.value.DoubleValue
-4.165

@<SCITEGIC>MOL_PROPERTY
VdW12
SciTegic.value.DoubleValue
4.426

@<SCITEGIC>MOL_PROPERTY
Bond
SciTegic.value.DoubleValue
0.044

@<SCITEGIC>MOL_PROPERTY
Angle
SciTegic.value.DoubleValue
2.229

@<SCITEGIC>MOL_PROPERTY
Pdih
SciTegic.value.DoubleValue
12.953

@<SCITEGIC>MOL_PROPERTY
Idih
SciTegic.value.DoubleValue
0.000

@<SCITEGIC>MOL_PROPERTY
Tether
SciTegic.value.DoubleValue
0.000

@<TRIPOS>MOLECULE
guest-s20_confgen4.mol2 : confsearch ligand conformer 762
          17          16           1
SMALL
USER_CHARGES
 
@<TRIPOS>ATOM
       1    C1      22.833428   20.632830   22.882572 C.2        1 MOL1         0.6132
       2    O1      23.697599   20.250432   22.118505 O.co2      1 MOL1        -0.6749
       3    O2      23.023745   20.834121   24.065881 O.co2      1 MOL1        -0.6749
       4    C2      21.436477   20.879048   22.328037 C.3        1 MOL1        -0.1955
       5    H1      21.523394   21.070427   21.251719 H          1 MOL1         0.0733
       6    H2      21.050983   21.796910   22.786765 H          1 MOL1         0.0733
       7    C3      20.491550   19.724178   22.600308 C.2        1 MOL1        -0.1395
       8    H3      20.229189   19.574856   23.647242 H          1 MOL1         0.0816
       9    C4      19.995021   18.920961   21.654511 C.2        1 MOL1        -0.1394
      10    H4      20.260302   19.068872   20.608179 H          1 MOL1         0.0816
      11    C5      19.056038   17.767416   21.928308 C.3        1 MOL1        -0.1826
      12    H5      19.411990   16.868101   21.407671 H          1 MOL1         0.0736
      13    H6      19.044530   17.527277   23.000418 H          1 MOL1         0.0736
      14    C6      17.623909   18.096833   21.464033 C.3        1 MOL1        -0.2882
      15    H7      17.599479   18.303997   20.386112 H          1 MOL1         0.0749
      16    H8      16.947380   17.255913   21.664648 H          1 MOL1         0.0749
      17    H9      17.236513   18.978931   21.990748 H          1 MOL1         0.0749
@<TRIPOS>BOND
    1     1     2    1
    2     1     3    2
    3     1     4    1
    4     4     5    1
    5     4     6    1
    6     4     7    1
    7     7     8    1
    8     7     9    2
    9     9    10    1
   10     9    11    1
   11    11    12    1
   12    11    13    1
   13    11    14    1
   14    14    15    1
   15    14    16    1
   16    14    17    1
@<TRIPOS>SUBSTRUCTURE
       1 MOL1            1 RESIDUE      1      MOL     
@<SCITEGIC>MOL_PROPERTY
VConf Rank
SciTegic.value.IntegerValue
762

@<SCITEGIC>MOL_PROPERTY
Conf_Id
SciTegic.value.IntegerValue
35

@<SCITEGIC>MOL_PROPERTY
Delta U+W
SciTegic.value.DoubleValue
-0.102

@<SCITEGIC>MOL_PROPERTY
U+W
SciTegic.value.DoubleValue
-49.529

@<SCITEGIC>MOL_PROPERTY
Grad RMS
SciTegic.value.DoubleValue
0.000000

@<SCITEGIC>MOL_PROPERTY
U
SciTegic.value.DoubleValue
13.666

@<SCITEGIC>MOL_PROPERTY
W
SciTegic.value.DoubleValue
-63.195

@<SCITEGIC>MOL_PROPERTY
W(PB)
SciTegic.value.DoubleValue
-65.299

@<SCITEGIC>MOL_PROPERTY
W(SA)
SciTegic.value.DoubleValue
2.103

@<SCITEGIC>MOL_PROPERTY
Valence
SciTegic.value.DoubleValue
15.226

@<SCITEGIC>MOL_PROPERTY
Coulomb
SciTegic.value.DoubleValue
-1.822

@<SCITEGIC>MOL_PROPERTY
VdW
SciTegic.value.DoubleValue
0.261

@<SCITEGIC>MOL_PROPERTY
VdW6
SciTegic.value.DoubleValue
-4.165

@<SCITEGIC>MOL_PROPERTY
VdW12
SciTegic.value.DoubleValue
4.426

@<SCITEGIC>MOL_PROPERTY
Bond
SciTegic.value.DoubleValue
0.044

@<SCITEGIC>MOL_PROPERTY
Angle
SciTegic.value.DoubleValue
2.229

@<SCITEGIC>MOL_PROPERTY
Pdih
SciTegic.value.DoubleValue
12.953

@<SCITEGIC>MOL_PROPERTY
Idih
SciTegic.value.DoubleValue
0.000

@<SCITEGIC>MOL_PROPERTY
Tether
SciTegic.value.DoubleValue
0.000

@<TRIPOS>MOLECULE
guest-s20_confgen4.mol2 : confsearch ligand conformer 763
          17          16           1
SMALL
USER_CHARGES
 
@<TRIPOS>ATOM
       1    C1      22.899741   19.280633   20.975902 C.2        1 MOL1         0.6132
       2    O1      23.067709   18.350643   20.211784 O.co2      1 MOL1        -0.6749
       3    O2      23.187683   20.430580   20.708395 O.co2      1 MOL1        -0.6749
       4    C2      22.304616   18.985311   22.346414 C.3        1 MOL1        -0.1955
       5    H1      22.610169   19.784472   23.032391 H          1 MOL1         0.0733
       6    H2      22.756442   18.056959   22.714552 H          1 MOL1         0.0733
       7    C3      20.794259   18.848871   22.306248 C.2        1 MOL1        -0.1395
       8    H3      20.431213   17.975078   21.767943 H          1 MOL1         0.0816
       9    C4      19.950104   19.720031   22.872988 C.2        1 MOL1        -0.1394
      10    H4      20.350442   20.585595   23.399877 H          1 MOL1         0.0816
      11    C5      18.432447   19.647334   22.868301 C.3        1 MOL1        -0.1826
      12    H5      18.072443   19.640024   23.906015 H          1 MOL1         0.0736
      13    H6      18.032950   20.568980   22.423902 H          1 MOL1         0.0736
      14    C6      17.840143   18.431658   22.121750 C.3        1 MOL1        -0.2882
      15    H7      18.175985   17.489437   22.574333 H          1 MOL1         0.0749
      16    H8      16.743355   18.451899   22.162672 H          1 MOL1         0.0749
      17    H9      18.137164   18.435617   21.064749 H          1 MOL1         0.0749
@<TRIPOS>BOND
    1     1     2    1
    2     1     3    2
    3     1     4    1
    4     4     5    1
    5     4     6    1
    6     4     7    1
    7     7     8    1
    8     7     9    2
    9     9    10    1
   10     9    11    1
   11    11    12    1
   12    11    13    1
   13    11    14    1
   14    14    15    1
   15    14    16    1
   16    14    17    1
@<TRIPOS>SUBSTRUCTURE
       1 MOL1            1 RESIDUE      1      MOL     
@<SCITEGIC>MOL_PROPERTY
VConf Rank
SciTegic.value.IntegerValue
763

@<SCITEGIC>MOL_PROPERTY
Conf_Id
SciTegic.value.IntegerValue
19

@<SCITEGIC>MOL_PROPERTY
Delta U+W
SciTegic.value.DoubleValue
-0.496

@<SCITEGIC>MOL_PROPERTY
U+W
SciTegic.value.DoubleValue
-49.923

@<SCITEGIC>MOL_PROPERTY
Grad RMS
SciTegic.value.DoubleValue
0.000000

@<SCITEGIC>MOL_PROPERTY
U
SciTegic.value.DoubleValue
13.863

@<SCITEGIC>MOL_PROPERTY
W
SciTegic.value.DoubleValue
-63.786

@<SCITEGIC>MOL_PROPERTY
W(PB)
SciTegic.value.DoubleValue
-65.856

@<SCITEGIC>MOL_PROPERTY
W(SA)
SciTegic.value.DoubleValue
2.070

@<SCITEGIC>MOL_PROPERTY
Valence
SciTegic.value.DoubleValue
14.117

@<SCITEGIC>MOL_PROPERTY
Coulomb
SciTegic.value.DoubleValue
-1.228

@<SCITEGIC>MOL_PROPERTY
VdW
SciTegic.value.DoubleValue
0.974

@<SCITEGIC>MOL_PROPERTY
VdW6
SciTegic.value.DoubleValue
-4.885

@<SCITEGIC>MOL_PROPERTY
VdW12
SciTegic.value.DoubleValue
5.859

@<SCITEGIC>MOL_PROPERTY
Bond
SciTegic.value.DoubleValue
0.094

@<SCITEGIC>MOL_PROPERTY
Angle
SciTegic.value.DoubleValue
2.818

@<SCITEGIC>MOL_PROPERTY
Pdih
SciTegic.value.DoubleValue
11.205

@<SCITEGIC>MOL_PROPERTY
Idih
SciTegic.value.DoubleValue
0.000

@<SCITEGIC>MOL_PROPERTY
Tether
SciTegic.value.DoubleValue
0.000

@<TRIPOS>MOLECULE
guest-s20_confgen4.mol2 : confsearch ligand conformer 764
          17          16           1
SMALL
USER_CHARGES
 
@<TRIPOS>ATOM
       1    C1      22.501448   20.037737   23.688121 C.2        1 MOL1         0.6132
       2    O1      23.409967   19.797998   22.917452 O.co2      1 MOL1        -0.6749
       3    O2      22.374390   21.098150   24.268107 O.co2      1 MOL1        -0.6749
       4    C2      21.470717   18.947700   23.951258 C.3        1 MOL1        -0.1955
       5    H1      21.255302   18.943308   25.025996 H          1 MOL1         0.0733
       6    H2      21.926289   17.979443   23.711287 H          1 MOL1         0.0733
       7    C3      20.190892   19.156327   23.164311 C.2        1 MOL1        -0.1395
       8    H3      19.600132   20.023285   23.458594 H          1 MOL1         0.0816
       9    C4      19.783399   18.363132   22.168817 C.2        1 MOL1        -0.1394
      10    H4      20.377125   17.499312   21.871558 H          1 MOL1         0.0816
      11    C5      18.508336   18.574620   21.383437 C.3        1 MOL1        -0.1826
      12    H5      17.951377   17.630082   21.318884 H          1 MOL1         0.0736
      13    H6      17.854312   19.291911   21.898175 H          1 MOL1         0.0736
      14    C6      18.812271   19.090080   19.963255 C.3        1 MOL1        -0.2882
      15    H7      19.433815   18.373046   19.411015 H          1 MOL1         0.0749
      16    H8      17.883635   19.242228   19.397964 H          1 MOL1         0.0749
      17    H9      19.348171   20.047649   20.002689 H          1 MOL1         0.0749
@<TRIPOS>BOND
    1     1     2    1
    2     1     3    2
    3     1     4    1
    4     4     5    1
    5     4     6    1
    6     4     7    1
    7     7     8    1
    8     7     9    2
    9     9    10    1
   10     9    11    1
   11    11    12    1
   12    11    13    1
   13    11    14    1
   14    14    15    1
   15    14    16    1
   16    14    17    1
@<TRIPOS>SUBSTRUCTURE
       1 MOL1            1 RESIDUE      1      MOL     
@<SCITEGIC>MOL_PROPERTY
VConf Rank
SciTegic.value.IntegerValue
764

@<SCITEGIC>MOL_PROPERTY
Conf_Id
SciTegic.value.IntegerValue
7

@<SCITEGIC>MOL_PROPERTY
Delta U+W
SciTegic.value.DoubleValue
-0.041

@<SCITEGIC>MOL_PROPERTY
U+W
SciTegic.value.DoubleValue
-49.468

@<SCITEGIC>MOL_PROPERTY
Grad RMS
SciTegic.value.DoubleValue
0.000000

@<SCITEGIC>MOL_PROPERTY
U
SciTegic.value.DoubleValue
14.121

@<SCITEGIC>MOL_PROPERTY
W
SciTegic.value.DoubleValue
-63.589

@<SCITEGIC>MOL_PROPERTY
W(PB)
SciTegic.value.DoubleValue
-65.660

@<SCITEGIC>MOL_PROPERTY
W(SA)
SciTegic.value.DoubleValue
2.071

@<SCITEGIC>MOL_PROPERTY
Valence
SciTegic.value.DoubleValue
15.230

@<SCITEGIC>MOL_PROPERTY
Coulomb
SciTegic.value.DoubleValue
-1.333

@<SCITEGIC>MOL_PROPERTY
VdW
SciTegic.value.DoubleValue
0.224

@<SCITEGIC>MOL_PROPERTY
VdW6
SciTegic.value.DoubleValue
-4.212

@<SCITEGIC>MOL_PROPERTY
VdW12
SciTegic.value.DoubleValue
4.436

@<SCITEGIC>MOL_PROPERTY
Bond
SciTegic.value.DoubleValue
0.044

@<SCITEGIC>MOL_PROPERTY
Angle
SciTegic.value.DoubleValue
2.230

@<SCITEGIC>MOL_PROPERTY
Pdih
SciTegic.value.DoubleValue
12.956

@<SCITEGIC>MOL_PROPERTY
Idih
SciTegic.value.DoubleValue
0.000

@<SCITEGIC>MOL_PROPERTY
Tether
SciTegic.value.DoubleValue
0.000

@<TRIPOS>MOLECULE
guest-s20_confgen4.mol2 : confsearch ligand conformer 765
          17          16           1
SMALL
USER_CHARGES
 
@<TRIPOS>ATOM
       1    C1      22.009072   19.199149   20.243839 C.2        1 MOL1         0.6132
       2    O1      21.851519   20.295201   19.742998 O.co2      1 MOL1        -0.6749
       3    O2      21.964435   18.160646   19.614076 O.co2      1 MOL1        -0.6749
       4    C2      22.306499   19.124400   21.738337 C.3        1 MOL1        -0.1955
       5    H1      22.870066   20.023245   22.014450 H          1 MOL1         0.0733
       6    H2      22.985874   18.280091   21.903600 H          1 MOL1         0.0733
       7    C3      21.091017   18.986168   22.644081 C.2        1 MOL1        -0.1395
       8    H3      21.325773   18.934456   23.706513 H          1 MOL1         0.0816
       9    C4      19.814955   18.928691   22.244884 C.2        1 MOL1        -0.1394
      10    H4      19.552862   18.979171   21.188715 H          1 MOL1         0.0816
      11    C5      18.640783   18.789245   23.188184 C.3        1 MOL1        -0.1826
      12    H5      17.970100   17.996457   22.830145 H          1 MOL1         0.0736
      13    H6      18.983061   18.485139   24.186943 H          1 MOL1         0.0736
      14    C6      17.858864   20.112699   23.298224 C.3        1 MOL1        -0.2882
      15    H7      17.007387   20.005347   23.982712 H          1 MOL1         0.0749
      16    H8      18.503502   20.915713   23.679281 H          1 MOL1         0.0749
      17    H9      17.471637   20.421255   22.318273 H          1 MOL1         0.0749
@<TRIPOS>BOND
    1     1     2    1
    2     1     3    2
    3     1     4    1
    4     4     5    1
    5     4     6    1
    6     4     7    1
    7     7     8    1
    8     7     9    2
    9     9    10    1
   10     9    11    1
   11    11    12    1
   12    11    13    1
   13    11    14    1
   14    14    15    1
   15    14    16    1
   16    14    17    1
@<TRIPOS>SUBSTRUCTURE
       1 MOL1            1 RESIDUE      1      MOL     
@<SCITEGIC>MOL_PROPERTY
VConf Rank
SciTegic.value.IntegerValue
765

@<SCITEGIC>MOL_PROPERTY
Conf_Id
SciTegic.value.IntegerValue
39

@<SCITEGIC>MOL_PROPERTY
Delta U+W
SciTegic.value.DoubleValue
-0.422

@<SCITEGIC>MOL_PROPERTY
U+W
SciTegic.value.DoubleValue
-49.849

@<SCITEGIC>MOL_PROPERTY
Grad RMS
SciTegic.value.DoubleValue
0.000000

@<SCITEGIC>MOL_PROPERTY
U
SciTegic.value.DoubleValue
14.465

@<SCITEGIC>MOL_PROPERTY
W
SciTegic.value.DoubleValue
-64.314

@<SCITEGIC>MOL_PROPERTY
W(PB)
SciTegic.value.DoubleValue
-66.406

@<SCITEGIC>MOL_PROPERTY
W(SA)
SciTegic.value.DoubleValue
2.093

@<SCITEGIC>MOL_PROPERTY
Valence
SciTegic.value.DoubleValue
14.072

@<SCITEGIC>MOL_PROPERTY
Coulomb
SciTegic.value.DoubleValue
-0.199

@<SCITEGIC>MOL_PROPERTY
VdW
SciTegic.value.DoubleValue
0.592

@<SCITEGIC>MOL_PROPERTY
VdW6
SciTegic.value.DoubleValue
-5.019

@<SCITEGIC>MOL_PROPERTY
VdW12
SciTegic.value.DoubleValue
5.611

@<SCITEGIC>MOL_PROPERTY
Bond
SciTegic.value.DoubleValue
0.085

@<SCITEGIC>MOL_PROPERTY
Angle
SciTegic.value.DoubleValue
2.748

@<SCITEGIC>MOL_PROPERTY
Pdih
SciTegic.value.DoubleValue
11.238

@<SCITEGIC>MOL_PROPERTY
Idih
SciTegic.value.DoubleValue
0.001

@<SCITEGIC>MOL_PROPERTY
Tether
SciTegic.value.DoubleValue
0.000

@<TRIPOS>MOLECULE
guest-s20_confgen4.mol2 : confsearch ligand conformer 766
          17          16           1
SMALL
USER_CHARGES
 
@<TRIPOS>ATOM
       1    C1      20.347377   20.922067   19.414097 C.2        1 MOL1         0.6132
       2    O1      21.423815   20.889358   18.850918 O.co2      1 MOL1        -0.6749
       3    O2      19.663755   21.923172   19.499354 O.co2      1 MOL1        -0.6749
       4    C2      19.826181   19.636010   20.041805 C.3        1 MOL1        -0.1955
       5    H1      20.048780   18.812924   19.352974 H          1 MOL1         0.0733
       6    H2      18.734244   19.707448   20.113995 H          1 MOL1         0.0733
       7    C3      20.443922   19.360430   21.399449 C.2        1 MOL1        -0.1395
       8    H3      21.506308   19.118831   21.386598 H          1 MOL1         0.0816
       9    C4      19.770950   19.402605   22.553380 C.2        1 MOL1        -0.1394
      10    H4      18.709305   19.647178   22.565792 H          1 MOL1         0.0816
      11    C5      20.389446   19.131218   23.906574 C.3        1 MOL1        -0.1826
      12    H5      21.485928   19.150101   23.838809 H          1 MOL1         0.0736
      13    H6      20.103464   19.924337   24.610643 H          1 MOL1         0.0736
      14    C6      19.936032   17.765819   24.458988 C.3        1 MOL1        -0.2882
      15    H7      20.234103   16.953381   23.783193 H          1 MOL1         0.0749
      16    H8      20.387497   17.574797   25.441218 H          1 MOL1         0.0749
      17    H9      18.844606   17.732434   24.573456 H          1 MOL1         0.0749
@<TRIPOS>BOND
    1     1     2    1
    2     1     3    2
    3     1     4    1
    4     4     5    1
    5     4     6    1
    6     4     7    1
    7     7     8    1
    8     7     9    2
    9     9    10    1
   10     9    11    1
   11    11    12    1
   12    11    13    1
   13    11    14    1
   14    14    15    1
   15    14    16    1
   16    14    17    1
@<TRIPOS>SUBSTRUCTURE
       1 MOL1            1 RESIDUE      1      MOL     
@<SCITEGIC>MOL_PROPERTY
VConf Rank
SciTegic.value.IntegerValue
766

@<SCITEGIC>MOL_PROPERTY
Conf_Id
SciTegic.value.IntegerValue
38

@<SCITEGIC>MOL_PROPERTY
Delta U+W
SciTegic.value.DoubleValue
0.000

@<SCITEGIC>MOL_PROPERTY
U+W
SciTegic.value.DoubleValue
-49.427

@<SCITEGIC>MOL_PROPERTY
Grad RMS
SciTegic.value.DoubleValue
0.000000

@<SCITEGIC>MOL_PROPERTY
U
SciTegic.value.DoubleValue
13.666

@<SCITEGIC>MOL_PROPERTY
W
SciTegic.value.DoubleValue
-63.093

@<SCITEGIC>MOL_PROPERTY
W(PB)
SciTegic.value.DoubleValue
-65.225

@<SCITEGIC>MOL_PROPERTY
W(SA)
SciTegic.value.DoubleValue
2.132

@<SCITEGIC>MOL_PROPERTY
Valence
SciTegic.value.DoubleValue
15.226

@<SCITEGIC>MOL_PROPERTY
Coulomb
SciTegic.value.DoubleValue
-1.822

@<SCITEGIC>MOL_PROPERTY
VdW
SciTegic.value.DoubleValue
0.261

@<SCITEGIC>MOL_PROPERTY
VdW6
SciTegic.value.DoubleValue
-4.165

@<SCITEGIC>MOL_PROPERTY
VdW12
SciTegic.value.DoubleValue
4.426

@<SCITEGIC>MOL_PROPERTY
Bond
SciTegic.value.DoubleValue
0.044

@<SCITEGIC>MOL_PROPERTY
Angle
SciTegic.value.DoubleValue
2.229

@<SCITEGIC>MOL_PROPERTY
Pdih
SciTegic.value.DoubleValue
12.953

@<SCITEGIC>MOL_PROPERTY
Idih
SciTegic.value.DoubleValue
0.000

@<SCITEGIC>MOL_PROPERTY
Tether
SciTegic.value.DoubleValue
0.000

@<TRIPOS>MOLECULE
guest-s20_confgen4.mol2 : confsearch ligand conformer 767
          17          16           1
SMALL
USER_CHARGES
 
@<TRIPOS>ATOM
       1    C1      22.822374   17.975868   23.032325 C.2        1 MOL1         0.6132
       2    O1      23.615691   18.022405   22.112923 O.co2      1 MOL1        -0.6749
       3    O2      22.747031   17.043630   23.808351 O.co2      1 MOL1        -0.6749
       4    C2      21.873659   19.151170   23.227799 C.3        1 MOL1        -0.1955
       5    H1      22.325426   20.037280   22.765895 H          1 MOL1         0.0733
       6    H2      21.804405   19.350408   24.303445 H          1 MOL1         0.0733
       7    C3      20.493581   18.884719   22.657594 C.2        1 MOL1        -0.1395
       8    H3      19.916331   18.119242   23.175308 H          1 MOL1         0.0816
       9    C4      19.984117   19.518073   21.596680 C.2        1 MOL1        -0.1394
      10    H4      20.563121   20.281157   21.077530 H          1 MOL1         0.0816
      11    C5      18.609310   19.248270   21.027088 C.3        1 MOL1        -0.1826
      12    H5      18.677941   19.118893   19.938472 H          1 MOL1         0.0736
      13    H6      18.203085   18.310702   21.431028 H          1 MOL1         0.0736
      14    C6      17.640746   20.403491   21.347098 C.3        1 MOL1        -0.2882
      15    H7      18.003566   21.348207   20.921303 H          1 MOL1         0.0749
      16    H8      16.645133   20.202371   20.930695 H          1 MOL1         0.0749
      17    H9      17.536008   20.535219   22.432122 H          1 MOL1         0.0749
@<TRIPOS>BOND
    1     1     2    1
    2     1     3    2
    3     1     4    1
    4     4     5    1
    5     4     6    1
    6     4     7    1
    7     7     8    1
    8     7     9    2
    9     9    10    1
   10     9    11    1
   11    11    12    1
   12    11    13    1
   13    11    14    1
   14    14    15    1
   15    14    16    1
   16    14    17    1
@<TRIPOS>SUBSTRUCTURE
       1 MOL1            1 RESIDUE      1      MOL     
@<SCITEGIC>MOL_PROPERTY
VConf Rank
SciTegic.value.IntegerValue
767

@<SCITEGIC>MOL_PROPERTY
Conf_Id
SciTegic.value.IntegerValue
35

@<SCITEGIC>MOL_PROPERTY
Delta U+W
SciTegic.value.DoubleValue
-0.102

@<SCITEGIC>MOL_PROPERTY
U+W
SciTegic.value.DoubleValue
-49.529

@<SCITEGIC>MOL_PROPERTY
Grad RMS
SciTegic.value.DoubleValue
0.000000

@<SCITEGIC>MOL_PROPERTY
U
SciTegic.value.DoubleValue
13.666

@<SCITEGIC>MOL_PROPERTY
W
SciTegic.value.DoubleValue
-63.195

@<SCITEGIC>MOL_PROPERTY
W(PB)
SciTegic.value.DoubleValue
-65.299

@<SCITEGIC>MOL_PROPERTY
W(SA)
SciTegic.value.DoubleValue
2.103

@<SCITEGIC>MOL_PROPERTY
Valence
SciTegic.value.DoubleValue
15.226

@<SCITEGIC>MOL_PROPERTY
Coulomb
SciTegic.value.DoubleValue
-1.822

@<SCITEGIC>MOL_PROPERTY
VdW
SciTegic.value.DoubleValue
0.261

@<SCITEGIC>MOL_PROPERTY
VdW6
SciTegic.value.DoubleValue
-4.165

@<SCITEGIC>MOL_PROPERTY
VdW12
SciTegic.value.DoubleValue
4.426

@<SCITEGIC>MOL_PROPERTY
Bond
SciTegic.value.DoubleValue
0.044

@<SCITEGIC>MOL_PROPERTY
Angle
SciTegic.value.DoubleValue
2.229

@<SCITEGIC>MOL_PROPERTY
Pdih
SciTegic.value.DoubleValue
12.953

@<SCITEGIC>MOL_PROPERTY
Idih
SciTegic.value.DoubleValue
0.000

@<SCITEGIC>MOL_PROPERTY
Tether
SciTegic.value.DoubleValue
0.000

@<TRIPOS>MOLECULE
guest-s20_confgen4.mol2 : confsearch ligand conformer 768
          17          16           1
SMALL
USER_CHARGES
 
@<TRIPOS>ATOM
       1    C1      21.407625   20.387587   19.828200 C.2        1 MOL1         0.6132
       2    O1      21.475166   19.588322   18.915191 O.co2      1 MOL1        -0.6749
       3    O2      21.006449   21.527018   19.695522 O.co2      1 MOL1        -0.6749
       4    C2      21.859765   19.937624   21.211239 C.3        1 MOL1        -0.1955
       5    H1      22.144777   20.827512   21.785219 H          1 MOL1         0.0733
       6    H2      22.765507   19.332886   21.087001 H          1 MOL1         0.0733
       7    C3      20.795382   19.137569   21.938153 C.2        1 MOL1        -0.1395
       8    H3      20.581057   18.163963   21.500837 H          1 MOL1         0.0816
       9    C4      20.150159   19.570199   23.028672 C.2        1 MOL1        -0.1394
      10    H4      20.388479   20.552486   23.435367 H          1 MOL1         0.0816
      11    C5      19.074764   18.825826   23.801992 C.3        1 MOL1        -0.1826
      12    H5      19.396235   18.718695   24.846829 H          1 MOL1         0.0736
      13    H6      18.167085   19.443554   23.834432 H          1 MOL1         0.0736
      14    C6      18.714586   17.432393   23.241061 C.3        1 MOL1        -0.2882
      15    H7      19.588864   16.768293   23.244347 H          1 MOL1         0.0749
      16    H8      17.933016   16.961973   23.851703 H          1 MOL1         0.0749
      17    H9      18.337949   17.507221   22.212453 H          1 MOL1         0.0749
@<TRIPOS>BOND
    1     1     2    1
    2     1     3    2
    3     1     4    1
    4     4     5    1
    5     4     6    1
    6     4     7    1
    7     7     8    1
    8     7     9    2
    9     9    10    1
   10     9    11    1
   11    11    12    1
   12    11    13    1
   13    11    14    1
   14    14    15    1
   15    14    16    1
   16    14    17    1
@<TRIPOS>SUBSTRUCTURE
       1 MOL1            1 RESIDUE      1      MOL     
@<SCITEGIC>MOL_PROPERTY
VConf Rank
SciTegic.value.IntegerValue
768

@<SCITEGIC>MOL_PROPERTY
Conf_Id
SciTegic.value.IntegerValue
19

@<SCITEGIC>MOL_PROPERTY
Delta U+W
SciTegic.value.DoubleValue
-0.496

@<SCITEGIC>MOL_PROPERTY
U+W
SciTegic.value.DoubleValue
-49.923

@<SCITEGIC>MOL_PROPERTY
Grad RMS
SciTegic.value.DoubleValue
0.000000

@<SCITEGIC>MOL_PROPERTY
U
SciTegic.value.DoubleValue
13.863

@<SCITEGIC>MOL_PROPERTY
W
SciTegic.value.DoubleValue
-63.786

@<SCITEGIC>MOL_PROPERTY
W(PB)
SciTegic.value.DoubleValue
-65.856

@<SCITEGIC>MOL_PROPERTY
W(SA)
SciTegic.value.DoubleValue
2.070

@<SCITEGIC>MOL_PROPERTY
Valence
SciTegic.value.DoubleValue
14.117

@<SCITEGIC>MOL_PROPERTY
Coulomb
SciTegic.value.DoubleValue
-1.228

@<SCITEGIC>MOL_PROPERTY
VdW
SciTegic.value.DoubleValue
0.974

@<SCITEGIC>MOL_PROPERTY
VdW6
SciTegic.value.DoubleValue
-4.885

@<SCITEGIC>MOL_PROPERTY
VdW12
SciTegic.value.DoubleValue
5.859

@<SCITEGIC>MOL_PROPERTY
Bond
SciTegic.value.DoubleValue
0.094

@<SCITEGIC>MOL_PROPERTY
Angle
SciTegic.value.DoubleValue
2.818

@<SCITEGIC>MOL_PROPERTY
Pdih
SciTegic.value.DoubleValue
11.205

@<SCITEGIC>MOL_PROPERTY
Idih
SciTegic.value.DoubleValue
0.000

@<SCITEGIC>MOL_PROPERTY
Tether
SciTegic.value.DoubleValue
0.000

@<TRIPOS>MOLECULE
guest-s20_confgen4.mol2 : confsearch ligand conformer 769
          17          16           1
SMALL
USER_CHARGES
 
@<TRIPOS>ATOM
       1    C1      21.239834   16.351524   22.509597 C.2        1 MOL1         0.6132
       2    O1      22.383728   16.566639   22.858945 O.co2      1 MOL1        -0.6749
       3    O2      20.515907   15.535278   23.045017 O.co2      1 MOL1        -0.6749
       4    C2      20.684569   17.138872   21.329940 C.3        1 MOL1        -0.1955
       5    H1      20.112020   16.444639   20.704070 H          1 MOL1         0.0733
       6    H2      21.528627   17.493660   20.726330 H          1 MOL1         0.0733
       7    C3      19.804111   18.294554   21.765779 C.2        1 MOL1        -0.1395
       8    H3      18.864110   18.010652   22.238023 H          1 MOL1         0.0816
       9    C4      20.123143   19.582852   21.608544 C.2        1 MOL1        -0.1394
      10    H4      21.065549   19.866151   21.140921 H          1 MOL1         0.0816
      11    C5      19.245067   20.733724   22.046507 C.3        1 MOL1        -0.1826
      12    H5      19.156026   21.463795   21.230670 H          1 MOL1         0.0736
      13    H6      18.228214   20.379742   22.265403 H          1 MOL1         0.0736
      14    C6      19.823442   21.426841   23.295532 C.3        1 MOL1        -0.2882
      15    H7      20.826256   21.825419   23.093234 H          1 MOL1         0.0749
      16    H8      19.182212   22.260790   23.609252 H          1 MOL1         0.0749
      17    H9      19.898762   20.720875   24.133159 H          1 MOL1         0.0749
@<TRIPOS>BOND
    1     1     2    1
    2     1     3    2
    3     1     4    1
    4     4     5    1
    5     4     6    1
    6     4     7    1
    7     7     8    1
    8     7     9    2
    9     9    10    1
   10     9    11    1
   11    11    12    1
   12    11    13    1
   13    11    14    1
   14    14    15    1
   15    14    16    1
   16    14    17    1
@<TRIPOS>SUBSTRUCTURE
       1 MOL1            1 RESIDUE      1      MOL     
@<SCITEGIC>MOL_PROPERTY
VConf Rank
SciTegic.value.IntegerValue
769

@<SCITEGIC>MOL_PROPERTY
Conf_Id
SciTegic.value.IntegerValue
7

@<SCITEGIC>MOL_PROPERTY
Delta U+W
SciTegic.value.DoubleValue
-0.041

@<SCITEGIC>MOL_PROPERTY
U+W
SciTegic.value.DoubleValue
-49.468

@<SCITEGIC>MOL_PROPERTY
Grad RMS
SciTegic.value.DoubleValue
0.000000

@<SCITEGIC>MOL_PROPERTY
U
SciTegic.value.DoubleValue
14.121

@<SCITEGIC>MOL_PROPERTY
W
SciTegic.value.DoubleValue
-63.589

@<SCITEGIC>MOL_PROPERTY
W(PB)
SciTegic.value.DoubleValue
-65.660

@<SCITEGIC>MOL_PROPERTY
W(SA)
SciTegic.value.DoubleValue
2.071

@<SCITEGIC>MOL_PROPERTY
Valence
SciTegic.value.DoubleValue
15.230

@<SCITEGIC>MOL_PROPERTY
Coulomb
SciTegic.value.DoubleValue
-1.333

@<SCITEGIC>MOL_PROPERTY
VdW
SciTegic.value.DoubleValue
0.224

@<SCITEGIC>MOL_PROPERTY
VdW6
SciTegic.value.DoubleValue
-4.212

@<SCITEGIC>MOL_PROPERTY
VdW12
SciTegic.value.DoubleValue
4.436

@<SCITEGIC>MOL_PROPERTY
Bond
SciTegic.value.DoubleValue
0.044

@<SCITEGIC>MOL_PROPERTY
Angle
SciTegic.value.DoubleValue
2.230

@<SCITEGIC>MOL_PROPERTY
Pdih
SciTegic.value.DoubleValue
12.956

@<SCITEGIC>MOL_PROPERTY
Idih
SciTegic.value.DoubleValue
0.000

@<SCITEGIC>MOL_PROPERTY
Tether
SciTegic.value.DoubleValue
0.000

@<TRIPOS>MOLECULE
guest-s20_confgen4.mol2 : confsearch ligand conformer 770
          17          16           1
SMALL
USER_CHARGES
 
@<TRIPOS>ATOM
       1    C1      17.758296   18.811938   20.928211 C.2        1 MOL1         0.6132
       2    O1      16.950216   19.036644   21.807704 O.co2      1 MOL1        -0.6749
       3    O2      17.785491   17.778167   20.289729 O.co2      1 MOL1        -0.6749
       4    C2      18.775688   19.896816   20.588313 C.3        1 MOL1        -0.1955
       5    H1      18.302603   20.869435   20.767117 H          1 MOL1         0.0733
       6    H2      18.969412   19.849509   19.510374 H          1 MOL1         0.0733
       7    C3      20.093073   19.823170   21.347228 C.2        1 MOL1        -0.1395
       8    H3      20.804683   20.606545   21.089392 H          1 MOL1         0.0816
       9    C4      20.421100   18.907841   22.266775 C.2        1 MOL1        -0.1394
      10    H4      19.727650   18.114605   22.543611 H          1 MOL1         0.0816
      11    C5      21.747796   18.878268   22.992684 C.3        1 MOL1        -0.1826
      12    H5      22.160846   17.860767   22.968202 H          1 MOL1         0.0736
      13    H6      22.477390   19.526691   22.488308 H          1 MOL1         0.0736
      14    C6      21.588102   19.332710   24.456589 C.3        1 MOL1        -0.2882
      15    H7      22.553385   19.307964   24.978773 H          1 MOL1         0.0749
      16    H8      21.199904   20.358600   24.506066 H          1 MOL1         0.0749
      17    H9      20.891773   18.677402   24.996178 H          1 MOL1         0.0749
@<TRIPOS>BOND
    1     1     2    1
    2     1     3    2
    3     1     4    1
    4     4     5    1
    5     4     6    1
    6     4     7    1
    7     7     8    1
    8     7     9    2
    9     9    10    1
   10     9    11    1
   11    11    12    1
   12    11    13    1
   13    11    14    1
   14    14    15    1
   15    14    16    1
   16    14    17    1
@<TRIPOS>SUBSTRUCTURE
       1 MOL1            1 RESIDUE      1      MOL     
@<SCITEGIC>MOL_PROPERTY
VConf Rank
SciTegic.value.IntegerValue
770

@<SCITEGIC>MOL_PROPERTY
Conf_Id
SciTegic.value.IntegerValue
39

@<SCITEGIC>MOL_PROPERTY
Delta U+W
SciTegic.value.DoubleValue
-0.422

@<SCITEGIC>MOL_PROPERTY
U+W
SciTegic.value.DoubleValue
-49.849

@<SCITEGIC>MOL_PROPERTY
Grad RMS
SciTegic.value.DoubleValue
0.000000

@<SCITEGIC>MOL_PROPERTY
U
SciTegic.value.DoubleValue
14.465

@<SCITEGIC>MOL_PROPERTY
W
SciTegic.value.DoubleValue
-64.314

@<SCITEGIC>MOL_PROPERTY
W(PB)
SciTegic.value.DoubleValue
-66.406

@<SCITEGIC>MOL_PROPERTY
W(SA)
SciTegic.value.DoubleValue
2.093

@<SCITEGIC>MOL_PROPERTY
Valence
SciTegic.value.DoubleValue
14.072

@<SCITEGIC>MOL_PROPERTY
Coulomb
SciTegic.value.DoubleValue
-0.199

@<SCITEGIC>MOL_PROPERTY
VdW
SciTegic.value.DoubleValue
0.592

@<SCITEGIC>MOL_PROPERTY
VdW6
SciTegic.value.DoubleValue
-5.019

@<SCITEGIC>MOL_PROPERTY
VdW12
SciTegic.value.DoubleValue
5.611

@<SCITEGIC>MOL_PROPERTY
Bond
SciTegic.value.DoubleValue
0.085

@<SCITEGIC>MOL_PROPERTY
Angle
SciTegic.value.DoubleValue
2.748

@<SCITEGIC>MOL_PROPERTY
Pdih
SciTegic.value.DoubleValue
11.238

@<SCITEGIC>MOL_PROPERTY
Idih
SciTegic.value.DoubleValue
0.001

@<SCITEGIC>MOL_PROPERTY
Tether
SciTegic.value.DoubleValue
0.000

@<TRIPOS>MOLECULE
guest-s20_confgen4.mol2 : confsearch ligand conformer 771
          17          16           1
SMALL
USER_CHARGES
 
@<TRIPOS>ATOM
       1    C1      19.363170   22.348795   22.042536 C.2        1 MOL1         0.6132
       2    O1      20.260708   23.119577   21.764542 O.co2      1 MOL1        -0.6749
       3    O2      18.525347   22.572014   22.894032 O.co2      1 MOL1        -0.6749
       4    C2      19.282684   21.034523   21.277150 C.3        1 MOL1        -0.1955
       5    H1      19.504525   21.245712   20.224679 H          1 MOL1         0.0733
       6    H2      18.247617   20.674851   21.320869 H          1 MOL1         0.0733
       7    C3      20.244053   19.990644   21.812717 C.2        1 MOL1        -0.1395
       8    H3      21.300360   20.207744   21.656878 H          1 MOL1         0.0816
       9    C4      19.865794   18.872272   22.439127 C.2        1 MOL1        -0.1394
      10    H4      18.809469   18.657251   22.597260 H          1 MOL1         0.0816
      11    C5      20.825966   17.834327   22.975840 C.3        1 MOL1        -0.1826
      12    H5      21.847575   18.237232   23.010530 H          1 MOL1         0.0736
      13    H6      20.553730   17.576193   24.008210 H          1 MOL1         0.0736
      14    C6      20.808784   16.561903   22.106529 C.3        1 MOL1        -0.2882
      15    H7      21.103132   16.791231   21.073877 H          1 MOL1         0.0749
      16    H8      21.506889   15.812277   22.501240 H          1 MOL1         0.0749
      17    H9      19.805911   16.115561   22.085227 H          1 MOL1         0.0749
@<TRIPOS>BOND
    1     1     2    1
    2     1     3    2
    3     1     4    1
    4     4     5    1
    5     4     6    1
    6     4     7    1
    7     7     8    1
    8     7     9    2
    9     9    10    1
   10     9    11    1
   11    11    12    1
   12    11    13    1
   13    11    14    1
   14    14    15    1
   15    14    16    1
   16    14    17    1
@<TRIPOS>SUBSTRUCTURE
       1 MOL1            1 RESIDUE      1      MOL     
@<SCITEGIC>MOL_PROPERTY
VConf Rank
SciTegic.value.IntegerValue
771

@<SCITEGIC>MOL_PROPERTY
Conf_Id
SciTegic.value.IntegerValue
38

@<SCITEGIC>MOL_PROPERTY
Delta U+W
SciTegic.value.DoubleValue
0.000

@<SCITEGIC>MOL_PROPERTY
U+W
SciTegic.value.DoubleValue
-49.427

@<SCITEGIC>MOL_PROPERTY
Grad RMS
SciTegic.value.DoubleValue
0.000000

@<SCITEGIC>MOL_PROPERTY
U
SciTegic.value.DoubleValue
13.666

@<SCITEGIC>MOL_PROPERTY
W
SciTegic.value.DoubleValue
-63.093

@<SCITEGIC>MOL_PROPERTY
W(PB)
SciTegic.value.DoubleValue
-65.225

@<SCITEGIC>MOL_PROPERTY
W(SA)
SciTegic.value.DoubleValue
2.132

@<SCITEGIC>MOL_PROPERTY
Valence
SciTegic.value.DoubleValue
15.226

@<SCITEGIC>MOL_PROPERTY
Coulomb
SciTegic.value.DoubleValue
-1.822

@<SCITEGIC>MOL_PROPERTY
VdW
SciTegic.value.DoubleValue
0.261

@<SCITEGIC>MOL_PROPERTY
VdW6
SciTegic.value.DoubleValue
-4.165

@<SCITEGIC>MOL_PROPERTY
VdW12
SciTegic.value.DoubleValue
4.426

@<SCITEGIC>MOL_PROPERTY
Bond
SciTegic.value.DoubleValue
0.044

@<SCITEGIC>MOL_PROPERTY
Angle
SciTegic.value.DoubleValue
2.229

@<SCITEGIC>MOL_PROPERTY
Pdih
SciTegic.value.DoubleValue
12.953

@<SCITEGIC>MOL_PROPERTY
Idih
SciTegic.value.DoubleValue
0.000

@<SCITEGIC>MOL_PROPERTY
Tether
SciTegic.value.DoubleValue
0.000

@<TRIPOS>MOLECULE
guest-s20_confgen4.mol2 : confsearch ligand conformer 772
          17          16           1
SMALL
USER_CHARGES
 
@<TRIPOS>ATOM
       1    C1      17.284993   20.367820   23.085293 C.2        1 MOL1         0.6132
       2    O1      17.014675   21.376731   22.464129 O.co2      1 MOL1        -0.6749
       3    O2      17.022313   20.212261   24.261626 O.co2      1 MOL1        -0.6749
       4    C2      17.986275   19.233197   22.350147 C.3        1 MOL1        -0.1955
       5    H1      17.771182   19.333407   21.279477 H          1 MOL1         0.0733
       6    H2      17.535229   18.290508   22.680908 H          1 MOL1         0.0733
       7    C3      19.481443   19.212678   22.604700 C.2        1 MOL1        -0.1395
       8    H3      19.776542   18.957045   23.621936 H          1 MOL1         0.0816
       9    C4      20.404970   19.484814   21.677733 C.2        1 MOL1        -0.1394
      10    H4      20.109086   19.743469   20.661558 H          1 MOL1         0.0816
      11    C5      21.895324   19.467733   21.934389 C.3        1 MOL1        -0.1826
      12    H5      22.350387   20.385219   21.537311 H          1 MOL1         0.0736
      13    H6      22.099360   19.456295   23.013953 H          1 MOL1         0.0736
      14    C6      22.556441   18.240421   21.277358 C.3        1 MOL1        -0.2882
      15    H7      22.400687   18.246456   20.190559 H          1 MOL1         0.0749
      16    H8      23.637783   18.233866   21.466413 H          1 MOL1         0.0749
      17    H9      22.134833   17.309186   21.678168 H          1 MOL1         0.0749
@<TRIPOS>BOND
    1     1     2    1
    2     1     3    2
    3     1     4    1
    4     4     5    1
    5     4     6    1
    6     4     7    1
    7     7     8    1
    8     7     9    2
    9     9    10    1
   10     9    11    1
   11    11    12    1
   12    11    13    1
   13    11    14    1
   14    14    15    1
   15    14    16    1
   16    14    17    1
@<TRIPOS>SUBSTRUCTURE
       1 MOL1            1 RESIDUE      1      MOL     
@<SCITEGIC>MOL_PROPERTY
VConf Rank
SciTegic.value.IntegerValue
772

@<SCITEGIC>MOL_PROPERTY
Conf_Id
SciTegic.value.IntegerValue
35

@<SCITEGIC>MOL_PROPERTY
Delta U+W
SciTegic.value.DoubleValue
-0.102

@<SCITEGIC>MOL_PROPERTY
U+W
SciTegic.value.DoubleValue
-49.529

@<SCITEGIC>MOL_PROPERTY
Grad RMS
SciTegic.value.DoubleValue
0.000000

@<SCITEGIC>MOL_PROPERTY
U
SciTegic.value.DoubleValue
13.666

@<SCITEGIC>MOL_PROPERTY
W
SciTegic.value.DoubleValue
-63.195

@<SCITEGIC>MOL_PROPERTY
W(PB)
SciTegic.value.DoubleValue
-65.299

@<SCITEGIC>MOL_PROPERTY
W(SA)
SciTegic.value.DoubleValue
2.103

@<SCITEGIC>MOL_PROPERTY
Valence
SciTegic.value.DoubleValue
15.226

@<SCITEGIC>MOL_PROPERTY
Coulomb
SciTegic.value.DoubleValue
-1.822

@<SCITEGIC>MOL_PROPERTY
VdW
SciTegic.value.DoubleValue
0.261

@<SCITEGIC>MOL_PROPERTY
VdW6
SciTegic.value.DoubleValue
-4.165

@<SCITEGIC>MOL_PROPERTY
VdW12
SciTegic.value.DoubleValue
4.426

@<SCITEGIC>MOL_PROPERTY
Bond
SciTegic.value.DoubleValue
0.044

@<SCITEGIC>MOL_PROPERTY
Angle
SciTegic.value.DoubleValue
2.229

@<SCITEGIC>MOL_PROPERTY
Pdih
SciTegic.value.DoubleValue
12.953

@<SCITEGIC>MOL_PROPERTY
Idih
SciTegic.value.DoubleValue
0.000

@<SCITEGIC>MOL_PROPERTY
Tether
SciTegic.value.DoubleValue
0.000

@<TRIPOS>MOLECULE
guest-s20_confgen4.mol2 : confsearch ligand conformer 773
          17          16           1
SMALL
USER_CHARGES
 
@<TRIPOS>ATOM
       1    C1      21.724568   19.937155   24.600948 C.2        1 MOL1         0.6132
       2    O1      22.014239   21.114394   24.516268 O.co2      1 MOL1        -0.6749
       3    O2      21.273594   19.426805   25.607434 O.co2      1 MOL1        -0.6749
       4    C2      21.948572   19.053111   23.381119 C.3        1 MOL1        -0.1955
       5    H1      22.059839   18.017423   23.723980 H          1 MOL1         0.0733
       6    H2      22.902783   19.344560   22.927192 H          1 MOL1         0.0733
       7    C3      20.829829   19.173557   22.363616 C.2        1 MOL1        -0.1395
       8    H3      20.769017   20.140722   21.867649 H          1 MOL1         0.0816
       9    C4      19.967616   18.188902   22.081206 C.2        1 MOL1        -0.1394
      10    H4      20.056908   17.235697   22.601313 H          1 MOL1         0.0816
      11    C5      18.825637   18.241838   21.080370 C.3        1 MOL1        -0.1826
      12    H5      18.958459   17.437091   20.344676 H          1 MOL1         0.0736
      13    H6      17.885298   18.013990   21.600341 H          1 MOL1         0.0736
      14    C6      18.674381   19.585788   20.334080 C.3        1 MOL1        -0.2882
      15    H7      19.578788   19.820263   19.757477 H          1 MOL1         0.0749
      16    H8      17.830515   19.543977   19.633243 H          1 MOL1         0.0749
      17    H9      18.486822   20.407848   21.037306 H          1 MOL1         0.0749
@<TRIPOS>BOND
    1     1     2    1
    2     1     3    2
    3     1     4    1
    4     4     5    1
    5     4     6    1
    6     4     7    1
    7     7     8    1
    8     7     9    2
    9     9    10    1
   10     9    11    1
   11    11    12    1
   12    11    13    1
   13    11    14    1
   14    14    15    1
   15    14    16    1
   16    14    17    1
@<TRIPOS>SUBSTRUCTURE
       1 MOL1            1 RESIDUE      1      MOL     
@<SCITEGIC>MOL_PROPERTY
VConf Rank
SciTegic.value.IntegerValue
773

@<SCITEGIC>MOL_PROPERTY
Conf_Id
SciTegic.value.IntegerValue
19

@<SCITEGIC>MOL_PROPERTY
Delta U+W
SciTegic.value.DoubleValue
-0.496

@<SCITEGIC>MOL_PROPERTY
U+W
SciTegic.value.DoubleValue
-49.923

@<SCITEGIC>MOL_PROPERTY
Grad RMS
SciTegic.value.DoubleValue
0.000000

@<SCITEGIC>MOL_PROPERTY
U
SciTegic.value.DoubleValue
13.863

@<SCITEGIC>MOL_PROPERTY
W
SciTegic.value.DoubleValue
-63.786

@<SCITEGIC>MOL_PROPERTY
W(PB)
SciTegic.value.DoubleValue
-65.856

@<SCITEGIC>MOL_PROPERTY
W(SA)
SciTegic.value.DoubleValue
2.070

@<SCITEGIC>MOL_PROPERTY
Valence
SciTegic.value.DoubleValue
14.117

@<SCITEGIC>MOL_PROPERTY
Coulomb
SciTegic.value.DoubleValue
-1.228

@<SCITEGIC>MOL_PROPERTY
VdW
SciTegic.value.DoubleValue
0.974

@<SCITEGIC>MOL_PROPERTY
VdW6
SciTegic.value.DoubleValue
-4.885

@<SCITEGIC>MOL_PROPERTY
VdW12
SciTegic.value.DoubleValue
5.859

@<SCITEGIC>MOL_PROPERTY
Bond
SciTegic.value.DoubleValue
0.094

@<SCITEGIC>MOL_PROPERTY
Angle
SciTegic.value.DoubleValue
2.818

@<SCITEGIC>MOL_PROPERTY
Pdih
SciTegic.value.DoubleValue
11.205

@<SCITEGIC>MOL_PROPERTY
Idih
SciTegic.value.DoubleValue
0.000

@<SCITEGIC>MOL_PROPERTY
Tether
SciTegic.value.DoubleValue
0.000

@<TRIPOS>MOLECULE
guest-s20_confgen4.mol2 : confsearch ligand conformer 774
          17          16           1
SMALL
USER_CHARGES
 
@<TRIPOS>ATOM
       1    C1      22.566411   17.398880   22.002551 C.2        1 MOL1         0.6132
       2    O1      23.302990   18.093313   21.330222 O.co2      1 MOL1        -0.6749
       3    O2      22.920274   16.828406   23.015636 O.co2      1 MOL1        -0.6749
       4    C2      21.123660   17.223810   21.546867 C.3        1 MOL1        -0.1955
       5    H1      20.854530   16.170302   21.685336 H          1 MOL1         0.0733
       6    H2      21.076510   17.428302   20.470478 H          1 MOL1         0.0733
       7    C3      20.161103   18.112217   22.311710 C.2        1 MOL1        -0.1395
       8    H3      20.037518   17.864920   23.365648 H          1 MOL1         0.0816
       9    C4      19.497720   19.139806   21.773008 C.2        1 MOL1        -0.1394
      10    H4      19.625620   19.389818   20.720300 H          1 MOL1         0.0816
      11    C5      18.540585   20.026253   22.538149 C.3        1 MOL1        -0.1826
      12    H5      17.605969   20.138647   21.972126 H          1 MOL1         0.0736
      13    H6      18.273915   19.564812   23.498965 H          1 MOL1         0.0736
      14    C6      19.156969   21.415449   22.793490 C.3        1 MOL1        -0.2882
      15    H7      19.398082   21.916922   21.847016 H          1 MOL1         0.0749
      16    H8      18.458492   22.054375   23.349342 H          1 MOL1         0.0749
      17    H9      20.081228   21.329777   23.380078 H          1 MOL1         0.0749
@<TRIPOS>BOND
    1     1     2    1
    2     1     3    2
    3     1     4    1
    4     4     5    1
    5     4     6    1
    6     4     7    1
    7     7     8    1
    8     7     9    2
    9     9    10    1
   10     9    11    1
   11    11    12    1
   12    11    13    1
   13    11    14    1
   14    14    15    1
   15    14    16    1
   16    14    17    1
@<TRIPOS>SUBSTRUCTURE
       1 MOL1            1 RESIDUE      1      MOL     
@<SCITEGIC>MOL_PROPERTY
VConf Rank
SciTegic.value.IntegerValue
774

@<SCITEGIC>MOL_PROPERTY
Conf_Id
SciTegic.value.IntegerValue
7

@<SCITEGIC>MOL_PROPERTY
Delta U+W
SciTegic.value.DoubleValue
-0.041

@<SCITEGIC>MOL_PROPERTY
U+W
SciTegic.value.DoubleValue
-49.468

@<SCITEGIC>MOL_PROPERTY
Grad RMS
SciTegic.value.DoubleValue
0.000000

@<SCITEGIC>MOL_PROPERTY
U
SciTegic.value.DoubleValue
14.121

@<SCITEGIC>MOL_PROPERTY
W
SciTegic.value.DoubleValue
-63.589

@<SCITEGIC>MOL_PROPERTY
W(PB)
SciTegic.value.DoubleValue
-65.660

@<SCITEGIC>MOL_PROPERTY
W(SA)
SciTegic.value.DoubleValue
2.071

@<SCITEGIC>MOL_PROPERTY
Valence
SciTegic.value.DoubleValue
15.230

@<SCITEGIC>MOL_PROPERTY
Coulomb
SciTegic.value.DoubleValue
-1.333

@<SCITEGIC>MOL_PROPERTY
VdW
SciTegic.value.DoubleValue
0.224

@<SCITEGIC>MOL_PROPERTY
VdW6
SciTegic.value.DoubleValue
-4.212

@<SCITEGIC>MOL_PROPERTY
VdW12
SciTegic.value.DoubleValue
4.436

@<SCITEGIC>MOL_PROPERTY
Bond
SciTegic.value.DoubleValue
0.044

@<SCITEGIC>MOL_PROPERTY
Angle
SciTegic.value.DoubleValue
2.230

@<SCITEGIC>MOL_PROPERTY
Pdih
SciTegic.value.DoubleValue
12.956

@<SCITEGIC>MOL_PROPERTY
Idih
SciTegic.value.DoubleValue
0.000

@<SCITEGIC>MOL_PROPERTY
Tether
SciTegic.value.DoubleValue
0.000

@<TRIPOS>MOLECULE
guest-s20_confgen4.mol2 : confsearch ligand conformer 775
          17          16           1
SMALL
USER_CHARGES
 
@<TRIPOS>ATOM
       1    C1      20.852269   21.326312   23.965568 C.2        1 MOL1         0.6132
       2    O1      20.752182   22.284431   23.224635 O.co2      1 MOL1        -0.6749
       3    O2      21.858671   21.067327   24.595778 O.co2      1 MOL1        -0.6749
       4    C2      19.640315   20.415298   24.135267 C.3        1 MOL1        -0.1955
       5    H1      18.739417   21.030974   24.029939 H          1 MOL1         0.0733
       6    H2      19.636795   20.050343   25.168957 H          1 MOL1         0.0733
       7    C3      19.566321   19.234892   23.177120 C.2        1 MOL1        -0.1395
       8    H3      18.693778   18.597673   23.315557 H          1 MOL1         0.0816
       9    C4      20.455222   18.940993   22.220838 C.2        1 MOL1        -0.1394
      10    H4      21.335725   19.562149   22.060798 H          1 MOL1         0.0816
      11    C5      20.335548   17.751921   21.293623 C.3        1 MOL1        -0.1826
      12    H5      21.292237   17.213523   21.256300 H          1 MOL1         0.0736
      13    H6      19.588619   17.041144   21.673157 H          1 MOL1         0.0736
      14    C6      19.940352   18.196172   19.871829 C.3        1 MOL1        -0.2882
      15    H7      19.856338   17.329672   19.203116 H          1 MOL1         0.0749
      16    H8      18.972829   18.715227   19.880496 H          1 MOL1         0.0749
      17    H9      20.690787   18.879019   19.452275 H          1 MOL1         0.0749
@<TRIPOS>BOND
    1     1     2    1
    2     1     3    2
    3     1     4    1
    4     4     5    1
    5     4     6    1
    6     4     7    1
    7     7     8    1
    8     7     9    2
    9     9    10    1
   10     9    11    1
   11    11    12    1
   12    11    13    1
   13    11    14    1
   14    14    15    1
   15    14    16    1
   16    14    17    1
@<TRIPOS>SUBSTRUCTURE
       1 MOL1            1 RESIDUE      1      MOL     
@<SCITEGIC>MOL_PROPERTY
VConf Rank
SciTegic.value.IntegerValue
775

@<SCITEGIC>MOL_PROPERTY
Conf_Id
SciTegic.value.IntegerValue
39

@<SCITEGIC>MOL_PROPERTY
Delta U+W
SciTegic.value.DoubleValue
-0.422

@<SCITEGIC>MOL_PROPERTY
U+W
SciTegic.value.DoubleValue
-49.849

@<SCITEGIC>MOL_PROPERTY
Grad RMS
SciTegic.value.DoubleValue
0.000000

@<SCITEGIC>MOL_PROPERTY
U
SciTegic.value.DoubleValue
14.465

@<SCITEGIC>MOL_PROPERTY
W
SciTegic.value.DoubleValue
-64.314

@<SCITEGIC>MOL_PROPERTY
W(PB)
SciTegic.value.DoubleValue
-66.406

@<SCITEGIC>MOL_PROPERTY
W(SA)
SciTegic.value.DoubleValue
2.093

@<SCITEGIC>MOL_PROPERTY
Valence
SciTegic.value.DoubleValue
14.072

@<SCITEGIC>MOL_PROPERTY
Coulomb
SciTegic.value.DoubleValue
-0.199

@<SCITEGIC>MOL_PROPERTY
VdW
SciTegic.value.DoubleValue
0.592

@<SCITEGIC>MOL_PROPERTY
VdW6
SciTegic.value.DoubleValue
-5.019

@<SCITEGIC>MOL_PROPERTY
VdW12
SciTegic.value.DoubleValue
5.611

@<SCITEGIC>MOL_PROPERTY
Bond
SciTegic.value.DoubleValue
0.085

@<SCITEGIC>MOL_PROPERTY
Angle
SciTegic.value.DoubleValue
2.748

@<SCITEGIC>MOL_PROPERTY
Pdih
SciTegic.value.DoubleValue
11.238

@<SCITEGIC>MOL_PROPERTY
Idih
SciTegic.value.DoubleValue
0.001

@<SCITEGIC>MOL_PROPERTY
Tether
SciTegic.value.DoubleValue
0.000

@<TRIPOS>MOLECULE
guest-s20_confgen4.mol2 : confsearch ligand conformer 776
          17          16           1
SMALL
USER_CHARGES
 
@<TRIPOS>ATOM
       1    C1      22.464219   17.160838   22.023783 C.2        1 MOL1         0.6132
       2    O1      22.910066   16.803174   23.096283 O.co2      1 MOL1        -0.6749
       3    O2      23.154224   17.372327   21.046039 O.co2      1 MOL1        -0.6749
       4    C2      20.957946   17.348390   21.898996 C.3        1 MOL1        -0.1955
       5    H1      20.472313   16.525957   22.436837 H          1 MOL1         0.0733
       6    H2      20.685768   17.245165   20.841686 H          1 MOL1         0.0733
       7    C3      20.490634   18.680803   22.453106 C.2        1 MOL1        -0.1395
       8    H3      20.581829   18.793097   23.533048 H          1 MOL1         0.0816
       9    C4      19.998428   19.673836   21.706215 C.2        1 MOL1        -0.1394
      10    H4      19.910286   19.561992   20.626038 H          1 MOL1         0.0816
      11    C5      19.536452   21.003183   22.260052 C.3        1 MOL1        -0.1826
      12    H5      19.891018   21.133886   23.291759 H          1 MOL1         0.0736
      13    H6      19.971966   21.821662   21.671023 H          1 MOL1         0.0736
      14    C6      17.999373   21.111033   22.231480 C.3        1 MOL1        -0.2882
      15    H7      17.541518   20.316788   22.835752 H          1 MOL1         0.0749
      16    H8      17.670214   22.077877   22.633914 H          1 MOL1         0.0749
      17    H9      17.619460   21.022101   21.205231 H          1 MOL1         0.0749
@<TRIPOS>BOND
    1     1     2    1
    2     1     3    2
    3     1     4    1
    4     4     5    1
    5     4     6    1
    6     4     7    1
    7     7     8    1
    8     7     9    2
    9     9    10    1
   10     9    11    1
   11    11    12    1
   12    11    13    1
   13    11    14    1
   14    14    15    1
   15    14    16    1
   16    14    17    1
@<TRIPOS>SUBSTRUCTURE
       1 MOL1            1 RESIDUE      1      MOL     
@<SCITEGIC>MOL_PROPERTY
VConf Rank
SciTegic.value.IntegerValue
776

@<SCITEGIC>MOL_PROPERTY
Conf_Id
SciTegic.value.IntegerValue
38

@<SCITEGIC>MOL_PROPERTY
Delta U+W
SciTegic.value.DoubleValue
0.000

@<SCITEGIC>MOL_PROPERTY
U+W
SciTegic.value.DoubleValue
-49.427

@<SCITEGIC>MOL_PROPERTY
Grad RMS
SciTegic.value.DoubleValue
0.000000

@<SCITEGIC>MOL_PROPERTY
U
SciTegic.value.DoubleValue
13.666

@<SCITEGIC>MOL_PROPERTY
W
SciTegic.value.DoubleValue
-63.093

@<SCITEGIC>MOL_PROPERTY
W(PB)
SciTegic.value.DoubleValue
-65.225

@<SCITEGIC>MOL_PROPERTY
W(SA)
SciTegic.value.DoubleValue
2.132

@<SCITEGIC>MOL_PROPERTY
Valence
SciTegic.value.DoubleValue
15.226

@<SCITEGIC>MOL_PROPERTY
Coulomb
SciTegic.value.DoubleValue
-1.822

@<SCITEGIC>MOL_PROPERTY
VdW
SciTegic.value.DoubleValue
0.261

@<SCITEGIC>MOL_PROPERTY
VdW6
SciTegic.value.DoubleValue
-4.165

@<SCITEGIC>MOL_PROPERTY
VdW12
SciTegic.value.DoubleValue
4.426

@<SCITEGIC>MOL_PROPERTY
Bond
SciTegic.value.DoubleValue
0.044

@<SCITEGIC>MOL_PROPERTY
Angle
SciTegic.value.DoubleValue
2.229

@<SCITEGIC>MOL_PROPERTY
Pdih
SciTegic.value.DoubleValue
12.953

@<SCITEGIC>MOL_PROPERTY
Idih
SciTegic.value.DoubleValue
0.000

@<SCITEGIC>MOL_PROPERTY
Tether
SciTegic.value.DoubleValue
0.000

@<TRIPOS>MOLECULE
guest-s20_confgen4.mol2 : confsearch ligand conformer 777
          17          16           1
SMALL
USER_CHARGES
 
@<TRIPOS>ATOM
       1    C1      20.402611   20.800282   24.855963 C.2        1 MOL1         0.6132
       2    O1      20.392349   21.997475   24.647537 O.co2      1 MOL1        -0.6749
       3    O2      21.104137   20.270233   25.694933 O.co2      1 MOL1        -0.6749
       4    C2      19.483060   19.914711   24.025426 C.3        1 MOL1        -0.1955
       5    H1      18.655677   20.531584   23.654555 H          1 MOL1         0.0733
       6    H2      19.047887   19.163224   24.694305 H          1 MOL1         0.0733
       7    C3      20.209733   19.234693   22.880757 C.2        1 MOL1        -0.1395
       8    H3      20.940768   18.482417   23.175494 H          1 MOL1         0.0816
       9    C4      20.001250   19.509893   21.589622 C.2        1 MOL1        -0.1394
      10    H4      19.272386   20.264505   21.295719 H          1 MOL1         0.0816
      11    C5      20.729633   18.833609   20.449702 C.3        1 MOL1        -0.1826
      12    H5      21.102622   19.590924   19.746932 H          1 MOL1         0.0736
      13    H6      21.608479   18.290386   20.823544 H          1 MOL1         0.0736
      14    C6      19.803053   17.853251   19.704444 C.3        1 MOL1        -0.2882
      15    H7      18.933462   18.377157   19.286398 H          1 MOL1         0.0749
      16    H8      20.336879   17.366185   18.878076 H          1 MOL1         0.0749
      17    H9      19.437539   17.070576   20.382249 H          1 MOL1         0.0749
@<TRIPOS>BOND
    1     1     2    1
    2     1     3    2
    3     1     4    1
    4     4     5    1
    5     4     6    1
    6     4     7    1
    7     7     8    1
    8     7     9    2
    9     9    10    1
   10     9    11    1
   11    11    12    1
   12    11    13    1
   13    11    14    1
   14    14    15    1
   15    14    16    1
   16    14    17    1
@<TRIPOS>SUBSTRUCTURE
       1 MOL1            1 RESIDUE      1      MOL     
@<SCITEGIC>MOL_PROPERTY
VConf Rank
SciTegic.value.IntegerValue
777

@<SCITEGIC>MOL_PROPERTY
Conf_Id
SciTegic.value.IntegerValue
35

@<SCITEGIC>MOL_PROPERTY
Delta U+W
SciTegic.value.DoubleValue
-0.102

@<SCITEGIC>MOL_PROPERTY
U+W
SciTegic.value.DoubleValue
-49.529

@<SCITEGIC>MOL_PROPERTY
Grad RMS
SciTegic.value.DoubleValue
0.000000

@<SCITEGIC>MOL_PROPERTY
U
SciTegic.value.DoubleValue
13.666

@<SCITEGIC>MOL_PROPERTY
W
SciTegic.value.DoubleValue
-63.195

@<SCITEGIC>MOL_PROPERTY
W(PB)
SciTegic.value.DoubleValue
-65.299

@<SCITEGIC>MOL_PROPERTY
W(SA)
SciTegic.value.DoubleValue
2.103

@<SCITEGIC>MOL_PROPERTY
Valence
SciTegic.value.DoubleValue
15.226

@<SCITEGIC>MOL_PROPERTY
Coulomb
SciTegic.value.DoubleValue
-1.822

@<SCITEGIC>MOL_PROPERTY
VdW
SciTegic.value.DoubleValue
0.261

@<SCITEGIC>MOL_PROPERTY
VdW6
SciTegic.value.DoubleValue
-4.165

@<SCITEGIC>MOL_PROPERTY
VdW12
SciTegic.value.DoubleValue
4.426

@<SCITEGIC>MOL_PROPERTY
Bond
SciTegic.value.DoubleValue
0.044

@<SCITEGIC>MOL_PROPERTY
Angle
SciTegic.value.DoubleValue
2.229

@<SCITEGIC>MOL_PROPERTY
Pdih
SciTegic.value.DoubleValue
12.953

@<SCITEGIC>MOL_PROPERTY
Idih
SciTegic.value.DoubleValue
0.000

@<SCITEGIC>MOL_PROPERTY
Tether
SciTegic.value.DoubleValue
0.000

@<TRIPOS>MOLECULE
guest-s20_confgen4.mol2 : confsearch ligand conformer 778
          17          16           1
SMALL
USER_CHARGES
 
@<TRIPOS>ATOM
       1    C1      18.481213   17.027415   23.378828 C.2        1 MOL1         0.6132
       2    O1      17.355969   17.131343   22.931618 O.co2      1 MOL1        -0.6749
       3    O2      19.065313   15.967439   23.488957 O.co2      1 MOL1        -0.6749
       4    C2      19.192692   18.294726   23.834255 C.3        1 MOL1        -0.1955
       5    H1      19.954459   18.014225   24.571557 H          1 MOL1         0.0733
       6    H2      18.459289   18.921917   24.354122 H          1 MOL1         0.0733
       7    C3      19.808022   19.061970   22.679217 C.2        1 MOL1        -0.1395
       8    H3      19.088077   19.504688   21.993091 H          1 MOL1         0.0816
       9    C4      21.126639   19.196132   22.489586 C.2        1 MOL1        -0.1394
      10    H4      21.817033   18.735068   23.195179 H          1 MOL1         0.0816
      11    C5      21.809157   19.944519   21.357033 C.3        1 MOL1        -0.1826
      12    H5      22.463499   20.716988   21.783218 H          1 MOL1         0.0736
      13    H6      22.476536   19.253446   20.824544 H          1 MOL1         0.0736
      14    C6      20.851064   20.602187   20.339409 C.3        1 MOL1        -0.2882
      15    H7      20.203283   21.341264   20.828845 H          1 MOL1         0.0749
      16    H8      21.418738   21.119850   19.555318 H          1 MOL1         0.0749
      17    H9      20.215883   19.849942   19.853443 H          1 MOL1         0.0749
@<TRIPOS>BOND
    1     1     2    1
    2     1     3    2
    3     1     4    1
    4     4     5    1
    5     4     6    1
    6     4     7    1
    7     7     8    1
    8     7     9    2
    9     9    10    1
   10     9    11    1
   11    11    12    1
   12    11    13    1
   13    11    14    1
   14    14    15    1
   15    14    16    1
   16    14    17    1
@<TRIPOS>SUBSTRUCTURE
       1 MOL1            1 RESIDUE      1      MOL     
@<SCITEGIC>MOL_PROPERTY
VConf Rank
SciTegic.value.IntegerValue
778

@<SCITEGIC>MOL_PROPERTY
Conf_Id
SciTegic.value.IntegerValue
19

@<SCITEGIC>MOL_PROPERTY
Delta U+W
SciTegic.value.DoubleValue
-0.496

@<SCITEGIC>MOL_PROPERTY
U+W
SciTegic.value.DoubleValue
-49.923

@<SCITEGIC>MOL_PROPERTY
Grad RMS
SciTegic.value.DoubleValue
0.000000

@<SCITEGIC>MOL_PROPERTY
U
SciTegic.value.DoubleValue
13.863

@<SCITEGIC>MOL_PROPERTY
W
SciTegic.value.DoubleValue
-63.786

@<SCITEGIC>MOL_PROPERTY
W(PB)
SciTegic.value.DoubleValue
-65.856

@<SCITEGIC>MOL_PROPERTY
W(SA)
SciTegic.value.DoubleValue
2.070

@<SCITEGIC>MOL_PROPERTY
Valence
SciTegic.value.DoubleValue
14.117

@<SCITEGIC>MOL_PROPERTY
Coulomb
SciTegic.value.DoubleValue
-1.228

@<SCITEGIC>MOL_PROPERTY
VdW
SciTegic.value.DoubleValue
0.974

@<SCITEGIC>MOL_PROPERTY
VdW6
SciTegic.value.DoubleValue
-4.885

@<SCITEGIC>MOL_PROPERTY
VdW12
SciTegic.value.DoubleValue
5.859

@<SCITEGIC>MOL_PROPERTY
Bond
SciTegic.value.DoubleValue
0.094

@<SCITEGIC>MOL_PROPERTY
Angle
SciTegic.value.DoubleValue
2.818

@<SCITEGIC>MOL_PROPERTY
Pdih
SciTegic.value.DoubleValue
11.205

@<SCITEGIC>MOL_PROPERTY
Idih
SciTegic.value.DoubleValue
0.000

@<SCITEGIC>MOL_PROPERTY
Tether
SciTegic.value.DoubleValue
0.000

@<TRIPOS>MOLECULE
guest-s20_confgen4.mol2 : confsearch ligand conformer 779
          17          16           1
SMALL
USER_CHARGES
 
@<TRIPOS>ATOM
       1    C1      22.785049   17.790438   22.518031 C.2        1 MOL1         0.6132
       2    O1      23.134849   17.639299   21.364077 O.co2      1 MOL1        -0.6749
       3    O2      23.507380   18.240180   23.385771 O.co2      1 MOL1        -0.6749
       4    C2      21.368164   17.384851   22.902430 C.3        1 MOL1        -0.1955
       5    H1      21.417529   16.873662   23.870797 H          1 MOL1         0.0733
       6    H2      21.010585   16.651099   22.170038 H          1 MOL1         0.0733
       7    C3      20.427108   18.571443   22.987152 C.2        1 MOL1        -0.1395
       8    H3      20.630271   19.269028   23.799134 H          1 MOL1         0.0816
       9    C4      19.414105   18.788602   22.142828 C.2        1 MOL1        -0.1394
      10    H4      19.214589   18.093441   21.327964 H          1 MOL1         0.0816
      11    C5      18.478695   19.974016   22.227308 C.3        1 MOL1        -0.1826
      12    H5      17.437670   19.630972   22.155825 H          1 MOL1         0.0736
      13    H6      18.579694   20.474816   23.200040 H          1 MOL1         0.0736
      14    C6      18.764794   20.986021   21.100816 C.3        1 MOL1        -0.2882
      15    H7      18.633181   20.521855   20.114584 H          1 MOL1         0.0749
      16    H8      18.083584   21.844290   21.167112 H          1 MOL1         0.0749
      17    H9      19.794330   21.361994   21.167015 H          1 MOL1         0.0749
@<TRIPOS>BOND
    1     1     2    1
    2     1     3    2
    3     1     4    1
    4     4     5    1
    5     4     6    1
    6     4     7    1
    7     7     8    1
    8     7     9    2
    9     9    10    1
   10     9    11    1
   11    11    12    1
   12    11    13    1
   13    11    14    1
   14    14    15    1
   15    14    16    1
   16    14    17    1
@<TRIPOS>SUBSTRUCTURE
       1 MOL1            1 RESIDUE      1      MOL     
@<SCITEGIC>MOL_PROPERTY
VConf Rank
SciTegic.value.IntegerValue
779

@<SCITEGIC>MOL_PROPERTY
Conf_Id
SciTegic.value.IntegerValue
7

@<SCITEGIC>MOL_PROPERTY
Delta U+W
SciTegic.value.DoubleValue
-0.041

@<SCITEGIC>MOL_PROPERTY
U+W
SciTegic.value.DoubleValue
-49.468

@<SCITEGIC>MOL_PROPERTY
Grad RMS
SciTegic.value.DoubleValue
0.000000

@<SCITEGIC>MOL_PROPERTY
U
SciTegic.value.DoubleValue
14.121

@<SCITEGIC>MOL_PROPERTY
W
SciTegic.value.DoubleValue
-63.589

@<SCITEGIC>MOL_PROPERTY
W(PB)
SciTegic.value.DoubleValue
-65.660

@<SCITEGIC>MOL_PROPERTY
W(SA)
SciTegic.value.DoubleValue
2.071

@<SCITEGIC>MOL_PROPERTY
Valence
SciTegic.value.DoubleValue
15.230

@<SCITEGIC>MOL_PROPERTY
Coulomb
SciTegic.value.DoubleValue
-1.333

@<SCITEGIC>MOL_PROPERTY
VdW
SciTegic.value.DoubleValue
0.224

@<SCITEGIC>MOL_PROPERTY
VdW6
SciTegic.value.DoubleValue
-4.212

@<SCITEGIC>MOL_PROPERTY
VdW12
SciTegic.value.DoubleValue
4.436

@<SCITEGIC>MOL_PROPERTY
Bond
SciTegic.value.DoubleValue
0.044

@<SCITEGIC>MOL_PROPERTY
Angle
SciTegic.value.DoubleValue
2.230

@<SCITEGIC>MOL_PROPERTY
Pdih
SciTegic.value.DoubleValue
12.956

@<SCITEGIC>MOL_PROPERTY
Idih
SciTegic.value.DoubleValue
0.000

@<SCITEGIC>MOL_PROPERTY
Tether
SciTegic.value.DoubleValue
0.000

@<TRIPOS>MOLECULE
guest-s20_confgen4.mol2 : confsearch ligand conformer 780
          17          16           1
SMALL
USER_CHARGES
 
@<TRIPOS>ATOM
       1    C1      21.956314   20.719886   23.748314 C.2        1 MOL1         0.6132
       2    O1      22.846007   20.870354   22.934190 O.co2      1 MOL1        -0.6749
       3    O2      22.130587   20.243670   24.852818 O.co2      1 MOL1        -0.6749
       4    C2      20.550312   21.179036   23.374258 C.3        1 MOL1        -0.1955
       5    H1      20.645258   22.043294   22.706567 H          1 MOL1         0.0733
       6    H2      20.066065   21.552745   24.283965 H          1 MOL1         0.0733
       7    C3      19.666721   20.125168   22.721951 C.2        1 MOL1        -0.1395
       8    H3      18.667678   20.473787   22.463255 H          1 MOL1         0.0816
       9    C4      20.016159   18.861183   22.455063 C.2        1 MOL1        -0.1394
      10    H4      21.009050   18.487536   22.702631 H          1 MOL1         0.0816
      11    C5      19.097377   17.850616   21.805036 C.3        1 MOL1        -0.1826
      12    H5      19.119643   16.910647   22.372911 H          1 MOL1         0.0736
      13    H6      18.057999   18.206211   21.824983 H          1 MOL1         0.0736
      14    C6      19.515688   17.579726   20.346725 C.3        1 MOL1        -0.2882
      15    H7      18.846583   16.844867   19.880528 H          1 MOL1         0.0749
      16    H8      19.476318   18.502024   19.752242 H          1 MOL1         0.0749
      17    H9      20.539647   17.186323   20.299818 H          1 MOL1         0.0749
@<TRIPOS>BOND
    1     1     2    1
    2     1     3    2
    3     1     4    1
    4     4     5    1
    5     4     6    1
    6     4     7    1
    7     7     8    1
    8     7     9    2
    9     9    10    1
   10     9    11    1
   11    11    12    1
   12    11    13    1
   13    11    14    1
   14    14    15    1
   15    14    16    1
   16    14    17    1
@<TRIPOS>SUBSTRUCTURE
       1 MOL1            1 RESIDUE      1      MOL     
@<SCITEGIC>MOL_PROPERTY
VConf Rank
SciTegic.value.IntegerValue
780

@<SCITEGIC>MOL_PROPERTY
Conf_Id
SciTegic.value.IntegerValue
39

@<SCITEGIC>MOL_PROPERTY
Delta U+W
SciTegic.value.DoubleValue
-0.422

@<SCITEGIC>MOL_PROPERTY
U+W
SciTegic.value.DoubleValue
-49.849

@<SCITEGIC>MOL_PROPERTY
Grad RMS
SciTegic.value.DoubleValue
0.000000

@<SCITEGIC>MOL_PROPERTY
U
SciTegic.value.DoubleValue
14.465

@<SCITEGIC>MOL_PROPERTY
W
SciTegic.value.DoubleValue
-64.314

@<SCITEGIC>MOL_PROPERTY
W(PB)
SciTegic.value.DoubleValue
-66.406

@<SCITEGIC>MOL_PROPERTY
W(SA)
SciTegic.value.DoubleValue
2.093

@<SCITEGIC>MOL_PROPERTY
Valence
SciTegic.value.DoubleValue
14.072

@<SCITEGIC>MOL_PROPERTY
Coulomb
SciTegic.value.DoubleValue
-0.199

@<SCITEGIC>MOL_PROPERTY
VdW
SciTegic.value.DoubleValue
0.592

@<SCITEGIC>MOL_PROPERTY
VdW6
SciTegic.value.DoubleValue
-5.019

@<SCITEGIC>MOL_PROPERTY
VdW12
SciTegic.value.DoubleValue
5.611

@<SCITEGIC>MOL_PROPERTY
Bond
SciTegic.value.DoubleValue
0.085

@<SCITEGIC>MOL_PROPERTY
Angle
SciTegic.value.DoubleValue
2.748

@<SCITEGIC>MOL_PROPERTY
Pdih
SciTegic.value.DoubleValue
11.238

@<SCITEGIC>MOL_PROPERTY
Idih
SciTegic.value.DoubleValue
0.001

@<SCITEGIC>MOL_PROPERTY
Tether
SciTegic.value.DoubleValue
0.000

@<TRIPOS>MOLECULE
guest-s20_confgen4.mol2 : confsearch ligand conformer 781
          17          16           1
SMALL
USER_CHARGES
 
@<TRIPOS>ATOM
       1    C1      20.498455   22.071421   20.677820 C.2        1 MOL1         0.6132
       2    O1      19.876684   22.246833   19.648455 O.co2      1 MOL1        -0.6749
       3    O2      21.642218   22.446819   20.844259 O.co2      1 MOL1        -0.6749
       4    C2      19.802614   21.346208   21.822143 C.3        1 MOL1        -0.1955
       5    H1      18.770496   21.711921   21.872095 H          1 MOL1         0.0733
       6    H2      20.291466   21.636370   22.759943 H          1 MOL1         0.0733
       7    C3      19.813375   19.839578   21.646938 C.2        1 MOL1        -0.1395
       8    H3      19.209637   19.463018   20.821769 H          1 MOL1         0.0816
       9    C4      20.501671   18.997930   22.424179 C.2        1 MOL1        -0.1394
      10    H4      21.107543   19.375380   23.247290 H          1 MOL1         0.0816
      11    C5      20.514207   17.496168   22.245641 C.3        1 MOL1        -0.1826
      12    H5      20.103020   17.222301   21.264243 H          1 MOL1         0.0736
      13    H6      21.549190   17.128916   22.267362 H          1 MOL1         0.0736
      14    C6      19.698702   16.799989   23.352595 C.3        1 MOL1        -0.2882
      15    H7      18.652532   17.132832   23.333982 H          1 MOL1         0.0749
      16    H8      19.712010   15.710574   23.218122 H          1 MOL1         0.0749
      17    H9      20.111896   17.025850   24.344405 H          1 MOL1         0.0749
@<TRIPOS>BOND
    1     1     2    1
    2     1     3    2
    3     1     4    1
    4     4     5    1
    5     4     6    1
    6     4     7    1
    7     7     8    1
    8     7     9    2
    9     9    10    1
   10     9    11    1
   11    11    12    1
   12    11    13    1
   13    11    14    1
   14    14    15    1
   15    14    16    1
   16    14    17    1
@<TRIPOS>SUBSTRUCTURE
       1 MOL1            1 RESIDUE      1      MOL     
@<SCITEGIC>MOL_PROPERTY
VConf Rank
SciTegic.value.IntegerValue
781

@<SCITEGIC>MOL_PROPERTY
Conf_Id
SciTegic.value.IntegerValue
38

@<SCITEGIC>MOL_PROPERTY
Delta U+W
SciTegic.value.DoubleValue
0.000

@<SCITEGIC>MOL_PROPERTY
U+W
SciTegic.value.DoubleValue
-49.427

@<SCITEGIC>MOL_PROPERTY
Grad RMS
SciTegic.value.DoubleValue
0.000000

@<SCITEGIC>MOL_PROPERTY
U
SciTegic.value.DoubleValue
13.666

@<SCITEGIC>MOL_PROPERTY
W
SciTegic.value.DoubleValue
-63.093

@<SCITEGIC>MOL_PROPERTY
W(PB)
SciTegic.value.DoubleValue
-65.225

@<SCITEGIC>MOL_PROPERTY
W(SA)
SciTegic.value.DoubleValue
2.132

@<SCITEGIC>MOL_PROPERTY
Valence
SciTegic.value.DoubleValue
15.226

@<SCITEGIC>MOL_PROPERTY
Coulomb
SciTegic.value.DoubleValue
-1.822

@<SCITEGIC>MOL_PROPERTY
VdW
SciTegic.value.DoubleValue
0.261

@<SCITEGIC>MOL_PROPERTY
VdW6
SciTegic.value.DoubleValue
-4.165

@<SCITEGIC>MOL_PROPERTY
VdW12
SciTegic.value.DoubleValue
4.426

@<SCITEGIC>MOL_PROPERTY
Bond
SciTegic.value.DoubleValue
0.044

@<SCITEGIC>MOL_PROPERTY
Angle
SciTegic.value.DoubleValue
2.229

@<SCITEGIC>MOL_PROPERTY
Pdih
SciTegic.value.DoubleValue
12.953

@<SCITEGIC>MOL_PROPERTY
Idih
SciTegic.value.DoubleValue
0.000

@<SCITEGIC>MOL_PROPERTY
Tether
SciTegic.value.DoubleValue
0.000

@<TRIPOS>MOLECULE
guest-s20_confgen4.mol2 : confsearch ligand conformer 782
          17          16           1
SMALL
USER_CHARGES
 
@<TRIPOS>ATOM
       1    C1      20.283714   22.004507   20.527868 C.2        1 MOL1         0.6132
       2    O1      19.219032   22.585358   20.604569 O.co2      1 MOL1        -0.6749
       3    O2      20.981029   22.008172   19.532530 O.co2      1 MOL1        -0.6749
       4    C2      20.775388   21.233886   21.746065 C.3        1 MOL1        -0.1955
       5    H1      20.297087   21.658691   22.636800 H          1 MOL1         0.0733
       6    H2      21.852252   21.413613   21.843884 H          1 MOL1         0.0733
       7    C3      20.503299   19.745407   21.640505 C.2        1 MOL1        -0.1395
       8    H3      21.073001   19.221755   20.873414 H          1 MOL1         0.0816
       9    C4      19.633898   19.084305   22.410775 C.2        1 MOL1        -0.1394
      10    H4      19.062224   19.609134   23.175500 H          1 MOL1         0.0816
      11    C5      19.360980   17.600768   22.301434 C.3        1 MOL1        -0.1826
      12    H5      18.277172   17.424260   22.274259 H          1 MOL1         0.0736
      13    H6      19.768836   17.203111   21.361890 H          1 MOL1         0.0736
      14    C6      19.976518   16.835385   23.489020 C.3        1 MOL1        -0.2882
      15    H7      19.557521   17.186858   24.441037 H          1 MOL1         0.0749
      16    H8      19.774616   15.759661   23.404530 H          1 MOL1         0.0749
      17    H9      21.064958   16.976233   23.521578 H          1 MOL1         0.0749
@<TRIPOS>BOND
    1     1     2    1
    2     1     3    2
    3     1     4    1
    4     4     5    1
    5     4     6    1
    6     4     7    1
    7     7     8    1
    8     7     9    2
    9     9    10    1
   10     9    11    1
   11    11    12    1
   12    11    13    1
   13    11    14    1
   14    14    15    1
   15    14    16    1
   16    14    17    1
@<TRIPOS>SUBSTRUCTURE
       1 MOL1            1 RESIDUE      1      MOL     
@<SCITEGIC>MOL_PROPERTY
VConf Rank
SciTegic.value.IntegerValue
782

@<SCITEGIC>MOL_PROPERTY
Conf_Id
SciTegic.value.IntegerValue
35

@<SCITEGIC>MOL_PROPERTY
Delta U+W
SciTegic.value.DoubleValue
-0.102

@<SCITEGIC>MOL_PROPERTY
U+W
SciTegic.value.DoubleValue
-49.529

@<SCITEGIC>MOL_PROPERTY
Grad RMS
SciTegic.value.DoubleValue
0.000000

@<SCITEGIC>MOL_PROPERTY
U
SciTegic.value.DoubleValue
13.666

@<SCITEGIC>MOL_PROPERTY
W
SciTegic.value.DoubleValue
-63.195

@<SCITEGIC>MOL_PROPERTY
W(PB)
SciTegic.value.DoubleValue
-65.299

@<SCITEGIC>MOL_PROPERTY
W(SA)
SciTegic.value.DoubleValue
2.103

@<SCITEGIC>MOL_PROPERTY
Valence
SciTegic.value.DoubleValue
15.226

@<SCITEGIC>MOL_PROPERTY
Coulomb
SciTegic.value.DoubleValue
-1.822

@<SCITEGIC>MOL_PROPERTY
VdW
SciTegic.value.DoubleValue
0.261

@<SCITEGIC>MOL_PROPERTY
VdW6
SciTegic.value.DoubleValue
-4.165

@<SCITEGIC>MOL_PROPERTY
VdW12
SciTegic.value.DoubleValue
4.426

@<SCITEGIC>MOL_PROPERTY
Bond
SciTegic.value.DoubleValue
0.044

@<SCITEGIC>MOL_PROPERTY
Angle
SciTegic.value.DoubleValue
2.229

@<SCITEGIC>MOL_PROPERTY
Pdih
SciTegic.value.DoubleValue
12.953

@<SCITEGIC>MOL_PROPERTY
Idih
SciTegic.value.DoubleValue
0.000

@<SCITEGIC>MOL_PROPERTY
Tether
SciTegic.value.DoubleValue
0.000

@<TRIPOS>MOLECULE
guest-s20_confgen4.mol2 : confsearch ligand conformer 783
          17          16           1
SMALL
USER_CHARGES
 
@<TRIPOS>ATOM
       1    C1      18.364045   19.467171   19.941635 C.2        1 MOL1         0.6132
       2    O1      17.254500   19.735907   20.358364 O.co2      1 MOL1        -0.6749
       3    O2      18.896816   20.055236   19.021209 O.co2      1 MOL1        -0.6749
       4    C2      19.122579   18.324663   20.604203 C.3        1 MOL1        -0.1955
       5    H1      19.854879   17.937090   19.885796 H          1 MOL1         0.0733
       6    H2      18.407549   17.517245   20.799955 H          1 MOL1         0.0733
       7    C3      19.796704   18.747436   21.895800 C.2        1 MOL1        -0.1395
       8    H3      19.112464   18.993709   22.705896 H          1 MOL1         0.0816
       9    C4      21.123808   18.826354   22.054791 C.2        1 MOL1        -0.1394
      10    H4      21.777284   18.576131   21.219661 H          1 MOL1         0.0816
      11    C5      21.863698   19.244317   23.314339 C.3        1 MOL1        -0.1826
      12    H5      22.543271   18.435069   23.614014 H          1 MOL1         0.0736
      13    H6      22.510149   20.100929   23.080165 H          1 MOL1         0.0736
      14    C6      20.958469   19.610232   24.511291 C.3        1 MOL1        -0.2882
      15    H7      20.334696   18.757134   24.808834 H          1 MOL1         0.0749
      16    H8      21.565723   19.901033   25.378302 H          1 MOL1         0.0749
      17    H9      20.300230   20.453463   24.263961 H          1 MOL1         0.0749
@<TRIPOS>BOND
    1     1     2    1
    2     1     3    2
    3     1     4    1
    4     4     5    1
    5     4     6    1
    6     4     7    1
    7     7     8    1
    8     7     9    2
    9     9    10    1
   10     9    11    1
   11    11    12    1
   12    11    13    1
   13    11    14    1
   14    14    15    1
   15    14    16    1
   16    14    17    1
@<TRIPOS>SUBSTRUCTURE
       1 MOL1            1 RESIDUE      1      MOL     
@<SCITEGIC>MOL_PROPERTY
VConf Rank
SciTegic.value.IntegerValue
783

@<SCITEGIC>MOL_PROPERTY
Conf_Id
SciTegic.value.IntegerValue
19

@<SCITEGIC>MOL_PROPERTY
Delta U+W
SciTegic.value.DoubleValue
-0.496

@<SCITEGIC>MOL_PROPERTY
U+W
SciTegic.value.DoubleValue
-49.923

@<SCITEGIC>MOL_PROPERTY
Grad RMS
SciTegic.value.DoubleValue
0.000000

@<SCITEGIC>MOL_PROPERTY
U
SciTegic.value.DoubleValue
13.863

@<SCITEGIC>MOL_PROPERTY
W
SciTegic.value.DoubleValue
-63.786

@<SCITEGIC>MOL_PROPERTY
W(PB)
SciTegic.value.DoubleValue
-65.856

@<SCITEGIC>MOL_PROPERTY
W(SA)
SciTegic.value.DoubleValue
2.070

@<SCITEGIC>MOL_PROPERTY
Valence
SciTegic.value.DoubleValue
14.117

@<SCITEGIC>MOL_PROPERTY
Coulomb
SciTegic.value.DoubleValue
-1.228

@<SCITEGIC>MOL_PROPERTY
VdW
SciTegic.value.DoubleValue
0.974

@<SCITEGIC>MOL_PROPERTY
VdW6
SciTegic.value.DoubleValue
-4.885

@<SCITEGIC>MOL_PROPERTY
VdW12
SciTegic.value.DoubleValue
5.859

@<SCITEGIC>MOL_PROPERTY
Bond
SciTegic.value.DoubleValue
0.094

@<SCITEGIC>MOL_PROPERTY
Angle
SciTegic.value.DoubleValue
2.818

@<SCITEGIC>MOL_PROPERTY
Pdih
SciTegic.value.DoubleValue
11.205

@<SCITEGIC>MOL_PROPERTY
Idih
SciTegic.value.DoubleValue
0.000

@<SCITEGIC>MOL_PROPERTY
Tether
SciTegic.value.DoubleValue
0.000

@<TRIPOS>MOLECULE
guest-s20_confgen4.mol2 : confsearch ligand conformer 784
          17          16           1
SMALL
USER_CHARGES
 
@<TRIPOS>ATOM
       1    C1      18.398606   21.361346   21.712321 C.2        1 MOL1         0.6132
       2    O1      18.433550   21.949376   22.775247 O.co2      1 MOL1        -0.6749
       3    O2      18.518978   21.911836   20.635533 O.co2      1 MOL1        -0.6749
       4    C2      18.181517   19.853874   21.727487 C.3        1 MOL1        -0.1955
       5    H1      17.477625   19.609088   20.923683 H          1 MOL1         0.0733
       6    H2      17.694422   19.586781   22.673031 H          1 MOL1         0.0733
       7    C3      19.472542   19.079244   21.543191 C.2        1 MOL1        -0.1395
       8    H3      19.935768   19.174248   20.561554 H          1 MOL1         0.0816
       9    C4      20.040220   18.328636   22.492161 C.2        1 MOL1        -0.1394
      10    H4      19.579279   18.238133   23.475219 H          1 MOL1         0.0816
      11    C5      21.329154   17.559352   22.307265 C.3        1 MOL1        -0.1826
      12    H5      21.200825   16.528898   22.665340 H          1 MOL1         0.0736
      13    H6      21.587712   17.493023   21.241452 H          1 MOL1         0.0736
      14    C6      22.487604   18.228659   23.072127 C.3        1 MOL1        -0.2882
      15    H7      22.272574   18.273344   24.147855 H          1 MOL1         0.0749
      16    H8      23.420452   17.666670   22.934171 H          1 MOL1         0.0749
      17    H9      22.650749   19.253499   22.713286 H          1 MOL1         0.0749
@<TRIPOS>BOND
    1     1     2    1
    2     1     3    2
    3     1     4    1
    4     4     5    1
    5     4     6    1
    6     4     7    1
    7     7     8    1
    8     7     9    2
    9     9    10    1
   10     9    11    1
   11    11    12    1
   12    11    13    1
   13    11    14    1
   14    14    15    1
   15    14    16    1
   16    14    17    1
@<TRIPOS>SUBSTRUCTURE
       1 MOL1            1 RESIDUE      1      MOL     
@<SCITEGIC>MOL_PROPERTY
VConf Rank
SciTegic.value.IntegerValue
784

@<SCITEGIC>MOL_PROPERTY
Conf_Id
SciTegic.value.IntegerValue
7

@<SCITEGIC>MOL_PROPERTY
Delta U+W
SciTegic.value.DoubleValue
-0.041

@<SCITEGIC>MOL_PROPERTY
U+W
SciTegic.value.DoubleValue
-49.468

@<SCITEGIC>MOL_PROPERTY
Grad RMS
SciTegic.value.DoubleValue
0.000000

@<SCITEGIC>MOL_PROPERTY
U
SciTegic.value.DoubleValue
14.121

@<SCITEGIC>MOL_PROPERTY
W
SciTegic.value.DoubleValue
-63.589

@<SCITEGIC>MOL_PROPERTY
W(PB)
SciTegic.value.DoubleValue
-65.660

@<SCITEGIC>MOL_PROPERTY
W(SA)
SciTegic.value.DoubleValue
2.071

@<SCITEGIC>MOL_PROPERTY
Valence
SciTegic.value.DoubleValue
15.230

@<SCITEGIC>MOL_PROPERTY
Coulomb
SciTegic.value.DoubleValue
-1.333

@<SCITEGIC>MOL_PROPERTY
VdW
SciTegic.value.DoubleValue
0.224

@<SCITEGIC>MOL_PROPERTY
VdW6
SciTegic.value.DoubleValue
-4.212

@<SCITEGIC>MOL_PROPERTY
VdW12
SciTegic.value.DoubleValue
4.436

@<SCITEGIC>MOL_PROPERTY
Bond
SciTegic.value.DoubleValue
0.044

@<SCITEGIC>MOL_PROPERTY
Angle
SciTegic.value.DoubleValue
2.230

@<SCITEGIC>MOL_PROPERTY
Pdih
SciTegic.value.DoubleValue
12.956

@<SCITEGIC>MOL_PROPERTY
Idih
SciTegic.value.DoubleValue
0.000

@<SCITEGIC>MOL_PROPERTY
Tether
SciTegic.value.DoubleValue
0.000

@<TRIPOS>MOLECULE
guest-s20_confgen4.mol2 : confsearch ligand conformer 785
          17          16           1
SMALL
USER_CHARGES
 
@<TRIPOS>ATOM
       1    C1      19.686467   16.845924   23.507421 C.2        1 MOL1         0.6132
       2    O1      18.857254   17.160325   24.338415 O.co2      1 MOL1        -0.6749
       3    O2      20.723629   16.272815   23.777465 O.co2      1 MOL1        -0.6749
       4    C2      19.397328   17.162745   22.043317 C.3        1 MOL1        -0.1955
       5    H1      18.312675   17.105899   21.894777 H          1 MOL1         0.0733
       6    H2      19.827431   16.358872   21.434614 H          1 MOL1         0.0733
       7    C3      19.910142   18.507721   21.548404 C.2        1 MOL1        -0.1395
       8    H3      19.693213   18.713643   20.500987 H          1 MOL1         0.0816
       9    C4      20.575281   19.412345   22.276581 C.2        1 MOL1        -0.1394
      10    H4      20.804216   19.231703   23.326195 H          1 MOL1         0.0816
      11    C5      21.065560   20.736781   21.734883 C.3        1 MOL1        -0.1826
      12    H5      22.114904   20.888732   22.021778 H          1 MOL1         0.0736
      13    H6      21.035801   20.738507   20.636582 H          1 MOL1         0.0736
      14    C6      20.212665   21.903561   22.269887 C.3        1 MOL1        -0.2882
      15    H7      20.573669   22.862017   21.874794 H          1 MOL1         0.0749
      16    H8      19.162049   21.786442   21.973098 H          1 MOL1         0.0749
      17    H9      20.255122   21.949039   23.366057 H          1 MOL1         0.0749
@<TRIPOS>BOND
    1     1     2    1
    2     1     3    2
    3     1     4    1
    4     4     5    1
    5     4     6    1
    6     4     7    1
    7     7     8    1
    8     7     9    2
    9     9    10    1
   10     9    11    1
   11    11    12    1
   12    11    13    1
   13    11    14    1
   14    14    15    1
   15    14    16    1
   16    14    17    1
@<TRIPOS>SUBSTRUCTURE
       1 MOL1            1 RESIDUE      1      MOL     
@<SCITEGIC>MOL_PROPERTY
VConf Rank
SciTegic.value.IntegerValue
785

@<SCITEGIC>MOL_PROPERTY
Conf_Id
SciTegic.value.IntegerValue
39

@<SCITEGIC>MOL_PROPERTY
Delta U+W
SciTegic.value.DoubleValue
-0.422

@<SCITEGIC>MOL_PROPERTY
U+W
SciTegic.value.DoubleValue
-49.849

@<SCITEGIC>MOL_PROPERTY
Grad RMS
SciTegic.value.DoubleValue
0.000000

@<SCITEGIC>MOL_PROPERTY
U
SciTegic.value.DoubleValue
14.465

@<SCITEGIC>MOL_PROPERTY
W
SciTegic.value.DoubleValue
-64.314

@<SCITEGIC>MOL_PROPERTY
W(PB)
SciTegic.value.DoubleValue
-66.406

@<SCITEGIC>MOL_PROPERTY
W(SA)
SciTegic.value.DoubleValue
2.093

@<SCITEGIC>MOL_PROPERTY
Valence
SciTegic.value.DoubleValue
14.072

@<SCITEGIC>MOL_PROPERTY
Coulomb
SciTegic.value.DoubleValue
-0.199

@<SCITEGIC>MOL_PROPERTY
VdW
SciTegic.value.DoubleValue
0.592

@<SCITEGIC>MOL_PROPERTY
VdW6
SciTegic.value.DoubleValue
-5.019

@<SCITEGIC>MOL_PROPERTY
VdW12
SciTegic.value.DoubleValue
5.611

@<SCITEGIC>MOL_PROPERTY
Bond
SciTegic.value.DoubleValue
0.085

@<SCITEGIC>MOL_PROPERTY
Angle
SciTegic.value.DoubleValue
2.748

@<SCITEGIC>MOL_PROPERTY
Pdih
SciTegic.value.DoubleValue
11.238

@<SCITEGIC>MOL_PROPERTY
Idih
SciTegic.value.DoubleValue
0.001

@<SCITEGIC>MOL_PROPERTY
Tether
SciTegic.value.DoubleValue
0.000

@<TRIPOS>MOLECULE
guest-s20_confgen4.mol2 : confsearch ligand conformer 786
          17          16           1
SMALL
USER_CHARGES
 
@<TRIPOS>ATOM
       1    C1      18.783837   20.058353   19.340460 C.2        1 MOL1         0.6132
       2    O1      17.592211   19.846647   19.230144 O.co2      1 MOL1        -0.6749
       3    O2      19.585608   19.868284   18.447233 O.co2      1 MOL1        -0.6749
       4    C2      19.297411   20.596233   20.669569 C.3        1 MOL1        -0.1955
       5    H1      18.581932   21.346085   21.026390 H          1 MOL1         0.0733
       6    H2      20.244164   21.118223   20.485654 H          1 MOL1         0.0733
       7    C3      19.470941   19.505688   21.709447 C.2        1 MOL1        -0.1395
       8    H3      18.547075   19.048528   22.062543 H          1 MOL1         0.0816
       9    C4      20.653198   19.101765   22.184147 C.2        1 MOL1        -0.1394
      10    H4      21.576803   19.557277   21.828444 H          1 MOL1         0.0816
      11    C5      20.824529   18.011565   23.218281 C.3        1 MOL1        -0.1826
      12    H5      19.894144   17.437819   23.329727 H          1 MOL1         0.0736
      13    H6      21.594244   17.302279   22.885134 H          1 MOL1         0.0736
      14    C6      21.226413   18.601847   24.583973 C.3        1 MOL1        -0.2882
      15    H7      20.458286   19.295820   24.950010 H          1 MOL1         0.0749
      16    H8      21.349879   17.806053   25.329999 H          1 MOL1         0.0749
      17    H9      22.175039   19.149642   24.510087 H          1 MOL1         0.0749
@<TRIPOS>BOND
    1     1     2    1
    2     1     3    2
    3     1     4    1
    4     4     5    1
    5     4     6    1
    6     4     7    1
    7     7     8    1
    8     7     9    2
    9     9    10    1
   10     9    11    1
   11    11    12    1
   12    11    13    1
   13    11    14    1
   14    14    15    1
   15    14    16    1
   16    14    17    1
@<TRIPOS>SUBSTRUCTURE
       1 MOL1            1 RESIDUE      1      MOL     
@<SCITEGIC>MOL_PROPERTY
VConf Rank
SciTegic.value.IntegerValue
786

@<SCITEGIC>MOL_PROPERTY
Conf_Id
SciTegic.value.IntegerValue
38

@<SCITEGIC>MOL_PROPERTY
Delta U+W
SciTegic.value.DoubleValue
0.000

@<SCITEGIC>MOL_PROPERTY
U+W
SciTegic.value.DoubleValue
-49.427

@<SCITEGIC>MOL_PROPERTY
Grad RMS
SciTegic.value.DoubleValue
0.000000

@<SCITEGIC>MOL_PROPERTY
U
SciTegic.value.DoubleValue
13.666

@<SCITEGIC>MOL_PROPERTY
W
SciTegic.value.DoubleValue
-63.093

@<SCITEGIC>MOL_PROPERTY
W(PB)
SciTegic.value.DoubleValue
-65.225

@<SCITEGIC>MOL_PROPERTY
W(SA)
SciTegic.value.DoubleValue
2.132

@<SCITEGIC>MOL_PROPERTY
Valence
SciTegic.value.DoubleValue
15.226

@<SCITEGIC>MOL_PROPERTY
Coulomb
SciTegic.value.DoubleValue
-1.822

@<SCITEGIC>MOL_PROPERTY
VdW
SciTegic.value.DoubleValue
0.261

@<SCITEGIC>MOL_PROPERTY
VdW6
SciTegic.value.DoubleValue
-4.165

@<SCITEGIC>MOL_PROPERTY
VdW12
SciTegic.value.DoubleValue
4.426

@<SCITEGIC>MOL_PROPERTY
Bond
SciTegic.value.DoubleValue
0.044

@<SCITEGIC>MOL_PROPERTY
Angle
SciTegic.value.DoubleValue
2.229

@<SCITEGIC>MOL_PROPERTY
Pdih
SciTegic.value.DoubleValue
12.953

@<SCITEGIC>MOL_PROPERTY
Idih
SciTegic.value.DoubleValue
0.000

@<SCITEGIC>MOL_PROPERTY
Tether
SciTegic.value.DoubleValue
0.000

@<TRIPOS>MOLECULE
guest-s20_confgen4.mol2 : confsearch ligand conformer 787
          17          16           1
SMALL
USER_CHARGES
 
@<TRIPOS>ATOM
       1    C1      18.531987   18.074473   19.619495 C.2        1 MOL1         0.6132
       2    O1      17.593575   18.798885   19.352235 O.co2      1 MOL1        -0.6749
       3    O2      18.490601   16.862749   19.535993 O.co2      1 MOL1        -0.6749
       4    C2      19.833427   18.718391   20.079091 C.3        1 MOL1        -0.1955
       5    H1      19.857138   19.748995   19.705014 H          1 MOL1         0.0733
       6    H2      20.660135   18.183439   19.597544 H          1 MOL1         0.0733
       7    C3      19.998241   18.683256   21.586521 C.2        1 MOL1        -0.1395
       8    H3      20.144336   17.692340   22.015407 H          1 MOL1         0.0816
       9    C4      19.970026   19.765222   22.370602 C.2        1 MOL1        -0.1394
      10    H4      19.820720   20.755457   21.941412 H          1 MOL1         0.0816
      11    C5      20.130591   19.727867   23.873980 C.3        1 MOL1        -0.1826
      12    H5      19.338315   20.324293   24.346323 H          1 MOL1         0.0736
      13    H6      20.017052   18.700750   24.247286 H          1 MOL1         0.0736
      14    C6      21.507513   20.275240   24.297687 C.3        1 MOL1        -0.2882
      15    H7      21.633172   21.315590   23.970105 H          1 MOL1         0.0749
      16    H8      21.617881   20.246273   25.389505 H          1 MOL1         0.0749
      17    H9      22.316813   19.677884   23.857460 H          1 MOL1         0.0749
@<TRIPOS>BOND
    1     1     2    1
    2     1     3    2
    3     1     4    1
    4     4     5    1
    5     4     6    1
    6     4     7    1
    7     7     8    1
    8     7     9    2
    9     9    10    1
   10     9    11    1
   11    11    12    1
   12    11    13    1
   13    11    14    1
   14    14    15    1
   15    14    16    1
   16    14    17    1
@<TRIPOS>SUBSTRUCTURE
       1 MOL1            1 RESIDUE      1      MOL     
@<SCITEGIC>MOL_PROPERTY
VConf Rank
SciTegic.value.IntegerValue
787

@<SCITEGIC>MOL_PROPERTY
Conf_Id
SciTegic.value.IntegerValue
35

@<SCITEGIC>MOL_PROPERTY
Delta U+W
SciTegic.value.DoubleValue
-0.102

@<SCITEGIC>MOL_PROPERTY
U+W
SciTegic.value.DoubleValue
-49.529

@<SCITEGIC>MOL_PROPERTY
Grad RMS
SciTegic.value.DoubleValue
0.000000

@<SCITEGIC>MOL_PROPERTY
U
SciTegic.value.DoubleValue
13.666

@<SCITEGIC>MOL_PROPERTY
W
SciTegic.value.DoubleValue
-63.195

@<SCITEGIC>MOL_PROPERTY
W(PB)
SciTegic.value.DoubleValue
-65.299

@<SCITEGIC>MOL_PROPERTY
W(SA)
SciTegic.value.DoubleValue
2.103

@<SCITEGIC>MOL_PROPERTY
Valence
SciTegic.value.DoubleValue
15.226

@<SCITEGIC>MOL_PROPERTY
Coulomb
SciTegic.value.DoubleValue
-1.822

@<SCITEGIC>MOL_PROPERTY
VdW
SciTegic.value.DoubleValue
0.261

@<SCITEGIC>MOL_PROPERTY
VdW6
SciTegic.value.DoubleValue
-4.165

@<SCITEGIC>MOL_PROPERTY
VdW12
SciTegic.value.DoubleValue
4.426

@<SCITEGIC>MOL_PROPERTY
Bond
SciTegic.value.DoubleValue
0.044

@<SCITEGIC>MOL_PROPERTY
Angle
SciTegic.value.DoubleValue
2.229

@<SCITEGIC>MOL_PROPERTY
Pdih
SciTegic.value.DoubleValue
12.953

@<SCITEGIC>MOL_PROPERTY
Idih
SciTegic.value.DoubleValue
0.000

@<SCITEGIC>MOL_PROPERTY
Tether
SciTegic.value.DoubleValue
0.000

@<TRIPOS>MOLECULE
guest-s20_confgen4.mol2 : confsearch ligand conformer 788
          17          16           1
SMALL
USER_CHARGES
 
@<TRIPOS>ATOM
       1    C1      19.042860   21.802704   22.265952 C.2        1 MOL1         0.6132
       2    O1      18.841729   22.139083   23.416328 O.co2      1 MOL1        -0.6749
       3    O2      19.550601   22.527347   21.432921 O.co2      1 MOL1        -0.6749
       4    C2      18.626534   20.399435   21.844999 C.3        1 MOL1        -0.1955
       5    H1      18.467518   20.399909   20.759965 H          1 MOL1         0.0733
       6    H2      17.657926   20.183823   22.310637 H          1 MOL1         0.0733
       7    C3      19.642922   19.347333   22.246797 C.2        1 MOL1        -0.1395
       8    H3      19.730943   19.187167   23.319965 H          1 MOL1         0.0816
       9    C4      20.390247   18.659031   21.374755 C.2        1 MOL1        -0.1394
      10    H4      20.277542   18.849830   20.307995 H          1 MOL1         0.0816
      11    C5      21.425929   17.597916   21.706399 C.3        1 MOL1        -0.1826
      12    H5      21.155259   16.663514   21.196362 H          1 MOL1         0.0736
      13    H6      22.392560   17.897756   21.279502 H          1 MOL1         0.0736
      14    C6      21.608673   17.313638   23.213654 C.3        1 MOL1        -0.2882
      15    H7      20.672491   16.958420   23.663970 H          1 MOL1         0.0749
      16    H8      22.371393   16.539710   23.369621 H          1 MOL1         0.0749
      17    H9      21.931738   18.216505   23.748397 H          1 MOL1         0.0749
@<TRIPOS>BOND
    1     1     2    1
    2     1     3    2
    3     1     4    1
    4     4     5    1
    5     4     6    1
    6     4     7    1
    7     7     8    1
    8     7     9    2
    9     9    10    1
   10     9    11    1
   11    11    12    1
   12    11    13    1
   13    11    14    1
   14    14    15    1
   15    14    16    1
   16    14    17    1
@<TRIPOS>SUBSTRUCTURE
       1 MOL1            1 RESIDUE      1      MOL     
@<SCITEGIC>MOL_PROPERTY
VConf Rank
SciTegic.value.IntegerValue
788

@<SCITEGIC>MOL_PROPERTY
Conf_Id
SciTegic.value.IntegerValue
19

@<SCITEGIC>MOL_PROPERTY
Delta U+W
SciTegic.value.DoubleValue
-0.496

@<SCITEGIC>MOL_PROPERTY
U+W
SciTegic.value.DoubleValue
-49.923

@<SCITEGIC>MOL_PROPERTY
Grad RMS
SciTegic.value.DoubleValue
0.000000

@<SCITEGIC>MOL_PROPERTY
U
SciTegic.value.DoubleValue
13.863

@<SCITEGIC>MOL_PROPERTY
W
SciTegic.value.DoubleValue
-63.786

@<SCITEGIC>MOL_PROPERTY
W(PB)
SciTegic.value.DoubleValue
-65.856

@<SCITEGIC>MOL_PROPERTY
W(SA)
SciTegic.value.DoubleValue
2.070

@<SCITEGIC>MOL_PROPERTY
Valence
SciTegic.value.DoubleValue
14.117

@<SCITEGIC>MOL_PROPERTY
Coulomb
SciTegic.value.DoubleValue
-1.228

@<SCITEGIC>MOL_PROPERTY
VdW
SciTegic.value.DoubleValue
0.974

@<SCITEGIC>MOL_PROPERTY
VdW6
SciTegic.value.DoubleValue
-4.885

@<SCITEGIC>MOL_PROPERTY
VdW12
SciTegic.value.DoubleValue
5.859

@<SCITEGIC>MOL_PROPERTY
Bond
SciTegic.value.DoubleValue
0.094

@<SCITEGIC>MOL_PROPERTY
Angle
SciTegic.value.DoubleValue
2.818

@<SCITEGIC>MOL_PROPERTY
Pdih
SciTegic.value.DoubleValue
11.205

@<SCITEGIC>MOL_PROPERTY
Idih
SciTegic.value.DoubleValue
0.000

@<SCITEGIC>MOL_PROPERTY
Tether
SciTegic.value.DoubleValue
0.000

@<TRIPOS>MOLECULE
guest-s20_confgen4.mol2 : confsearch ligand conformer 789
          17          16           1
SMALL
USER_CHARGES
 
@<TRIPOS>ATOM
       1    C1      22.859329   18.416662   23.161262 C.2        1 MOL1         0.6132
       2    O1      23.511630   18.465477   22.137088 O.co2      1 MOL1        -0.6749
       3    O2      23.205979   18.935555   24.204136 O.co2      1 MOL1        -0.6749
       4    C2      21.540380   17.655194   23.142107 C.3        1 MOL1        -0.1955
       5    H1      21.474140   17.077291   24.071153 H          1 MOL1         0.0733
       6    H2      21.572632   16.933627   22.316907 H          1 MOL1         0.0733
       7    C3      20.340743   18.574532   23.013846 C.2        1 MOL1        -0.1395
       8    H3      20.153348   19.217186   23.873552 H          1 MOL1         0.0816
       9    C4      19.548709   18.630437   21.938777 C.2        1 MOL1        -0.1394
      10    H4      19.739622   17.991265   21.077342 H          1 MOL1         0.0816
      11    C5      18.354709   19.549981   21.811741 C.3        1 MOL1        -0.1826
      12    H5      17.485024   18.981647   21.455137 H          1 MOL1         0.0736
      13    H6      18.081237   19.962619   22.792634 H          1 MOL1         0.0736
      14    C6      18.648148   20.706304   20.836137 C.3        1 MOL1        -0.2882
      15    H7      18.887134   20.323263   19.835342 H          1 MOL1         0.0749
      16    H8      17.778692   21.370649   20.748055 H          1 MOL1         0.0749
      17    H9      19.500122   21.304320   21.185705 H          1 MOL1         0.0749
@<TRIPOS>BOND
    1     1     2    1
    2     1     3    2
    3     1     4    1
    4     4     5    1
    5     4     6    1
    6     4     7    1
    7     7     8    1
    8     7     9    2
    9     9    10    1
   10     9    11    1
   11    11    12    1
   12    11    13    1
   13    11    14    1
   14    14    15    1
   15    14    16    1
   16    14    17    1
@<TRIPOS>SUBSTRUCTURE
       1 MOL1            1 RESIDUE      1      MOL     
@<SCITEGIC>MOL_PROPERTY
VConf Rank
SciTegic.value.IntegerValue
789

@<SCITEGIC>MOL_PROPERTY
Conf_Id
SciTegic.value.IntegerValue
7

@<SCITEGIC>MOL_PROPERTY
Delta U+W
SciTegic.value.DoubleValue
-0.041

@<SCITEGIC>MOL_PROPERTY
U+W
SciTegic.value.DoubleValue
-49.468

@<SCITEGIC>MOL_PROPERTY
Grad RMS
SciTegic.value.DoubleValue
0.000000

@<SCITEGIC>MOL_PROPERTY
U
SciTegic.value.DoubleValue
14.121

@<SCITEGIC>MOL_PROPERTY
W
SciTegic.value.DoubleValue
-63.589

@<SCITEGIC>MOL_PROPERTY
W(PB)
SciTegic.value.DoubleValue
-65.660

@<SCITEGIC>MOL_PROPERTY
W(SA)
SciTegic.value.DoubleValue
2.071

@<SCITEGIC>MOL_PROPERTY
Valence
SciTegic.value.DoubleValue
15.230

@<SCITEGIC>MOL_PROPERTY
Coulomb
SciTegic.value.DoubleValue
-1.333

@<SCITEGIC>MOL_PROPERTY
VdW
SciTegic.value.DoubleValue
0.224

@<SCITEGIC>MOL_PROPERTY
VdW6
SciTegic.value.DoubleValue
-4.212

@<SCITEGIC>MOL_PROPERTY
VdW12
SciTegic.value.DoubleValue
4.436

@<SCITEGIC>MOL_PROPERTY
Bond
SciTegic.value.DoubleValue
0.044

@<SCITEGIC>MOL_PROPERTY
Angle
SciTegic.value.DoubleValue
2.230

@<SCITEGIC>MOL_PROPERTY
Pdih
SciTegic.value.DoubleValue
12.956

@<SCITEGIC>MOL_PROPERTY
Idih
SciTegic.value.DoubleValue
0.000

@<SCITEGIC>MOL_PROPERTY
Tether
SciTegic.value.DoubleValue
0.000

@<TRIPOS>MOLECULE
guest-s20_confgen4.mol2 : confsearch ligand conformer 790
          17          16           1
SMALL
USER_CHARGES
 
@<TRIPOS>ATOM
       1    C1      17.411861   18.869748   21.988819 C.2        1 MOL1         0.6132
       2    O1      16.984728   19.968404   22.284630 O.co2      1 MOL1        -0.6749
       3    O2      17.044232   17.840923   22.521220 O.co2      1 MOL1        -0.6749
       4    C2      18.444577   18.773986   20.869934 C.3        1 MOL1        -0.1955
       5    H1      18.238820   19.577126   20.152718 H          1 MOL1         0.0733
       6    H2      18.269095   17.835931   20.330509 H          1 MOL1         0.0733
       7    C3      19.899690   18.844442   21.311020 C.2        1 MOL1        -0.1395
       8    H3      20.620004   18.774095   20.496929 H          1 MOL1         0.0816
       9    C4      20.334532   18.982384   22.569146 C.2        1 MOL1        -0.1394
      10    H4      19.635423   19.055934   23.401354 H          1 MOL1         0.0816
      11    C5      21.795666   19.045751   22.955169 C.3        1 MOL1        -0.1826
      12    H5      21.987165   18.362858   23.793921 H          1 MOL1         0.0736
      13    H6      22.428879   18.708177   22.123160 H          1 MOL1         0.0736
      14    C6      22.200800   20.477661   23.355838 C.3        1 MOL1        -0.2882
      15    H7      23.261389   20.517470   23.636241 H          1 MOL1         0.0749
      16    H8      22.041962   21.175146   22.522843 H          1 MOL1         0.0749
      17    H9      21.608585   20.827037   24.211803 H          1 MOL1         0.0749
@<TRIPOS>BOND
    1     1     2    1
    2     1     3    2
    3     1     4    1
    4     4     5    1
    5     4     6    1
    6     4     7    1
    7     7     8    1
    8     7     9    2
    9     9    10    1
   10     9    11    1
   11    11    12    1
   12    11    13    1
   13    11    14    1
   14    14    15    1
   15    14    16    1
   16    14    17    1
@<TRIPOS>SUBSTRUCTURE
       1 MOL1            1 RESIDUE      1      MOL     
@<SCITEGIC>MOL_PROPERTY
VConf Rank
SciTegic.value.IntegerValue
790

@<SCITEGIC>MOL_PROPERTY
Conf_Id
SciTegic.value.IntegerValue
39

@<SCITEGIC>MOL_PROPERTY
Delta U+W
SciTegic.value.DoubleValue
-0.422

@<SCITEGIC>MOL_PROPERTY
U+W
SciTegic.value.DoubleValue
-49.849

@<SCITEGIC>MOL_PROPERTY
Grad RMS
SciTegic.value.DoubleValue
0.000000

@<SCITEGIC>MOL_PROPERTY
U
SciTegic.value.DoubleValue
14.465

@<SCITEGIC>MOL_PROPERTY
W
SciTegic.value.DoubleValue
-64.314

@<SCITEGIC>MOL_PROPERTY
W(PB)
SciTegic.value.DoubleValue
-66.406

@<SCITEGIC>MOL_PROPERTY
W(SA)
SciTegic.value.DoubleValue
2.093

@<SCITEGIC>MOL_PROPERTY
Valence
SciTegic.value.DoubleValue
14.072

@<SCITEGIC>MOL_PROPERTY
Coulomb
SciTegic.value.DoubleValue
-0.199

@<SCITEGIC>MOL_PROPERTY
VdW
SciTegic.value.DoubleValue
0.592

@<SCITEGIC>MOL_PROPERTY
VdW6
SciTegic.value.DoubleValue
-5.019

@<SCITEGIC>MOL_PROPERTY
VdW12
SciTegic.value.DoubleValue
5.611

@<SCITEGIC>MOL_PROPERTY
Bond
SciTegic.value.DoubleValue
0.085

@<SCITEGIC>MOL_PROPERTY
Angle
SciTegic.value.DoubleValue
2.748

@<SCITEGIC>MOL_PROPERTY
Pdih
SciTegic.value.DoubleValue
11.238

@<SCITEGIC>MOL_PROPERTY
Idih
SciTegic.value.DoubleValue
0.001

@<SCITEGIC>MOL_PROPERTY
Tether
SciTegic.value.DoubleValue
0.000

@<TRIPOS>MOLECULE
guest-s20_confgen4.mol2 : confsearch ligand conformer 791
          17          16           1
SMALL
USER_CHARGES
 
@<TRIPOS>ATOM
       1    C1      17.955318   21.242151   20.879426 C.2        1 MOL1         0.6132
       2    O1      18.368878   22.090980   20.114300 O.co2      1 MOL1        -0.6749
       3    O2      17.088463   21.447482   21.705996 O.co2      1 MOL1        -0.6749
       4    C2      18.553566   19.844256   20.792276 C.3        1 MOL1        -0.1955
       5    H1      18.677497   19.598513   19.731258 H          1 MOL1         0.0733
       6    H2      17.826440   19.133634   21.203304 H          1 MOL1         0.0733
       7    C3      19.885051   19.736443   21.510794 C.2        1 MOL1        -0.1395
       8    H3      20.704129   20.294781   21.058498 H          1 MOL1         0.0816
       9    C4      20.082872   19.021521   22.622541 C.2        1 MOL1        -0.1394
      10    H4      19.262686   18.465850   23.075955 H          1 MOL1         0.0816
      11    C5      21.410373   18.918222   23.339753 C.3        1 MOL1        -0.1826
      12    H5      22.102063   19.693182   22.981670 H          1 MOL1         0.0736
      13    H6      21.266171   19.096423   24.413990 H          1 MOL1         0.0736
      14    C6      22.046646   17.530327   23.130076 C.3        1 MOL1        -0.2882
      15    H7      22.224228   17.339979   22.063383 H          1 MOL1         0.0749
      16    H8      23.009215   17.461179   23.653302 H          1 MOL1         0.0749
      17    H9      21.392117   16.737187   23.514719 H          1 MOL1         0.0749
@<TRIPOS>BOND
    1     1     2    1
    2     1     3    2
    3     1     4    1
    4     4     5    1
    5     4     6    1
    6     4     7    1
    7     7     8    1
    8     7     9    2
    9     9    10    1
   10     9    11    1
   11    11    12    1
   12    11    13    1
   13    11    14    1
   14    14    15    1
   15    14    16    1
   16    14    17    1
@<TRIPOS>SUBSTRUCTURE
       1 MOL1            1 RESIDUE      1      MOL     
@<SCITEGIC>MOL_PROPERTY
VConf Rank
SciTegic.value.IntegerValue
791

@<SCITEGIC>MOL_PROPERTY
Conf_Id
SciTegic.value.IntegerValue
38

@<SCITEGIC>MOL_PROPERTY
Delta U+W
SciTegic.value.DoubleValue
0.000

@<SCITEGIC>MOL_PROPERTY
U+W
SciTegic.value.DoubleValue
-49.427

@<SCITEGIC>MOL_PROPERTY
Grad RMS
SciTegic.value.DoubleValue
0.000000

@<SCITEGIC>MOL_PROPERTY
U
SciTegic.value.DoubleValue
13.666

@<SCITEGIC>MOL_PROPERTY
W
SciTegic.value.DoubleValue
-63.093

@<SCITEGIC>MOL_PROPERTY
W(PB)
SciTegic.value.DoubleValue
-65.225

@<SCITEGIC>MOL_PROPERTY
W(SA)
SciTegic.value.DoubleValue
2.132

@<SCITEGIC>MOL_PROPERTY
Valence
SciTegic.value.DoubleValue
15.226

@<SCITEGIC>MOL_PROPERTY
Coulomb
SciTegic.value.DoubleValue
-1.822

@<SCITEGIC>MOL_PROPERTY
VdW
SciTegic.value.DoubleValue
0.261

@<SCITEGIC>MOL_PROPERTY
VdW6
SciTegic.value.DoubleValue
-4.165

@<SCITEGIC>MOL_PROPERTY
VdW12
SciTegic.value.DoubleValue
4.426

@<SCITEGIC>MOL_PROPERTY
Bond
SciTegic.value.DoubleValue
0.044

@<SCITEGIC>MOL_PROPERTY
Angle
SciTegic.value.DoubleValue
2.229

@<SCITEGIC>MOL_PROPERTY
Pdih
SciTegic.value.DoubleValue
12.953

@<SCITEGIC>MOL_PROPERTY
Idih
SciTegic.value.DoubleValue
0.000

@<SCITEGIC>MOL_PROPERTY
Tether
SciTegic.value.DoubleValue
0.000

@<TRIPOS>MOLECULE
guest-s20_confgen4.mol2 : confsearch ligand conformer 792
          17          16           1
SMALL
USER_CHARGES
 
@<TRIPOS>ATOM
       1    C1      19.082315   16.601046   20.727294 C.2        1 MOL1         0.6132
       2    O1      19.538320   15.647650   21.327222 O.co2      1 MOL1        -0.6749
       3    O2      18.944860   16.632282   19.520194 O.co2      1 MOL1        -0.6749
       4    C2      18.654092   17.822178   21.530454 C.3        1 MOL1        -0.1955
       5    H1      18.438245   17.499779   22.556177 H          1 MOL1         0.0733
       6    H2      17.713031   18.189647   21.105155 H          1 MOL1         0.0733
       7    C3      19.697597   18.922903   21.514770 C.2        1 MOL1        -0.1395
       8    H3      19.849968   19.405563   20.549874 H          1 MOL1         0.0816
       9    C4      20.404181   19.303307   22.583536 C.2        1 MOL1        -0.1394
      10    H4      20.253576   18.818081   23.547348 H          1 MOL1         0.0816
      11    C5      21.447125   20.398410   22.565116 C.3        1 MOL1        -0.1826
      12    H5      22.364204   20.045196   23.055767 H          1 MOL1         0.0736
      13    H6      21.720140   20.651883   21.531465 H          1 MOL1         0.0736
      14    C6      20.935210   21.662890   23.282118 C.3        1 MOL1        -0.2882
      15    H7      20.690474   21.446828   24.330378 H          1 MOL1         0.0749
      16    H8      21.696482   22.453647   23.266126 H          1 MOL1         0.0749
      17    H9      20.031704   22.049816   22.792665 H          1 MOL1         0.0749
@<TRIPOS>BOND
    1     1     2    1
    2     1     3    2
    3     1     4    1
    4     4     5    1
    5     4     6    1
    6     4     7    1
    7     7     8    1
    8     7     9    2
    9     9    10    1
   10     9    11    1
   11    11    12    1
   12    11    13    1
   13    11    14    1
   14    14    15    1
   15    14    16    1
   16    14    17    1
@<TRIPOS>SUBSTRUCTURE
       1 MOL1            1 RESIDUE      1      MOL     
@<SCITEGIC>MOL_PROPERTY
VConf Rank
SciTegic.value.IntegerValue
792

@<SCITEGIC>MOL_PROPERTY
Conf_Id
SciTegic.value.IntegerValue
35

@<SCITEGIC>MOL_PROPERTY
Delta U+W
SciTegic.value.DoubleValue
-0.102

@<SCITEGIC>MOL_PROPERTY
U+W
SciTegic.value.DoubleValue
-49.529

@<SCITEGIC>MOL_PROPERTY
Grad RMS
SciTegic.value.DoubleValue
0.000000

@<SCITEGIC>MOL_PROPERTY
U
SciTegic.value.DoubleValue
13.666

@<SCITEGIC>MOL_PROPERTY
W
SciTegic.value.DoubleValue
-63.195

@<SCITEGIC>MOL_PROPERTY
W(PB)
SciTegic.value.DoubleValue
-65.299

@<SCITEGIC>MOL_PROPERTY
W(SA)
SciTegic.value.DoubleValue
2.103

@<SCITEGIC>MOL_PROPERTY
Valence
SciTegic.value.DoubleValue
15.226

@<SCITEGIC>MOL_PROPERTY
Coulomb
SciTegic.value.DoubleValue
-1.822

@<SCITEGIC>MOL_PROPERTY
VdW
SciTegic.value.DoubleValue
0.261

@<SCITEGIC>MOL_PROPERTY
VdW6
SciTegic.value.DoubleValue
-4.165

@<SCITEGIC>MOL_PROPERTY
VdW12
SciTegic.value.DoubleValue
4.426

@<SCITEGIC>MOL_PROPERTY
Bond
SciTegic.value.DoubleValue
0.044

@<SCITEGIC>MOL_PROPERTY
Angle
SciTegic.value.DoubleValue
2.229

@<SCITEGIC>MOL_PROPERTY
Pdih
SciTegic.value.DoubleValue
12.953

@<SCITEGIC>MOL_PROPERTY
Idih
SciTegic.value.DoubleValue
0.000

@<SCITEGIC>MOL_PROPERTY
Tether
SciTegic.value.DoubleValue
0.000

@<TRIPOS>MOLECULE
guest-s20_confgen4.mol2 : confsearch ligand conformer 793
          17          16           1
SMALL
USER_CHARGES
 
@<TRIPOS>ATOM
       1    C1      17.503056   18.124962   21.603000 C.2        1 MOL1         0.6132
       2    O1      16.962803   17.751850   22.625685 O.co2      1 MOL1        -0.6749
       3    O2      16.956835   18.820824   20.769772 O.co2      1 MOL1        -0.6749
       4    C2      18.939755   17.687701   21.349241 C.3        1 MOL1        -0.1955
       5    H1      19.122248   17.720123   20.268393 H          1 MOL1         0.0733
       6    H2      19.030254   16.639889   21.658124 H          1 MOL1         0.0733
       7    C3      19.946793   18.539968   22.098186 C.2        1 MOL1        -0.1395
       8    H3      19.920518   18.428328   23.180746 H          1 MOL1         0.0816
       9    C4      20.807319   19.375678   21.503378 C.2        1 MOL1        -0.1394
      10    H4      20.801314   19.464178   20.417461 H          1 MOL1         0.0816
      11    C5      21.836283   20.258434   22.189356 C.3        1 MOL1        -0.1826
      12    H5      22.833353   20.013631   21.798937 H          1 MOL1         0.0736
      13    H6      21.656073   21.303666   21.903813 H          1 MOL1         0.0736
      14    C6      21.860199   20.155406   23.730408 C.3        1 MOL1        -0.2882
      15    H7      22.092059   19.132002   24.053340 H          1 MOL1         0.0749
      16    H8      22.625992   20.821388   24.148807 H          1 MOL1         0.0749
      17    H9      20.892011   20.445092   24.159574 H          1 MOL1         0.0749
@<TRIPOS>BOND
    1     1     2    1
    2     1     3    2
    3     1     4    1
    4     4     5    1
    5     4     6    1
    6     4     7    1
    7     7     8    1
    8     7     9    2
    9     9    10    1
   10     9    11    1
   11    11    12    1
   12    11    13    1
   13    11    14    1
   14    14    15    1
   15    14    16    1
   16    14    17    1
@<TRIPOS>SUBSTRUCTURE
       1 MOL1            1 RESIDUE      1      MOL     
@<SCITEGIC>MOL_PROPERTY
VConf Rank
SciTegic.value.IntegerValue
793

@<SCITEGIC>MOL_PROPERTY
Conf_Id
SciTegic.value.IntegerValue
19

@<SCITEGIC>MOL_PROPERTY
Delta U+W
SciTegic.value.DoubleValue
-0.496

@<SCITEGIC>MOL_PROPERTY
U+W
SciTegic.value.DoubleValue
-49.923

@<SCITEGIC>MOL_PROPERTY
Grad RMS
SciTegic.value.DoubleValue
0.000000

@<SCITEGIC>MOL_PROPERTY
U
SciTegic.value.DoubleValue
13.863

@<SCITEGIC>MOL_PROPERTY
W
SciTegic.value.DoubleValue
-63.786

@<SCITEGIC>MOL_PROPERTY
W(PB)
SciTegic.value.DoubleValue
-65.856

@<SCITEGIC>MOL_PROPERTY
W(SA)
SciTegic.value.DoubleValue
2.070

@<SCITEGIC>MOL_PROPERTY
Valence
SciTegic.value.DoubleValue
14.117

@<SCITEGIC>MOL_PROPERTY
Coulomb
SciTegic.value.DoubleValue
-1.228

@<SCITEGIC>MOL_PROPERTY
VdW
SciTegic.value.DoubleValue
0.974

@<SCITEGIC>MOL_PROPERTY
VdW6
SciTegic.value.DoubleValue
-4.885

@<SCITEGIC>MOL_PROPERTY
VdW12
SciTegic.value.DoubleValue
5.859

@<SCITEGIC>MOL_PROPERTY
Bond
SciTegic.value.DoubleValue
0.094

@<SCITEGIC>MOL_PROPERTY
Angle
SciTegic.value.DoubleValue
2.818

@<SCITEGIC>MOL_PROPERTY
Pdih
SciTegic.value.DoubleValue
11.205

@<SCITEGIC>MOL_PROPERTY
Idih
SciTegic.value.DoubleValue
0.000

@<SCITEGIC>MOL_PROPERTY
Tether
SciTegic.value.DoubleValue
0.000

@<TRIPOS>MOLECULE
guest-s20_confgen4.mol2 : confsearch ligand conformer 794
          17          16           1
SMALL
USER_CHARGES
 
@<TRIPOS>ATOM
       1    C1      20.225637   17.791669   24.856634 C.2        1 MOL1         0.6132
       2    O1      21.342476   18.068262   25.247758 O.co2      1 MOL1        -0.6749
       3    O2      19.226779   17.907176   25.539233 O.co2      1 MOL1        -0.6749
       4    C2      20.067910   17.261044   23.437695 C.3        1 MOL1        -0.1955
       5    H1      19.345849   16.436875   23.467004 H          1 MOL1         0.0733
       6    H2      21.027983   16.835521   23.121716 H          1 MOL1         0.0733
       7    C3      19.600611   18.328726   22.466897 C.2        1 MOL1        -0.1395
       8    H3      18.585306   18.690389   22.626804 H          1 MOL1         0.0816
       9    C4      20.350072   18.824349   21.477512 C.2        1 MOL1        -0.1394
      10    H4      21.367055   18.466020   21.321288 H          1 MOL1         0.0816
      11    C5      19.883200   19.891076   20.512391 C.3        1 MOL1        -0.1826
      12    H5      20.113578   19.586190   19.482589 H          1 MOL1         0.0736
      13    H6      18.792459   20.010362   20.569510 H          1 MOL1         0.0736
      14    C6      20.560177   21.242762   20.811792 C.3        1 MOL1        -0.2882
      15    H7      21.651585   21.162206   20.723674 H          1 MOL1         0.0749
      16    H8      20.217519   22.013217   20.108904 H          1 MOL1         0.0749
      17    H9      20.323380   21.580163   21.829520 H          1 MOL1         0.0749
@<TRIPOS>BOND
    1     1     2    1
    2     1     3    2
    3     1     4    1
    4     4     5    1
    5     4     6    1
    6     4     7    1
    7     7     8    1
    8     7     9    2
    9     9    10    1
   10     9    11    1
   11    11    12    1
   12    11    13    1
   13    11    14    1
   14    14    15    1
   15    14    16    1
   16    14    17    1
@<TRIPOS>SUBSTRUCTURE
       1 MOL1            1 RESIDUE      1      MOL     
@<SCITEGIC>MOL_PROPERTY
VConf Rank
SciTegic.value.IntegerValue
794

@<SCITEGIC>MOL_PROPERTY
Conf_Id
SciTegic.value.IntegerValue
7

@<SCITEGIC>MOL_PROPERTY
Delta U+W
SciTegic.value.DoubleValue
-0.041

@<SCITEGIC>MOL_PROPERTY
U+W
SciTegic.value.DoubleValue
-49.468

@<SCITEGIC>MOL_PROPERTY
Grad RMS
SciTegic.value.DoubleValue
0.000000

@<SCITEGIC>MOL_PROPERTY
U
SciTegic.value.DoubleValue
14.121

@<SCITEGIC>MOL_PROPERTY
W
SciTegic.value.DoubleValue
-63.589

@<SCITEGIC>MOL_PROPERTY
W(PB)
SciTegic.value.DoubleValue
-65.660

@<SCITEGIC>MOL_PROPERTY
W(SA)
SciTegic.value.DoubleValue
2.071

@<SCITEGIC>MOL_PROPERTY
Valence
SciTegic.value.DoubleValue
15.230

@<SCITEGIC>MOL_PROPERTY
Coulomb
SciTegic.value.DoubleValue
-1.333

@<SCITEGIC>MOL_PROPERTY
VdW
SciTegic.value.DoubleValue
0.224

@<SCITEGIC>MOL_PROPERTY
VdW6
SciTegic.value.DoubleValue
-4.212

@<SCITEGIC>MOL_PROPERTY
VdW12
SciTegic.value.DoubleValue
4.436

@<SCITEGIC>MOL_PROPERTY
Bond
SciTegic.value.DoubleValue
0.044

@<SCITEGIC>MOL_PROPERTY
Angle
SciTegic.value.DoubleValue
2.230

@<SCITEGIC>MOL_PROPERTY
Pdih
SciTegic.value.DoubleValue
12.956

@<SCITEGIC>MOL_PROPERTY
Idih
SciTegic.value.DoubleValue
0.000

@<SCITEGIC>MOL_PROPERTY
Tether
SciTegic.value.DoubleValue
0.000

@<TRIPOS>MOLECULE
guest-s20_confgen4.mol2 : confsearch ligand conformer 795
          17          16           1
SMALL
USER_CHARGES
 
@<TRIPOS>ATOM
       1    C1      19.707843   17.287084   20.393818 C.2        1 MOL1         0.6132
       2    O1      19.539534   16.323029   21.114416 O.co2      1 MOL1        -0.6749
       3    O2      20.528055   17.320211   19.497583 O.co2      1 MOL1        -0.6749
       4    C2      18.822988   18.511379   20.607620 C.3        1 MOL1        -0.1955
       5    H1      17.847136   18.162713   20.965271 H          1 MOL1         0.0733
       6    H2      18.639396   18.968074   19.628108 H          1 MOL1         0.0733
       7    C3      19.372108   19.559921   21.564649 C.2        1 MOL1        -0.1395
       8    H3      18.724997   20.425211   21.702728 H          1 MOL1         0.0816
       9    C4      20.537945   19.494543   22.218518 C.2        1 MOL1        -0.1394
      10    H4      21.203109   18.640143   22.098974 H          1 MOL1         0.0816
      11    C5      21.039270   20.567257   23.159740 C.3        1 MOL1        -0.1826
      12    H5      22.083015   20.811832   22.920367 H          1 MOL1         0.0736
      13    H6      20.461419   21.492903   23.031590 H          1 MOL1         0.0736
      14    C6      20.943432   20.105346   24.626877 C.3        1 MOL1        -0.2882
      15    H7      21.309731   20.886890   25.305164 H          1 MOL1         0.0749
      16    H8      19.903511   19.879283   24.897161 H          1 MOL1         0.0749
      17    H9      21.543918   19.201252   24.792673 H          1 MOL1         0.0749
@<TRIPOS>BOND
    1     1     2    1
    2     1     3    2
    3     1     4    1
    4     4     5    1
    5     4     6    1
    6     4     7    1
    7     7     8    1
    8     7     9    2
    9     9    10    1
   10     9    11    1
   11    11    12    1
   12    11    13    1
   13    11    14    1
   14    14    15    1
   15    14    16    1
   16    14    17    1
@<TRIPOS>SUBSTRUCTURE
       1 MOL1            1 RESIDUE      1      MOL     
@<SCITEGIC>MOL_PROPERTY
VConf Rank
SciTegic.value.IntegerValue
795

@<SCITEGIC>MOL_PROPERTY
Conf_Id
SciTegic.value.IntegerValue
39

@<SCITEGIC>MOL_PROPERTY
Delta U+W
SciTegic.value.DoubleValue
-0.422

@<SCITEGIC>MOL_PROPERTY
U+W
SciTegic.value.DoubleValue
-49.849

@<SCITEGIC>MOL_PROPERTY
Grad RMS
SciTegic.value.DoubleValue
0.000000

@<SCITEGIC>MOL_PROPERTY
U
SciTegic.value.DoubleValue
14.465

@<SCITEGIC>MOL_PROPERTY
W
SciTegic.value.DoubleValue
-64.314

@<SCITEGIC>MOL_PROPERTY
W(PB)
SciTegic.value.DoubleValue
-66.406

@<SCITEGIC>MOL_PROPERTY
W(SA)
SciTegic.value.DoubleValue
2.093

@<SCITEGIC>MOL_PROPERTY
Valence
SciTegic.value.DoubleValue
14.072

@<SCITEGIC>MOL_PROPERTY
Coulomb
SciTegic.value.DoubleValue
-0.199

@<SCITEGIC>MOL_PROPERTY
VdW
SciTegic.value.DoubleValue
0.592

@<SCITEGIC>MOL_PROPERTY
VdW6
SciTegic.value.DoubleValue
-5.019

@<SCITEGIC>MOL_PROPERTY
VdW12
SciTegic.value.DoubleValue
5.611

@<SCITEGIC>MOL_PROPERTY
Bond
SciTegic.value.DoubleValue
0.085

@<SCITEGIC>MOL_PROPERTY
Angle
SciTegic.value.DoubleValue
2.748

@<SCITEGIC>MOL_PROPERTY
Pdih
SciTegic.value.DoubleValue
11.238

@<SCITEGIC>MOL_PROPERTY
Idih
SciTegic.value.DoubleValue
0.001

@<SCITEGIC>MOL_PROPERTY
Tether
SciTegic.value.DoubleValue
0.000

@<TRIPOS>MOLECULE
guest-s20_confgen4.mol2 : confsearch ligand conformer 796
          17          16           1
SMALL
USER_CHARGES
 
@<TRIPOS>ATOM
       1    C1      21.282118   20.365423   24.834681 C.2        1 MOL1         0.6132
       2    O1      22.441710   20.092430   25.075059 O.co2      1 MOL1        -0.6749
       3    O2      20.403365   20.363285   25.674090 O.co2      1 MOL1        -0.6749
       4    C2      20.913363   20.735310   23.404014 C.3        1 MOL1        -0.1955
       5    H1      21.710504   21.374576   23.007259 H          1 MOL1         0.0733
       6    H2      19.999733   21.341278   23.430919 H          1 MOL1         0.0733
       7    C3      20.732358   19.517862   22.517559 C.2        1 MOL1        -0.1395
       8    H3      21.640995   18.952526   22.312684 H          1 MOL1         0.0816
       9    C4      19.560648   19.129104   22.005514 C.2        1 MOL1        -0.1394
      10    H4      18.651946   19.693180   22.213215 H          1 MOL1         0.0816
      11    C5      19.381428   17.912693   21.124863 C.3        1 MOL1        -0.1826
      12    H5      20.269284   17.267415   21.175344 H          1 MOL1         0.0736
      13    H6      18.535347   17.313630   21.487914 H          1 MOL1         0.0736
      14    C6      19.130573   18.321383   19.660246 C.3        1 MOL1        -0.2882
      15    H7      19.976323   18.900603   19.266782 H          1 MOL1         0.0749
      16    H8      19.000678   17.434654   19.026270 H          1 MOL1         0.0749
      17    H9      18.225339   18.936756   19.574826 H          1 MOL1         0.0749
@<TRIPOS>BOND
    1     1     2    1
    2     1     3    2
    3     1     4    1
    4     4     5    1
    5     4     6    1
    6     4     7    1
    7     7     8    1
    8     7     9    2
    9     9    10    1
   10     9    11    1
   11    11    12    1
   12    11    13    1
   13    11    14    1
   14    14    15    1
   15    14    16    1
   16    14    17    1
@<TRIPOS>SUBSTRUCTURE
       1 MOL1            1 RESIDUE      1      MOL     
@<SCITEGIC>MOL_PROPERTY
VConf Rank
SciTegic.value.IntegerValue
796

@<SCITEGIC>MOL_PROPERTY
Conf_Id
SciTegic.value.IntegerValue
38

@<SCITEGIC>MOL_PROPERTY
Delta U+W
SciTegic.value.DoubleValue
0.000

@<SCITEGIC>MOL_PROPERTY
U+W
SciTegic.value.DoubleValue
-49.427

@<SCITEGIC>MOL_PROPERTY
Grad RMS
SciTegic.value.DoubleValue
0.000000

@<SCITEGIC>MOL_PROPERTY
U
SciTegic.value.DoubleValue
13.666

@<SCITEGIC>MOL_PROPERTY
W
SciTegic.value.DoubleValue
-63.093

@<SCITEGIC>MOL_PROPERTY
W(PB)
SciTegic.value.DoubleValue
-65.225

@<SCITEGIC>MOL_PROPERTY
W(SA)
SciTegic.value.DoubleValue
2.132

@<SCITEGIC>MOL_PROPERTY
Valence
SciTegic.value.DoubleValue
15.226

@<SCITEGIC>MOL_PROPERTY
Coulomb
SciTegic.value.DoubleValue
-1.822

@<SCITEGIC>MOL_PROPERTY
VdW
SciTegic.value.DoubleValue
0.261

@<SCITEGIC>MOL_PROPERTY
VdW6
SciTegic.value.DoubleValue
-4.165

@<SCITEGIC>MOL_PROPERTY
VdW12
SciTegic.value.DoubleValue
4.426

@<SCITEGIC>MOL_PROPERTY
Bond
SciTegic.value.DoubleValue
0.044

@<SCITEGIC>MOL_PROPERTY
Angle
SciTegic.value.DoubleValue
2.229

@<SCITEGIC>MOL_PROPERTY
Pdih
SciTegic.value.DoubleValue
12.953

@<SCITEGIC>MOL_PROPERTY
Idih
SciTegic.value.DoubleValue
0.000

@<SCITEGIC>MOL_PROPERTY
Tether
SciTegic.value.DoubleValue
0.000

@<TRIPOS>MOLECULE
guest-s20_confgen4.mol2 : confsearch ligand conformer 797
          17          16           1
SMALL
USER_CHARGES
 
@<TRIPOS>ATOM
       1    C1      17.474987   21.055364   22.165637 C.2        1 MOL1         0.6132
       2    O1      17.268560   21.418995   23.306680 O.co2      1 MOL1        -0.6749
       3    O2      16.592492   20.753725   21.386422 O.co2      1 MOL1        -0.6749
       4    C2      18.917117   20.977930   21.682040 C.3        1 MOL1        -0.1955
       5    H1      19.522560   21.652897   22.298885 H          1 MOL1         0.0733
       6    H2      18.948042   21.365804   20.657293 H          1 MOL1         0.0733
       7    C3      19.467766   19.565127   21.720966 C.2        1 MOL1        -0.1395
       8    H3      19.018551   18.871188   21.011138 H          1 MOL1         0.0816
       9    C4      20.432001   19.157437   22.551790 C.2        1 MOL1        -0.1394
      10    H4      20.878535   19.851066   23.263511 H          1 MOL1         0.0816
      11    C5      20.977073   17.747256   22.591906 C.3        1 MOL1        -0.1826
      12    H5      21.008115   17.391251   23.630573 H          1 MOL1         0.0736
      13    H6      20.314462   17.063292   22.043855 H          1 MOL1         0.0736
      14    C6      22.391875   17.682839   21.984250 C.3        1 MOL1        -0.2882
      15    H7      23.085676   18.329236   22.537640 H          1 MOL1         0.0749
      16    H8      22.782350   16.657385   22.016797 H          1 MOL1         0.0749
      17    H9      22.381362   18.010313   20.936276 H          1 MOL1         0.0749
@<TRIPOS>BOND
    1     1     2    1
    2     1     3    2
    3     1     4    1
    4     4     5    1
    5     4     6    1
    6     4     7    1
    7     7     8    1
    8     7     9    2
    9     9    10    1
   10     9    11    1
   11    11    12    1
   12    11    13    1
   13    11    14    1
   14    14    15    1
   15    14    16    1
   16    14    17    1
@<TRIPOS>SUBSTRUCTURE
       1 MOL1            1 RESIDUE      1      MOL     
@<SCITEGIC>MOL_PROPERTY
VConf Rank
SciTegic.value.IntegerValue
797

@<SCITEGIC>MOL_PROPERTY
Conf_Id
SciTegic.value.IntegerValue
35

@<SCITEGIC>MOL_PROPERTY
Delta U+W
SciTegic.value.DoubleValue
-0.102

@<SCITEGIC>MOL_PROPERTY
U+W
SciTegic.value.DoubleValue
-49.529

@<SCITEGIC>MOL_PROPERTY
Grad RMS
SciTegic.value.DoubleValue
0.000000

@<SCITEGIC>MOL_PROPERTY
U
SciTegic.value.DoubleValue
13.666

@<SCITEGIC>MOL_PROPERTY
W
SciTegic.value.DoubleValue
-63.195

@<SCITEGIC>MOL_PROPERTY
W(PB)
SciTegic.value.DoubleValue
-65.299

@<SCITEGIC>MOL_PROPERTY
W(SA)
SciTegic.value.DoubleValue
2.103

@<SCITEGIC>MOL_PROPERTY
Valence
SciTegic.value.DoubleValue
15.226

@<SCITEGIC>MOL_PROPERTY
Coulomb
SciTegic.value.DoubleValue
-1.822

@<SCITEGIC>MOL_PROPERTY
VdW
SciTegic.value.DoubleValue
0.261

@<SCITEGIC>MOL_PROPERTY
VdW6
SciTegic.value.DoubleValue
-4.165

@<SCITEGIC>MOL_PROPERTY
VdW12
SciTegic.value.DoubleValue
4.426

@<SCITEGIC>MOL_PROPERTY
Bond
SciTegic.value.DoubleValue
0.044

@<SCITEGIC>MOL_PROPERTY
Angle
SciTegic.value.DoubleValue
2.229

@<SCITEGIC>MOL_PROPERTY
Pdih
SciTegic.value.DoubleValue
12.953

@<SCITEGIC>MOL_PROPERTY
Idih
SciTegic.value.DoubleValue
0.000

@<SCITEGIC>MOL_PROPERTY
Tether
SciTegic.value.DoubleValue
0.000

@<TRIPOS>MOLECULE
guest-s20_confgen4.mol2 : confsearch ligand conformer 798
          17          16           1
SMALL
USER_CHARGES
 
@<TRIPOS>ATOM
       1    C1      18.362185   21.377014   21.968897 C.2        1 MOL1         0.6132
       2    O1      18.383433   21.812571   20.834521 O.co2      1 MOL1        -0.6749
       3    O2      17.338812   21.179722   22.593902 O.co2      1 MOL1        -0.6749
       4    C2      19.691959   21.071369   22.645637 C.3        1 MOL1        -0.1955
       5    H1      19.542057   21.113834   23.731138 H          1 MOL1         0.0733
       6    H2      20.391514   21.874693   22.387176 H          1 MOL1         0.0733
       7    C3      20.262038   19.729648   22.225874 C.2        1 MOL1        -0.1395
       8    H3      20.580653   19.676619   21.186276 H          1 MOL1         0.0816
       9    C4      20.371751   18.675562   23.044151 C.2        1 MOL1        -0.1394
      10    H4      20.038063   18.764952   24.077469 H          1 MOL1         0.0816
      11    C5      20.927389   17.306265   22.690766 C.3        1 MOL1        -0.1826
      12    H5      21.763917   17.076031   23.364353 H          1 MOL1         0.0736
      13    H6      20.162311   16.546420   22.900079 H          1 MOL1         0.0736
      14    C6      21.401702   17.152464   21.228781 C.3        1 MOL1        -0.2882
      15    H7      22.207147   17.862329   20.999104 H          1 MOL1         0.0749
      16    H8      21.786554   16.139436   21.053588 H          1 MOL1         0.0749
      17    H9      20.575379   17.324191   20.526507 H          1 MOL1         0.0749
@<TRIPOS>BOND
    1     1     2    1
    2     1     3    2
    3     1     4    1
    4     4     5    1
    5     4     6    1
    6     4     7    1
    7     7     8    1
    8     7     9    2
    9     9    10    1
   10     9    11    1
   11    11    12    1
   12    11    13    1
   13    11    14    1
   14    14    15    1
   15    14    16    1
   16    14    17    1
@<TRIPOS>SUBSTRUCTURE
       1 MOL1            1 RESIDUE      1      MOL     
@<SCITEGIC>MOL_PROPERTY
VConf Rank
SciTegic.value.IntegerValue
798

@<SCITEGIC>MOL_PROPERTY
Conf_Id
SciTegic.value.IntegerValue
19

@<SCITEGIC>MOL_PROPERTY
Delta U+W
SciTegic.value.DoubleValue
-0.496

@<SCITEGIC>MOL_PROPERTY
U+W
SciTegic.value.DoubleValue
-49.923

@<SCITEGIC>MOL_PROPERTY
Grad RMS
SciTegic.value.DoubleValue
0.000000

@<SCITEGIC>MOL_PROPERTY
U
SciTegic.value.DoubleValue
13.863

@<SCITEGIC>MOL_PROPERTY
W
SciTegic.value.DoubleValue
-63.786

@<SCITEGIC>MOL_PROPERTY
W(PB)
SciTegic.value.DoubleValue
-65.856

@<SCITEGIC>MOL_PROPERTY
W(SA)
SciTegic.value.DoubleValue
2.070

@<SCITEGIC>MOL_PROPERTY
Valence
SciTegic.value.DoubleValue
14.117

@<SCITEGIC>MOL_PROPERTY
Coulomb
SciTegic.value.DoubleValue
-1.228

@<SCITEGIC>MOL_PROPERTY
VdW
SciTegic.value.DoubleValue
0.974

@<SCITEGIC>MOL_PROPERTY
VdW6
SciTegic.value.DoubleValue
-4.885

@<SCITEGIC>MOL_PROPERTY
VdW12
SciTegic.value.DoubleValue
5.859

@<SCITEGIC>MOL_PROPERTY
Bond
SciTegic.value.DoubleValue
0.094

@<SCITEGIC>MOL_PROPERTY
Angle
SciTegic.value.DoubleValue
2.818

@<SCITEGIC>MOL_PROPERTY
Pdih
SciTegic.value.DoubleValue
11.205

@<SCITEGIC>MOL_PROPERTY
Idih
SciTegic.value.DoubleValue
0.000

@<SCITEGIC>MOL_PROPERTY
Tether
SciTegic.value.DoubleValue
0.000

@<TRIPOS>MOLECULE
guest-s20_confgen4.mol2 : confsearch ligand conformer 799
          17          16           1
SMALL
USER_CHARGES
 
@<TRIPOS>ATOM
       1    C1      17.368972   18.387605   22.831744 C.2        1 MOL1         0.6132
       2    O1      17.494856   17.508256   23.661028 O.co2      1 MOL1        -0.6749
       3    O2      16.599190   19.320229   22.952778 O.co2      1 MOL1        -0.6749
       4    C2      18.213039   18.313215   21.566104 C.3        1 MOL1        -0.1955
       5    H1      17.572182   18.586782   20.719967 H          1 MOL1         0.0733
       6    H2      18.514981   17.269714   21.415798 H          1 MOL1         0.0733
       7    C3      19.422668   19.226803   21.620130 C.2        1 MOL1        -0.1395
       8    H3      19.200456   20.293477   21.613614 H          1 MOL1         0.0816
       9    C4      20.686681   18.796848   21.680353 C.2        1 MOL1        -0.1394
      10    H4      20.908046   17.730115   21.692044 H          1 MOL1         0.0816
      11    C5      21.891307   19.709532   21.737113 C.3        1 MOL1        -0.1826
      12    H5      22.638651   19.383687   21.001025 H          1 MOL1         0.0736
      13    H6      21.608776   20.736241   21.466461 H          1 MOL1         0.0736
      14    C6      22.520835   19.708078   23.143769 C.3        1 MOL1        -0.2882
      15    H7      22.848598   18.698707   23.425135 H          1 MOL1         0.0749
      16    H8      23.394153   20.372240   23.179446 H          1 MOL1         0.0749
      17    H9      21.798185   20.054479   23.894411 H          1 MOL1         0.0749
@<TRIPOS>BOND
    1     1     2    1
    2     1     3    2
    3     1     4    1
    4     4     5    1
    5     4     6    1
    6     4     7    1
    7     7     8    1
    8     7     9    2
    9     9    10    1
   10     9    11    1
   11    11    12    1
   12    11    13    1
   13    11    14    1
   14    14    15    1
   15    14    16    1
   16    14    17    1
@<TRIPOS>SUBSTRUCTURE
       1 MOL1            1 RESIDUE      1      MOL     
@<SCITEGIC>MOL_PROPERTY
VConf Rank
SciTegic.value.IntegerValue
799

@<SCITEGIC>MOL_PROPERTY
Conf_Id
SciTegic.value.IntegerValue
7

@<SCITEGIC>MOL_PROPERTY
Delta U+W
SciTegic.value.DoubleValue
-0.041

@<SCITEGIC>MOL_PROPERTY
U+W
SciTegic.value.DoubleValue
-49.468

@<SCITEGIC>MOL_PROPERTY
Grad RMS
SciTegic.value.DoubleValue
0.000000

@<SCITEGIC>MOL_PROPERTY
U
SciTegic.value.DoubleValue
14.121

@<SCITEGIC>MOL_PROPERTY
W
SciTegic.value.DoubleValue
-63.589

@<SCITEGIC>MOL_PROPERTY
W(PB)
SciTegic.value.DoubleValue
-65.660

@<SCITEGIC>MOL_PROPERTY
W(SA)
SciTegic.value.DoubleValue
2.071

@<SCITEGIC>MOL_PROPERTY
Valence
SciTegic.value.DoubleValue
15.230

@<SCITEGIC>MOL_PROPERTY
Coulomb
SciTegic.value.DoubleValue
-1.333

@<SCITEGIC>MOL_PROPERTY
VdW
SciTegic.value.DoubleValue
0.224

@<SCITEGIC>MOL_PROPERTY
VdW6
SciTegic.value.DoubleValue
-4.212

@<SCITEGIC>MOL_PROPERTY
VdW12
SciTegic.value.DoubleValue
4.436

@<SCITEGIC>MOL_PROPERTY
Bond
SciTegic.value.DoubleValue
0.044

@<SCITEGIC>MOL_PROPERTY
Angle
SciTegic.value.DoubleValue
2.230

@<SCITEGIC>MOL_PROPERTY
Pdih
SciTegic.value.DoubleValue
12.956

@<SCITEGIC>MOL_PROPERTY
Idih
SciTegic.value.DoubleValue
0.000

@<SCITEGIC>MOL_PROPERTY
Tether
SciTegic.value.DoubleValue
0.000

@<TRIPOS>MOLECULE
guest-s20_confgen4.mol2 : confsearch ligand conformer 800
          17          16           1
SMALL
USER_CHARGES
 
@<TRIPOS>ATOM
       1    C1      21.143604   17.990211   24.491985 C.2        1 MOL1         0.6132
       2    O1      20.908628   16.830128   24.216328 O.co2      1 MOL1        -0.6749
       3    O2      20.789155   18.519267   25.527141 O.co2      1 MOL1        -0.6749
       4    C2      21.950886   18.819196   23.497673 C.3        1 MOL1        -0.1955
       5    H1      22.648918   18.145697   22.986871 H          1 MOL1         0.0733
       6    H2      22.571283   19.518938   24.069677 H          1 MOL1         0.0733
       7    C3      21.135104   19.586025   22.466484 C.2        1 MOL1        -0.1395
       8    H3      21.730787   20.171034   21.766862 H          1 MOL1         0.0816
       9    C4      19.800803   19.589438   22.363409 C.2        1 MOL1        -0.1394
      10    H4      19.181859   19.012500   23.049546 H          1 MOL1         0.0816
      11    C5      19.036813   20.372009   21.318497 C.3        1 MOL1        -0.1826
      12    H5      18.218628   20.927512   21.796523 H          1 MOL1         0.0736
      13    H6      19.688493   21.117972   20.843097 H          1 MOL1         0.0736
      14    C6      18.460015   19.436450   20.238186 C.3        1 MOL1        -0.2882
      15    H7      17.905626   20.009359   19.483541 H          1 MOL1         0.0749
      16    H8      19.263117   18.888366   19.728062 H          1 MOL1         0.0749
      17    H9      17.773686   18.702969   20.681373 H          1 MOL1         0.0749
@<TRIPOS>BOND
    1     1     2    1
    2     1     3    2
    3     1     4    1
    4     4     5    1
    5     4     6    1
    6     4     7    1
    7     7     8    1
    8     7     9    2
    9     9    10    1
   10     9    11    1
   11    11    12    1
   12    11    13    1
   13    11    14    1
   14    14    15    1
   15    14    16    1
   16    14    17    1
@<TRIPOS>SUBSTRUCTURE
       1 MOL1            1 RESIDUE      1      MOL     
@<SCITEGIC>MOL_PROPERTY
VConf Rank
SciTegic.value.IntegerValue
800

@<SCITEGIC>MOL_PROPERTY
Conf_Id
SciTegic.value.IntegerValue
39

@<SCITEGIC>MOL_PROPERTY
Delta U+W
SciTegic.value.DoubleValue
-0.422

@<SCITEGIC>MOL_PROPERTY
U+W
SciTegic.value.DoubleValue
-49.849

@<SCITEGIC>MOL_PROPERTY
Grad RMS
SciTegic.value.DoubleValue
0.000000

@<SCITEGIC>MOL_PROPERTY
U
SciTegic.value.DoubleValue
14.465

@<SCITEGIC>MOL_PROPERTY
W
SciTegic.value.DoubleValue
-64.314

@<SCITEGIC>MOL_PROPERTY
W(PB)
SciTegic.value.DoubleValue
-66.406

@<SCITEGIC>MOL_PROPERTY
W(SA)
SciTegic.value.DoubleValue
2.093

@<SCITEGIC>MOL_PROPERTY
Valence
SciTegic.value.DoubleValue
14.072

@<SCITEGIC>MOL_PROPERTY
Coulomb
SciTegic.value.DoubleValue
-0.199

@<SCITEGIC>MOL_PROPERTY
VdW
SciTegic.value.DoubleValue
0.592

@<SCITEGIC>MOL_PROPERTY
VdW6
SciTegic.value.DoubleValue
-5.019

@<SCITEGIC>MOL_PROPERTY
VdW12
SciTegic.value.DoubleValue
5.611

@<SCITEGIC>MOL_PROPERTY
Bond
SciTegic.value.DoubleValue
0.085

@<SCITEGIC>MOL_PROPERTY
Angle
SciTegic.value.DoubleValue
2.748

@<SCITEGIC>MOL_PROPERTY
Pdih
SciTegic.value.DoubleValue
11.238

@<SCITEGIC>MOL_PROPERTY
Idih
SciTegic.value.DoubleValue
0.001

@<SCITEGIC>MOL_PROPERTY
Tether
SciTegic.value.DoubleValue
0.000

@<TRIPOS>MOLECULE
guest-s20_confgen4.mol2 : confsearch ligand conformer 801
          17          16           1
SMALL
USER_CHARGES
 
@<TRIPOS>ATOM
       1    C1      17.159272   20.413428   22.231956 C.2        1 MOL1         0.6132
       2    O1      17.011668   21.475312   22.804299 O.co2      1 MOL1        -0.6749
       3    O2      16.378643   19.486568   22.323435 O.co2      1 MOL1        -0.6749
       4    C2      18.387308   20.238833   21.348186 C.3        1 MOL1        -0.1955
       5    H1      18.538357   21.173693   20.796164 H          1 MOL1         0.0733
       6    H2      18.168888   19.460477   20.607176 H          1 MOL1         0.0733
       7    C3      19.632252   19.897303   22.144564 C.2        1 MOL1        -0.1395
       8    H3      20.004794   20.692872   22.789143 H          1 MOL1         0.0816
       9    C4      20.257600   18.717323   22.091525 C.2        1 MOL1        -0.1394
      10    H4      19.882818   17.921220   21.449015 H          1 MOL1         0.0816
      11    C5      21.496708   18.377274   22.889209 C.3        1 MOL1        -0.1826
      12    H5      21.655663   19.116633   23.686268 H          1 MOL1         0.0736
      13    H6      21.364479   17.405029   23.382958 H          1 MOL1         0.0736
      14    C6      22.742457   18.328189   21.983250 C.3        1 MOL1        -0.2882
      15    H7      22.909989   19.298706   21.497831 H          1 MOL1         0.0749
      16    H8      23.638192   18.080399   22.567497 H          1 MOL1         0.0749
      17    H9      22.626625   17.568849   21.198766 H          1 MOL1         0.0749
@<TRIPOS>BOND
    1     1     2    1
    2     1     3    2
    3     1     4    1
    4     4     5    1
    5     4     6    1
    6     4     7    1
    7     7     8    1
    8     7     9    2
    9     9    10    1
   10     9    11    1
   11    11    12    1
   12    11    13    1
   13    11    14    1
   14    14    15    1
   15    14    16    1
   16    14    17    1
@<TRIPOS>SUBSTRUCTURE
       1 MOL1            1 RESIDUE      1      MOL     
@<SCITEGIC>MOL_PROPERTY
VConf Rank
SciTegic.value.IntegerValue
801

@<SCITEGIC>MOL_PROPERTY
Conf_Id
SciTegic.value.IntegerValue
38

@<SCITEGIC>MOL_PROPERTY
Delta U+W
SciTegic.value.DoubleValue
0.000

@<SCITEGIC>MOL_PROPERTY
U+W
SciTegic.value.DoubleValue
-49.427

@<SCITEGIC>MOL_PROPERTY
Grad RMS
SciTegic.value.DoubleValue
0.000000

@<SCITEGIC>MOL_PROPERTY
U
SciTegic.value.DoubleValue
13.666

@<SCITEGIC>MOL_PROPERTY
W
SciTegic.value.DoubleValue
-63.093

@<SCITEGIC>MOL_PROPERTY
W(PB)
SciTegic.value.DoubleValue
-65.225

@<SCITEGIC>MOL_PROPERTY
W(SA)
SciTegic.value.DoubleValue
2.132

@<SCITEGIC>MOL_PROPERTY
Valence
SciTegic.value.DoubleValue
15.226

@<SCITEGIC>MOL_PROPERTY
Coulomb
SciTegic.value.DoubleValue
-1.822

@<SCITEGIC>MOL_PROPERTY
VdW
SciTegic.value.DoubleValue
0.261

@<SCITEGIC>MOL_PROPERTY
VdW6
SciTegic.value.DoubleValue
-4.165

@<SCITEGIC>MOL_PROPERTY
VdW12
SciTegic.value.DoubleValue
4.426

@<SCITEGIC>MOL_PROPERTY
Bond
SciTegic.value.DoubleValue
0.044

@<SCITEGIC>MOL_PROPERTY
Angle
SciTegic.value.DoubleValue
2.229

@<SCITEGIC>MOL_PROPERTY
Pdih
SciTegic.value.DoubleValue
12.953

@<SCITEGIC>MOL_PROPERTY
Idih
SciTegic.value.DoubleValue
0.000

@<SCITEGIC>MOL_PROPERTY
Tether
SciTegic.value.DoubleValue
0.000

@<TRIPOS>MOLECULE
guest-s20_confgen4.mol2 : confsearch ligand conformer 802
          17          16           1
SMALL
USER_CHARGES
 
@<TRIPOS>ATOM
       1    C1      17.792420   18.113651   20.254532 C.2        1 MOL1         0.6132
       2    O1      18.244062   17.903125   19.146147 O.co2      1 MOL1        -0.6749
       3    O2      16.670292   18.535589   20.453925 O.co2      1 MOL1        -0.6749
       4    C2      18.677207   17.828753   21.461010 C.3        1 MOL1        -0.1955
       5    H1      19.433435   17.091585   21.165472 H          1 MOL1         0.0733
       6    H2      18.053766   17.357895   22.229854 H          1 MOL1         0.0733
       7    C3      19.327277   19.082828   22.013685 C.2        1 MOL1        -0.1395
       8    H3      18.644633   19.795960   22.474814 H          1 MOL1         0.0816
       9    C4      20.638324   19.336323   21.957787 C.2        1 MOL1        -0.1394
      10    H4      21.319962   18.624246   21.493700 H          1 MOL1         0.0816
      11    C5      21.284270   20.589184   22.505888 C.3        1 MOL1        -0.1826
      12    H5      21.961324   21.016559   21.753903 H          1 MOL1         0.0736
      13    H6      20.523477   21.353591   22.715875 H          1 MOL1         0.0736
      14    C6      22.073130   20.287129   23.794889 C.3        1 MOL1        -0.2882
      15    H7      22.866987   19.552775   23.605304 H          1 MOL1         0.0749
      16    H8      22.540093   21.199773   24.187460 H          1 MOL1         0.0749
      17    H9      21.410867   19.882139   24.571414 H          1 MOL1         0.0749
@<TRIPOS>BOND
    1     1     2    1
    2     1     3    2
    3     1     4    1
    4     4     5    1
    5     4     6    1
    6     4     7    1
    7     7     8    1
    8     7     9    2
    9     9    10    1
   10     9    11    1
   11    11    12    1
   12    11    13    1
   13    11    14    1
   14    14    15    1
   15    14    16    1
   16    14    17    1
@<TRIPOS>SUBSTRUCTURE
       1 MOL1            1 RESIDUE      1      MOL     
@<SCITEGIC>MOL_PROPERTY
VConf Rank
SciTegic.value.IntegerValue
802

@<SCITEGIC>MOL_PROPERTY
Conf_Id
SciTegic.value.IntegerValue
35

@<SCITEGIC>MOL_PROPERTY
Delta U+W
SciTegic.value.DoubleValue
-0.102

@<SCITEGIC>MOL_PROPERTY
U+W
SciTegic.value.DoubleValue
-49.529

@<SCITEGIC>MOL_PROPERTY
Grad RMS
SciTegic.value.DoubleValue
0.000000

@<SCITEGIC>MOL_PROPERTY
U
SciTegic.value.DoubleValue
13.666

@<SCITEGIC>MOL_PROPERTY
W
SciTegic.value.DoubleValue
-63.195

@<SCITEGIC>MOL_PROPERTY
W(PB)
SciTegic.value.DoubleValue
-65.299

@<SCITEGIC>MOL_PROPERTY
W(SA)
SciTegic.value.DoubleValue
2.103

@<SCITEGIC>MOL_PROPERTY
Valence
SciTegic.value.DoubleValue
15.226

@<SCITEGIC>MOL_PROPERTY
Coulomb
SciTegic.value.DoubleValue
-1.822

@<SCITEGIC>MOL_PROPERTY
VdW
SciTegic.value.DoubleValue
0.261

@<SCITEGIC>MOL_PROPERTY
VdW6
SciTegic.value.DoubleValue
-4.165

@<SCITEGIC>MOL_PROPERTY
VdW12
SciTegic.value.DoubleValue
4.426

@<SCITEGIC>MOL_PROPERTY
Bond
SciTegic.value.DoubleValue
0.044

@<SCITEGIC>MOL_PROPERTY
Angle
SciTegic.value.DoubleValue
2.229

@<SCITEGIC>MOL_PROPERTY
Pdih
SciTegic.value.DoubleValue
12.953

@<SCITEGIC>MOL_PROPERTY
Idih
SciTegic.value.DoubleValue
0.000

@<SCITEGIC>MOL_PROPERTY
Tether
SciTegic.value.DoubleValue
0.000

@<TRIPOS>MOLECULE
guest-s20_confgen4.mol2 : confsearch ligand conformer 803
          17          16           1
SMALL
USER_CHARGES
 
@<TRIPOS>ATOM
       1    C1      19.789560   22.010105   22.412940 C.2        1 MOL1         0.6132
       2    O1      20.814335   22.555341   22.772836 O.co2      1 MOL1        -0.6749
       3    O2      19.092469   22.420959   21.506236 O.co2      1 MOL1        -0.6749
       4    C2      19.351933   20.748651   23.145682 C.3        1 MOL1        -0.1955
       5    H1      18.268104   20.637957   23.020588 H          1 MOL1         0.0733
       6    H2      19.537012   20.901554   24.215204 H          1 MOL1         0.0733
       7    C3      20.085869   19.512212   22.661987 C.2        1 MOL1        -0.1395
       8    H3      21.147731   19.491646   22.900972 H          1 MOL1         0.0816
       9    C4      19.502637   18.513033   21.988046 C.2        1 MOL1        -0.1394
      10    H4      18.438128   18.570782   21.763172 H          1 MOL1         0.0816
      11    C5      20.175382   17.252102   21.472240 C.3        1 MOL1        -0.1826
      12    H5      19.665862   16.376628   21.897022 H          1 MOL1         0.0736
      13    H6      20.021859   17.184909   20.386682 H          1 MOL1         0.0736
      14    C6      21.686963   17.149649   21.773333 C.3        1 MOL1        -0.2882
      15    H7      21.874783   17.158955   22.855017 H          1 MOL1         0.0749
      16    H8      22.097440   16.215252   21.369057 H          1 MOL1         0.0749
      17    H9      22.236799   17.983385   21.317204 H          1 MOL1         0.0749
@<TRIPOS>BOND
    1     1     2    1
    2     1     3    2
    3     1     4    1
    4     4     5    1
    5     4     6    1
    6     4     7    1
    7     7     8    1
    8     7     9    2
    9     9    10    1
   10     9    11    1
   11    11    12    1
   12    11    13    1
   13    11    14    1
   14    14    15    1
   15    14    16    1
   16    14    17    1
@<TRIPOS>SUBSTRUCTURE
       1 MOL1            1 RESIDUE      1      MOL     
@<SCITEGIC>MOL_PROPERTY
VConf Rank
SciTegic.value.IntegerValue
803

@<SCITEGIC>MOL_PROPERTY
Conf_Id
SciTegic.value.IntegerValue
19

@<SCITEGIC>MOL_PROPERTY
Delta U+W
SciTegic.value.DoubleValue
-0.496

@<SCITEGIC>MOL_PROPERTY
U+W
SciTegic.value.DoubleValue
-49.923

@<SCITEGIC>MOL_PROPERTY
Grad RMS
SciTegic.value.DoubleValue
0.000000

@<SCITEGIC>MOL_PROPERTY
U
SciTegic.value.DoubleValue
13.863

@<SCITEGIC>MOL_PROPERTY
W
SciTegic.value.DoubleValue
-63.786

@<SCITEGIC>MOL_PROPERTY
W(PB)
SciTegic.value.DoubleValue
-65.856

@<SCITEGIC>MOL_PROPERTY
W(SA)
SciTegic.value.DoubleValue
2.070

@<SCITEGIC>MOL_PROPERTY
Valence
SciTegic.value.DoubleValue
14.117

@<SCITEGIC>MOL_PROPERTY
Coulomb
SciTegic.value.DoubleValue
-1.228

@<SCITEGIC>MOL_PROPERTY
VdW
SciTegic.value.DoubleValue
0.974

@<SCITEGIC>MOL_PROPERTY
VdW6
SciTegic.value.DoubleValue
-4.885

@<SCITEGIC>MOL_PROPERTY
VdW12
SciTegic.value.DoubleValue
5.859

@<SCITEGIC>MOL_PROPERTY
Bond
SciTegic.value.DoubleValue
0.094

@<SCITEGIC>MOL_PROPERTY
Angle
SciTegic.value.DoubleValue
2.818

@<SCITEGIC>MOL_PROPERTY
Pdih
SciTegic.value.DoubleValue
11.205

@<SCITEGIC>MOL_PROPERTY
Idih
SciTegic.value.DoubleValue
0.000

@<SCITEGIC>MOL_PROPERTY
Tether
SciTegic.value.DoubleValue
0.000

@<TRIPOS>MOLECULE
guest-s20_confgen4.mol2 : confsearch ligand conformer 804
          17          16           1
SMALL
USER_CHARGES
 
@<TRIPOS>ATOM
       1    C1      18.222505   18.041335   20.255358 C.2        1 MOL1         0.6132
       2    O1      17.985051   19.027933   19.586739 O.co2      1 MOL1        -0.6749
       3    O2      18.459319   16.948295   19.779767 O.co2      1 MOL1        -0.6749
       4    C2      18.212781   18.177232   21.772350 C.3        1 MOL1        -0.1955
       5    H1      17.705244   17.297156   22.183882 H          1 MOL1         0.0733
       6    H2      17.603934   19.050786   22.034767 H          1 MOL1         0.0733
       7    C3      19.608822   18.292965   22.354105 C.2        1 MOL1        -0.1395
       8    H3      20.224270   17.397993   22.267713 H          1 MOL1         0.0816
       9    C4      20.092506   19.396472   22.932496 C.2        1 MOL1        -0.1394
      10    H4      19.478416   20.292748   23.013995 H          1 MOL1         0.0816
      11    C5      21.485894   19.510710   23.509348 C.3        1 MOL1        -0.1826
      12    H5      21.436076   19.947856   24.515799 H          1 MOL1         0.0736
      13    H6      21.939025   18.515864   23.619631 H          1 MOL1         0.0736
      14    C6      22.385695   20.384225   22.613624 C.3        1 MOL1        -0.2882
      15    H7      21.976115   21.398319   22.517275 H          1 MOL1         0.0749
      16    H8      23.395594   20.463390   23.036593 H          1 MOL1         0.0749
      17    H9      22.470329   19.952728   21.607479 H          1 MOL1         0.0749
@<TRIPOS>BOND
    1     1     2    1
    2     1     3    2
    3     1     4    1
    4     4     5    1
    5     4     6    1
    6     4     7    1
    7     7     8    1
    8     7     9    2
    9     9    10    1
   10     9    11    1
   11    11    12    1
   12    11    13    1
   13    11    14    1
   14    14    15    1
   15    14    16    1
   16    14    17    1
@<TRIPOS>SUBSTRUCTURE
       1 MOL1            1 RESIDUE      1      MOL     
@<SCITEGIC>MOL_PROPERTY
VConf Rank
SciTegic.value.IntegerValue
804

@<SCITEGIC>MOL_PROPERTY
Conf_Id
SciTegic.value.IntegerValue
7

@<SCITEGIC>MOL_PROPERTY
Delta U+W
SciTegic.value.DoubleValue
-0.041

@<SCITEGIC>MOL_PROPERTY
U+W
SciTegic.value.DoubleValue
-49.468

@<SCITEGIC>MOL_PROPERTY
Grad RMS
SciTegic.value.DoubleValue
0.000000

@<SCITEGIC>MOL_PROPERTY
U
SciTegic.value.DoubleValue
14.121

@<SCITEGIC>MOL_PROPERTY
W
SciTegic.value.DoubleValue
-63.589

@<SCITEGIC>MOL_PROPERTY
W(PB)
SciTegic.value.DoubleValue
-65.660

@<SCITEGIC>MOL_PROPERTY
W(SA)
SciTegic.value.DoubleValue
2.071

@<SCITEGIC>MOL_PROPERTY
Valence
SciTegic.value.DoubleValue
15.230

@<SCITEGIC>MOL_PROPERTY
Coulomb
SciTegic.value.DoubleValue
-1.333

@<SCITEGIC>MOL_PROPERTY
VdW
SciTegic.value.DoubleValue
0.224

@<SCITEGIC>MOL_PROPERTY
VdW6
SciTegic.value.DoubleValue
-4.212

@<SCITEGIC>MOL_PROPERTY
VdW12
SciTegic.value.DoubleValue
4.436

@<SCITEGIC>MOL_PROPERTY
Bond
SciTegic.value.DoubleValue
0.044

@<SCITEGIC>MOL_PROPERTY
Angle
SciTegic.value.DoubleValue
2.230

@<SCITEGIC>MOL_PROPERTY
Pdih
SciTegic.value.DoubleValue
12.956

@<SCITEGIC>MOL_PROPERTY
Idih
SciTegic.value.DoubleValue
0.000

@<SCITEGIC>MOL_PROPERTY
Tether
SciTegic.value.DoubleValue
0.000

@<TRIPOS>MOLECULE
guest-s20_confgen4.mol2 : confsearch ligand conformer 805
          17          16           1
SMALL
USER_CHARGES
 
@<TRIPOS>ATOM
       1    C1      19.043539   17.713941   24.270388 C.2        1 MOL1         0.6132
       2    O1      19.027106   18.504214   25.193530 O.co2      1 MOL1        -0.6749
       3    O2      19.566388   16.618628   24.333628 O.co2      1 MOL1        -0.6749
       4    C2      18.346267   18.106630   22.971471 C.3        1 MOL1        -0.1955
       5    H1      17.495880   18.749412   23.227285 H          1 MOL1         0.0733
       6    H2      17.916441   17.198342   22.533314 H          1 MOL1         0.0733
       7    C3      19.221875   18.805271   21.940894 C.2        1 MOL1        -0.1395
       8    H3      18.704537   19.076630   21.021507 H          1 MOL1         0.0816
       9    C4      20.520476   19.097184   22.080235 C.2        1 MOL1        -0.1394
      10    H4      21.061200   18.837731   22.989650 H          1 MOL1         0.0816
      11    C5      21.347539   19.793192   21.022180 C.3        1 MOL1        -0.1826
      12    H5      22.290074   19.249570   20.871772 H          1 MOL1         0.0736
      13    H6      20.822649   19.786771   20.056984 H          1 MOL1         0.0736
      14    C6      21.652915   21.248541   21.426829 C.3        1 MOL1        -0.2882
      15    H7      22.254310   21.748200   20.656294 H          1 MOL1         0.0749
      16    H8      20.724333   21.819589   21.558108 H          1 MOL1         0.0749
      17    H9      22.211879   21.283226   22.371188 H          1 MOL1         0.0749
@<TRIPOS>BOND
    1     1     2    1
    2     1     3    2
    3     1     4    1
    4     4     5    1
    5     4     6    1
    6     4     7    1
    7     7     8    1
    8     7     9    2
    9     9    10    1
   10     9    11    1
   11    11    12    1
   12    11    13    1
   13    11    14    1
   14    14    15    1
   15    14    16    1
   16    14    17    1
@<TRIPOS>SUBSTRUCTURE
       1 MOL1            1 RESIDUE      1      MOL     
@<SCITEGIC>MOL_PROPERTY
VConf Rank
SciTegic.value.IntegerValue
805

@<SCITEGIC>MOL_PROPERTY
Conf_Id
SciTegic.value.IntegerValue
39

@<SCITEGIC>MOL_PROPERTY
Delta U+W
SciTegic.value.DoubleValue
-0.422

@<SCITEGIC>MOL_PROPERTY
U+W
SciTegic.value.DoubleValue
-49.849

@<SCITEGIC>MOL_PROPERTY
Grad RMS
SciTegic.value.DoubleValue
0.000000

@<SCITEGIC>MOL_PROPERTY
U
SciTegic.value.DoubleValue
14.465

@<SCITEGIC>MOL_PROPERTY
W
SciTegic.value.DoubleValue
-64.314

@<SCITEGIC>MOL_PROPERTY
W(PB)
SciTegic.value.DoubleValue
-66.406

@<SCITEGIC>MOL_PROPERTY
W(SA)
SciTegic.value.DoubleValue
2.093

@<SCITEGIC>MOL_PROPERTY
Valence
SciTegic.value.DoubleValue
14.072

@<SCITEGIC>MOL_PROPERTY
Coulomb
SciTegic.value.DoubleValue
-0.199

@<SCITEGIC>MOL_PROPERTY
VdW
SciTegic.value.DoubleValue
0.592

@<SCITEGIC>MOL_PROPERTY
VdW6
SciTegic.value.DoubleValue
-5.019

@<SCITEGIC>MOL_PROPERTY
VdW12
SciTegic.value.DoubleValue
5.611

@<SCITEGIC>MOL_PROPERTY
Bond
SciTegic.value.DoubleValue
0.085

@<SCITEGIC>MOL_PROPERTY
Angle
SciTegic.value.DoubleValue
2.748

@<SCITEGIC>MOL_PROPERTY
Pdih
SciTegic.value.DoubleValue
11.238

@<SCITEGIC>MOL_PROPERTY
Idih
SciTegic.value.DoubleValue
0.001

@<SCITEGIC>MOL_PROPERTY
Tether
SciTegic.value.DoubleValue
0.000

@<TRIPOS>MOLECULE
guest-s20_confgen4.mol2 : confsearch ligand conformer 806
          17          16           1
SMALL
USER_CHARGES
 
@<TRIPOS>ATOM
       1    C1      23.267579   19.436562   22.227010 C.2        1 MOL1         0.6132
       2    O1      23.856993   19.346801   21.168004 O.co2      1 MOL1        -0.6749
       3    O2      23.652930   18.918484   23.256533 O.co2      1 MOL1        -0.6749
       4    C2      21.978912   20.247430   22.264912 C.3        1 MOL1        -0.1955
       5    H1      22.130238   21.145552   21.655006 H          1 MOL1         0.0733
       6    H2      21.815280   20.583628   23.295851 H          1 MOL1         0.0733
       7    C3      20.784942   19.464874   21.752283 C.2        1 MOL1        -0.1395
       8    H3      20.802864   19.233488   20.687698 H          1 MOL1         0.0816
       9    C4      19.764078   19.065681   22.516945 C.2        1 MOL1        -0.1394
      10    H4      19.748238   19.294819   23.581982 H          1 MOL1         0.0816
      11    C5      18.576178   18.282168   22.004770 C.3        1 MOL1        -0.1826
      12    H5      18.785940   17.875030   21.006041 H          1 MOL1         0.0736
      13    H6      18.387620   17.422714   22.662280 H          1 MOL1         0.0736
      14    C6      17.315521   19.166303   21.940661 C.3        1 MOL1        -0.2882
      15    H7      17.471715   20.019799   21.267795 H          1 MOL1         0.0749
      16    H8      16.456851   18.592185   21.568963 H          1 MOL1         0.0749
      17    H9      17.059833   19.556589   22.934507 H          1 MOL1         0.0749
@<TRIPOS>BOND
    1     1     2    1
    2     1     3    2
    3     1     4    1
    4     4     5    1
    5     4     6    1
    6     4     7    1
    7     7     8    1
    8     7     9    2
    9     9    10    1
   10     9    11    1
   11    11    12    1
   12    11    13    1
   13    11    14    1
   14    14    15    1
   15    14    16    1
   16    14    17    1
@<TRIPOS>SUBSTRUCTURE
       1 MOL1            1 RESIDUE      1      MOL     
@<SCITEGIC>MOL_PROPERTY
VConf Rank
SciTegic.value.IntegerValue
806

@<SCITEGIC>MOL_PROPERTY
Conf_Id
SciTegic.value.IntegerValue
38

@<SCITEGIC>MOL_PROPERTY
Delta U+W
SciTegic.value.DoubleValue
0.000

@<SCITEGIC>MOL_PROPERTY
U+W
SciTegic.value.DoubleValue
-49.427

@<SCITEGIC>MOL_PROPERTY
Grad RMS
SciTegic.value.DoubleValue
0.000000

@<SCITEGIC>MOL_PROPERTY
U
SciTegic.value.DoubleValue
13.666

@<SCITEGIC>MOL_PROPERTY
W
SciTegic.value.DoubleValue
-63.093

@<SCITEGIC>MOL_PROPERTY
W(PB)
SciTegic.value.DoubleValue
-65.225

@<SCITEGIC>MOL_PROPERTY
W(SA)
SciTegic.value.DoubleValue
2.132

@<SCITEGIC>MOL_PROPERTY
Valence
SciTegic.value.DoubleValue
15.226

@<SCITEGIC>MOL_PROPERTY
Coulomb
SciTegic.value.DoubleValue
-1.822

@<SCITEGIC>MOL_PROPERTY
VdW
SciTegic.value.DoubleValue
0.261

@<SCITEGIC>MOL_PROPERTY
VdW6
SciTegic.value.DoubleValue
-4.165

@<SCITEGIC>MOL_PROPERTY
VdW12
SciTegic.value.DoubleValue
4.426

@<SCITEGIC>MOL_PROPERTY
Bond
SciTegic.value.DoubleValue
0.044

@<SCITEGIC>MOL_PROPERTY
Angle
SciTegic.value.DoubleValue
2.229

@<SCITEGIC>MOL_PROPERTY
Pdih
SciTegic.value.DoubleValue
12.953

@<SCITEGIC>MOL_PROPERTY
Idih
SciTegic.value.DoubleValue
0.000

@<SCITEGIC>MOL_PROPERTY
Tether
SciTegic.value.DoubleValue
0.000

@<TRIPOS>MOLECULE
guest-s20_confgen4.mol2 : confsearch ligand conformer 807
          17          16           1
SMALL
USER_CHARGES
 
@<TRIPOS>ATOM
       1    C1      22.120369   17.770555   24.011965 C.2        1 MOL1         0.6132
       2    O1      22.661927   16.876531   23.392082 O.co2      1 MOL1        -0.6749
       3    O2      21.802205   17.680411   25.181412 O.co2      1 MOL1        -0.6749
       4    C2      21.828480   19.077920   23.287258 C.3        1 MOL1        -0.1955
       5    H1      22.519274   19.162024   22.439690 H          1 MOL1         0.0733
       6    H2      22.061247   19.900434   23.973404 H          1 MOL1         0.0733
       7    C3      20.386999   19.176898   22.825650 C.2        1 MOL1        -0.1395
       8    H3      19.648383   19.261675   23.622180 H          1 MOL1         0.0816
       9    C4      20.005822   19.162208   21.544746 C.2        1 MOL1        -0.1394
      10    H4      20.744675   19.074208   20.748874 H          1 MOL1         0.0816
      11    C5      18.567661   19.257020   21.086460 C.3        1 MOL1        -0.1826
      12    H5      18.361946   18.471923   20.346300 H          1 MOL1         0.0736
      13    H6      17.883626   19.083436   21.928591 H          1 MOL1         0.0736
      14    C6      18.273698   20.637080   20.466718 C.3        1 MOL1        -0.2882
      15    H7      18.918331   20.821390   19.597290 H          1 MOL1         0.0749
      16    H8      17.228977   20.699627   20.135459 H          1 MOL1         0.0749
      17    H9      18.447906   21.437765   21.197577 H          1 MOL1         0.0749
@<TRIPOS>BOND
    1     1     2    1
    2     1     3    2
    3     1     4    1
    4     4     5    1
    5     4     6    1
    6     4     7    1
    7     7     8    1
    8     7     9    2
    9     9    10    1
   10     9    11    1
   11    11    12    1
   12    11    13    1
   13    11    14    1
   14    14    15    1
   15    14    16    1
   16    14    17    1
@<TRIPOS>SUBSTRUCTURE
       1 MOL1            1 RESIDUE      1      MOL     
@<SCITEGIC>MOL_PROPERTY
VConf Rank
SciTegic.value.IntegerValue
807

@<SCITEGIC>MOL_PROPERTY
Conf_Id
SciTegic.value.IntegerValue
35

@<SCITEGIC>MOL_PROPERTY
Delta U+W
SciTegic.value.DoubleValue
-0.102

@<SCITEGIC>MOL_PROPERTY
U+W
SciTegic.value.DoubleValue
-49.529

@<SCITEGIC>MOL_PROPERTY
Grad RMS
SciTegic.value.DoubleValue
0.000000

@<SCITEGIC>MOL_PROPERTY
U
SciTegic.value.DoubleValue
13.666

@<SCITEGIC>MOL_PROPERTY
W
SciTegic.value.DoubleValue
-63.195

@<SCITEGIC>MOL_PROPERTY
W(PB)
SciTegic.value.DoubleValue
-65.299

@<SCITEGIC>MOL_PROPERTY
W(SA)
SciTegic.value.DoubleValue
2.103

@<SCITEGIC>MOL_PROPERTY
Valence
SciTegic.value.DoubleValue
15.226

@<SCITEGIC>MOL_PROPERTY
Coulomb
SciTegic.value.DoubleValue
-1.822

@<SCITEGIC>MOL_PROPERTY
VdW
SciTegic.value.DoubleValue
0.261

@<SCITEGIC>MOL_PROPERTY
VdW6
SciTegic.value.DoubleValue
-4.165

@<SCITEGIC>MOL_PROPERTY
VdW12
SciTegic.value.DoubleValue
4.426

@<SCITEGIC>MOL_PROPERTY
Bond
SciTegic.value.DoubleValue
0.044

@<SCITEGIC>MOL_PROPERTY
Angle
SciTegic.value.DoubleValue
2.229

@<SCITEGIC>MOL_PROPERTY
Pdih
SciTegic.value.DoubleValue
12.953

@<SCITEGIC>MOL_PROPERTY
Idih
SciTegic.value.DoubleValue
0.000

@<SCITEGIC>MOL_PROPERTY
Tether
SciTegic.value.DoubleValue
0.000

@<TRIPOS>MOLECULE
guest-s20_confgen4.mol2 : confsearch ligand conformer 808
          17          16           1
SMALL
USER_CHARGES
 
@<TRIPOS>ATOM
       1    C1      19.841711   17.971619   19.503453 C.2        1 MOL1         0.6132
       2    O1      18.655834   17.829591   19.278741 O.co2      1 MOL1        -0.6749
       3    O2      20.623500   18.453383   18.707490 O.co2      1 MOL1        -0.6749
       4    C2      20.376864   17.511438   20.853097 C.3        1 MOL1        -0.1955
       5    H1      21.447934   17.302765   20.744232 H          1 MOL1         0.0733
       6    H2      19.888940   16.561560   21.100425 H          1 MOL1         0.0733
       7    C3      20.127968   18.526297   21.952878 C.2        1 MOL1        -0.1395
       8    H3      19.080852   18.660669   22.218548 H          1 MOL1         0.0816
       9    C4      21.097290   19.220371   22.562294 C.2        1 MOL1        -0.1394
      10    H4      22.133887   19.062186   22.266440 H          1 MOL1         0.0816
      11    C5      20.919930   20.251117   23.664427 C.3        1 MOL1        -0.1826
      12    H5      21.504972   19.940680   24.540704 H          1 MOL1         0.0736
      13    H6      21.361056   21.202302   23.337051 H          1 MOL1         0.0736
      14    C6      19.457838   20.497831   24.097379 C.3        1 MOL1        -0.2882
      15    H7      19.000259   19.577146   24.482558 H          1 MOL1         0.0749
      16    H8      19.414242   21.252993   24.892904 H          1 MOL1         0.0749
      17    H9      18.853788   20.861171   23.255597 H          1 MOL1         0.0749
@<TRIPOS>BOND
    1     1     2    1
    2     1     3    2
    3     1     4    1
    4     4     5    1
    5     4     6    1
    6     4     7    1
    7     7     8    1
    8     7     9    2
    9     9    10    1
   10     9    11    1
   11    11    12    1
   12    11    13    1
   13    11    14    1
   14    14    15    1
   15    14    16    1
   16    14    17    1
@<TRIPOS>SUBSTRUCTURE
       1 MOL1            1 RESIDUE      1      MOL     
@<SCITEGIC>MOL_PROPERTY
VConf Rank
SciTegic.value.IntegerValue
808

@<SCITEGIC>MOL_PROPERTY
Conf_Id
SciTegic.value.IntegerValue
19

@<SCITEGIC>MOL_PROPERTY
Delta U+W
SciTegic.value.DoubleValue
-0.496

@<SCITEGIC>MOL_PROPERTY
U+W
SciTegic.value.DoubleValue
-49.923

@<SCITEGIC>MOL_PROPERTY
Grad RMS
SciTegic.value.DoubleValue
0.000000

@<SCITEGIC>MOL_PROPERTY
U
SciTegic.value.DoubleValue
13.863

@<SCITEGIC>MOL_PROPERTY
W
SciTegic.value.DoubleValue
-63.786

@<SCITEGIC>MOL_PROPERTY
W(PB)
SciTegic.value.DoubleValue
-65.856

@<SCITEGIC>MOL_PROPERTY
W(SA)
SciTegic.value.DoubleValue
2.070

@<SCITEGIC>MOL_PROPERTY
Valence
SciTegic.value.DoubleValue
14.117

@<SCITEGIC>MOL_PROPERTY
Coulomb
SciTegic.value.DoubleValue
-1.228

@<SCITEGIC>MOL_PROPERTY
VdW
SciTegic.value.DoubleValue
0.974

@<SCITEGIC>MOL_PROPERTY
VdW6
SciTegic.value.DoubleValue
-4.885

@<SCITEGIC>MOL_PROPERTY
VdW12
SciTegic.value.DoubleValue
5.859

@<SCITEGIC>MOL_PROPERTY
Bond
SciTegic.value.DoubleValue
0.094

@<SCITEGIC>MOL_PROPERTY
Angle
SciTegic.value.DoubleValue
2.818

@<SCITEGIC>MOL_PROPERTY
Pdih
SciTegic.value.DoubleValue
11.205

@<SCITEGIC>MOL_PROPERTY
Idih
SciTegic.value.DoubleValue
0.000

@<SCITEGIC>MOL_PROPERTY
Tether
SciTegic.value.DoubleValue
0.000

@<TRIPOS>MOLECULE
guest-s20_confgen4.mol2 : confsearch ligand conformer 809
          17          16           1
SMALL
USER_CHARGES
 
@<TRIPOS>ATOM
       1    C1      20.452720   20.743627   19.821609 C.2        1 MOL1         0.6132
       2    O1      19.639613   21.624123   20.022599 O.co2      1 MOL1        -0.6749
       3    O2      21.588495   20.951559   19.442425 O.co2      1 MOL1        -0.6749
       4    C2      20.024048   19.299450   20.046154 C.3        1 MOL1        -0.1955
       5    H1      20.428092   18.698675   19.223170 H          1 MOL1         0.0733
       6    H2      18.930951   19.250536   19.972661 H          1 MOL1         0.0733
       7    C3      20.504598   18.751035   21.376220 C.2        1 MOL1        -0.1395
       8    H3      21.583131   18.623710   21.464365 H          1 MOL1         0.0816
       9    C4      19.698591   18.440727   22.396160 C.2        1 MOL1        -0.1394
      10    H4      18.620635   18.573106   22.309290 H          1 MOL1         0.0816
      11    C5      20.180076   17.896753   23.722659 C.3        1 MOL1        -0.1826
      12    H5      19.581785   17.019259   24.002970 H          1 MOL1         0.0736
      13    H6      21.221620   17.556055   23.643154 H          1 MOL1         0.0736
      14    C6      20.076051   18.964415   24.829126 C.3        1 MOL1        -0.2882
      15    H7      19.037188   19.295726   24.957274 H          1 MOL1         0.0749
      16    H8      20.427087   18.564566   25.789315 H          1 MOL1         0.0749
      17    H9      20.686897   19.842687   24.581769 H          1 MOL1         0.0749
@<TRIPOS>BOND
    1     1     2    1
    2     1     3    2
    3     1     4    1
    4     4     5    1
    5     4     6    1
    6     4     7    1
    7     7     8    1
    8     7     9    2
    9     9    10    1
   10     9    11    1
   11    11    12    1
   12    11    13    1
   13    11    14    1
   14    14    15    1
   15    14    16    1
   16    14    17    1
@<TRIPOS>SUBSTRUCTURE
       1 MOL1            1 RESIDUE      1      MOL     
@<SCITEGIC>MOL_PROPERTY
VConf Rank
SciTegic.value.IntegerValue
809

@<SCITEGIC>MOL_PROPERTY
Conf_Id
SciTegic.value.IntegerValue
7

@<SCITEGIC>MOL_PROPERTY
Delta U+W
SciTegic.value.DoubleValue
-0.041

@<SCITEGIC>MOL_PROPERTY
U+W
SciTegic.value.DoubleValue
-49.468

@<SCITEGIC>MOL_PROPERTY
Grad RMS
SciTegic.value.DoubleValue
0.000000

@<SCITEGIC>MOL_PROPERTY
U
SciTegic.value.DoubleValue
14.121

@<SCITEGIC>MOL_PROPERTY
W
SciTegic.value.DoubleValue
-63.589

@<SCITEGIC>MOL_PROPERTY
W(PB)
SciTegic.value.DoubleValue
-65.660

@<SCITEGIC>MOL_PROPERTY
W(SA)
SciTegic.value.DoubleValue
2.071

@<SCITEGIC>MOL_PROPERTY
Valence
SciTegic.value.DoubleValue
15.230

@<SCITEGIC>MOL_PROPERTY
Coulomb
SciTegic.value.DoubleValue
-1.333

@<SCITEGIC>MOL_PROPERTY
VdW
SciTegic.value.DoubleValue
0.224

@<SCITEGIC>MOL_PROPERTY
VdW6
SciTegic.value.DoubleValue
-4.212

@<SCITEGIC>MOL_PROPERTY
VdW12
SciTegic.value.DoubleValue
4.436

@<SCITEGIC>MOL_PROPERTY
Bond
SciTegic.value.DoubleValue
0.044

@<SCITEGIC>MOL_PROPERTY
Angle
SciTegic.value.DoubleValue
2.230

@<SCITEGIC>MOL_PROPERTY
Pdih
SciTegic.value.DoubleValue
12.956

@<SCITEGIC>MOL_PROPERTY
Idih
SciTegic.value.DoubleValue
0.000

@<SCITEGIC>MOL_PROPERTY
Tether
SciTegic.value.DoubleValue
0.000

@<TRIPOS>MOLECULE
guest-s20_confgen4.mol2 : confsearch ligand conformer 810
          17          16           1
SMALL
USER_CHARGES
 
@<TRIPOS>ATOM
       1    C1      20.708636   17.019205   20.778485 C.2        1 MOL1         0.6132
       2    O1      21.710981   17.380360   20.193794 O.co2      1 MOL1        -0.6749
       3    O2      19.726404   16.576221   20.216287 O.co2      1 MOL1        -0.6749
       4    C2      20.692862   17.100167   22.301894 C.3        1 MOL1        -0.1955
       5    H1      21.716419   16.935117   22.658064 H          1 MOL1         0.0733
       6    H2      20.103365   16.255418   22.676878 H          1 MOL1         0.0733
       7    C3      20.152844   18.398181   22.885348 C.2        1 MOL1        -0.1395
       8    H3      20.150372   18.434833   23.974015 H          1 MOL1         0.0816
       9    C4      19.704392   19.448018   22.186973 C.2        1 MOL1        -0.1394
      10    H4      19.696867   19.437591   21.097676 H          1 MOL1         0.0816
      11    C5      19.175331   20.717292   22.817037 C.3        1 MOL1        -0.1826
      12    H5      18.220524   20.992977   22.349211 H          1 MOL1         0.0736
      13    H6      18.969313   20.560425   23.884793 H          1 MOL1         0.0736
      14    C6      20.179383   21.875334   22.656243 C.3        1 MOL1        -0.2882
      15    H7      19.789805   22.793934   23.113913 H          1 MOL1         0.0749
      16    H8      21.135028   21.632502   23.139325 H          1 MOL1         0.0749
      17    H9      20.374881   22.079494   21.595320 H          1 MOL1         0.0749
@<TRIPOS>BOND
    1     1     2    1
    2     1     3    2
    3     1     4    1
    4     4     5    1
    5     4     6    1
    6     4     7    1
    7     7     8    1
    8     7     9    2
    9     9    10    1
   10     9    11    1
   11    11    12    1
   12    11    13    1
   13    11    14    1
   14    14    15    1
   15    14    16    1
   16    14    17    1
@<TRIPOS>SUBSTRUCTURE
       1 MOL1            1 RESIDUE      1      MOL     
@<SCITEGIC>MOL_PROPERTY
VConf Rank
SciTegic.value.IntegerValue
810

@<SCITEGIC>MOL_PROPERTY
Conf_Id
SciTegic.value.IntegerValue
39

@<SCITEGIC>MOL_PROPERTY
Delta U+W
SciTegic.value.DoubleValue
-0.422

@<SCITEGIC>MOL_PROPERTY
U+W
SciTegic.value.DoubleValue
-49.849

@<SCITEGIC>MOL_PROPERTY
Grad RMS
SciTegic.value.DoubleValue
0.000000

@<SCITEGIC>MOL_PROPERTY
U
SciTegic.value.DoubleValue
14.465

@<SCITEGIC>MOL_PROPERTY
W
SciTegic.value.DoubleValue
-64.314

@<SCITEGIC>MOL_PROPERTY
W(PB)
SciTegic.value.DoubleValue
-66.406

@<SCITEGIC>MOL_PROPERTY
W(SA)
SciTegic.value.DoubleValue
2.093

@<SCITEGIC>MOL_PROPERTY
Valence
SciTegic.value.DoubleValue
14.072

@<SCITEGIC>MOL_PROPERTY
Coulomb
SciTegic.value.DoubleValue
-0.199

@<SCITEGIC>MOL_PROPERTY
VdW
SciTegic.value.DoubleValue
0.592

@<SCITEGIC>MOL_PROPERTY
VdW6
SciTegic.value.DoubleValue
-5.019

@<SCITEGIC>MOL_PROPERTY
VdW12
SciTegic.value.DoubleValue
5.611

@<SCITEGIC>MOL_PROPERTY
Bond
SciTegic.value.DoubleValue
0.085

@<SCITEGIC>MOL_PROPERTY
Angle
SciTegic.value.DoubleValue
2.748

@<SCITEGIC>MOL_PROPERTY
Pdih
SciTegic.value.DoubleValue
11.238

@<SCITEGIC>MOL_PROPERTY
Idih
SciTegic.value.DoubleValue
0.001

@<SCITEGIC>MOL_PROPERTY
Tether
SciTegic.value.DoubleValue
0.000

@<TRIPOS>MOLECULE
guest-s20_confgen4.mol2 : confsearch ligand conformer 811
          17          16           1
SMALL
USER_CHARGES
 
@<TRIPOS>ATOM
       1    C1      20.910721   17.416527   24.539608 C.2        1 MOL1         0.6132
       2    O1      21.853410   17.782067   25.213907 O.co2      1 MOL1        -0.6749
       3    O2      20.710334   16.256628   24.237453 O.co2      1 MOL1        -0.6749
       4    C2      19.925094   18.470419   24.052314 C.3        1 MOL1        -0.1955
       5    H1      19.758134   19.177733   24.872887 H          1 MOL1         0.0733
       6    H2      18.965892   17.977344   23.853696 H          1 MOL1         0.0733
       7    C3      20.422649   19.206810   22.823122 C.2        1 MOL1        -0.1395
       8    H3      21.286336   19.851092   22.984825 H          1 MOL1         0.0816
       9    C4      19.872694   19.100065   21.609705 C.2        1 MOL1        -0.1394
      10    H4      19.010903   18.453338   21.448085 H          1 MOL1         0.0816
      11    C5      20.372515   19.832215   20.384365 C.3        1 MOL1        -0.1826
      12    H5      21.373657   20.246853   20.566048 H          1 MOL1         0.0736
      13    H6      20.469996   19.128840   19.546334 H          1 MOL1         0.0736
      14    C6      19.412528   20.971460   19.989894 C.3        1 MOL1        -0.2882
      15    H7      19.319043   21.702044   20.804209 H          1 MOL1         0.0749
      16    H8      19.780106   21.498565   19.099876 H          1 MOL1         0.0749
      17    H9      18.411700   20.580110   19.764915 H          1 MOL1         0.0749
@<TRIPOS>BOND
    1     1     2    1
    2     1     3    2
    3     1     4    1
    4     4     5    1
    5     4     6    1
    6     4     7    1
    7     7     8    1
    8     7     9    2
    9     9    10    1
   10     9    11    1
   11    11    12    1
   12    11    13    1
   13    11    14    1
   14    14    15    1
   15    14    16    1
   16    14    17    1
@<TRIPOS>SUBSTRUCTURE
       1 MOL1            1 RESIDUE      1      MOL     
@<SCITEGIC>MOL_PROPERTY
VConf Rank
SciTegic.value.IntegerValue
811

@<SCITEGIC>MOL_PROPERTY
Conf_Id
SciTegic.value.IntegerValue
38

@<SCITEGIC>MOL_PROPERTY
Delta U+W
SciTegic.value.DoubleValue
0.000

@<SCITEGIC>MOL_PROPERTY
U+W
SciTegic.value.DoubleValue
-49.427

@<SCITEGIC>MOL_PROPERTY
Grad RMS
SciTegic.value.DoubleValue
0.000000

@<SCITEGIC>MOL_PROPERTY
U
SciTegic.value.DoubleValue
13.666

@<SCITEGIC>MOL_PROPERTY
W
SciTegic.value.DoubleValue
-63.093

@<SCITEGIC>MOL_PROPERTY
W(PB)
SciTegic.value.DoubleValue
-65.225

@<SCITEGIC>MOL_PROPERTY
W(SA)
SciTegic.value.DoubleValue
2.132

@<SCITEGIC>MOL_PROPERTY
Valence
SciTegic.value.DoubleValue
15.226

@<SCITEGIC>MOL_PROPERTY
Coulomb
SciTegic.value.DoubleValue
-1.822

@<SCITEGIC>MOL_PROPERTY
VdW
SciTegic.value.DoubleValue
0.261

@<SCITEGIC>MOL_PROPERTY
VdW6
SciTegic.value.DoubleValue
-4.165

@<SCITEGIC>MOL_PROPERTY
VdW12
SciTegic.value.DoubleValue
4.426

@<SCITEGIC>MOL_PROPERTY
Bond
SciTegic.value.DoubleValue
0.044

@<SCITEGIC>MOL_PROPERTY
Angle
SciTegic.value.DoubleValue
2.229

@<SCITEGIC>MOL_PROPERTY
Pdih
SciTegic.value.DoubleValue
12.953

@<SCITEGIC>MOL_PROPERTY
Idih
SciTegic.value.DoubleValue
0.000

@<SCITEGIC>MOL_PROPERTY
Tether
SciTegic.value.DoubleValue
0.000

@<TRIPOS>MOLECULE
guest-s20_confgen4.mol2 : confsearch ligand conformer 812
          17          16           1
SMALL
USER_CHARGES
 
@<TRIPOS>ATOM
       1    C1      17.142072   19.241196   20.943417 C.2        1 MOL1         0.6132
       2    O1      16.606980   18.191279   21.240353 O.co2      1 MOL1        -0.6749
       3    O2      16.973231   19.804220   19.879717 O.co2      1 MOL1        -0.6749
       4    C2      18.070982   19.891304   21.960319 C.3        1 MOL1        -0.1955
       5    H1      17.795020   19.528971   22.957916 H          1 MOL1         0.0733
       6    H2      17.879545   20.970507   21.946903 H          1 MOL1         0.0733
       7    C3      19.534165   19.618270   21.668273 C.2        1 MOL1        -0.1395
       8    H3      19.923721   20.087881   20.765548 H          1 MOL1         0.0816
       9    C4      20.324281   18.860155   22.434569 C.2        1 MOL1        -0.1394
      10    H4      19.933264   18.388275   23.335399 H          1 MOL1         0.0816
      11    C5      21.782041   18.585776   22.139660 C.3        1 MOL1        -0.1826
      12    H5      21.980909   17.508781   22.223710 H          1 MOL1         0.0736
      13    H6      22.025800   18.871768   21.107182 H          1 MOL1         0.0736
      14    C6      22.698011   19.354724   23.111657 C.3        1 MOL1        -0.2882
      15    H7      22.502048   19.059616   24.150858 H          1 MOL1         0.0749
      16    H8      23.754381   19.151124   22.893219 H          1 MOL1         0.0749
      17    H9      22.535075   20.437257   23.026958 H          1 MOL1         0.0749
@<TRIPOS>BOND
    1     1     2    1
    2     1     3    2
    3     1     4    1
    4     4     5    1
    5     4     6    1
    6     4     7    1
    7     7     8    1
    8     7     9    2
    9     9    10    1
   10     9    11    1
   11    11    12    1
   12    11    13    1
   13    11    14    1
   14    14    15    1
   15    14    16    1
   16    14    17    1
@<TRIPOS>SUBSTRUCTURE
       1 MOL1            1 RESIDUE      1      MOL     
@<SCITEGIC>MOL_PROPERTY
VConf Rank
SciTegic.value.IntegerValue
812

@<SCITEGIC>MOL_PROPERTY
Conf_Id
SciTegic.value.IntegerValue
35

@<SCITEGIC>MOL_PROPERTY
Delta U+W
SciTegic.value.DoubleValue
-0.102

@<SCITEGIC>MOL_PROPERTY
U+W
SciTegic.value.DoubleValue
-49.529

@<SCITEGIC>MOL_PROPERTY
Grad RMS
SciTegic.value.DoubleValue
0.000000

@<SCITEGIC>MOL_PROPERTY
U
SciTegic.value.DoubleValue
13.666

@<SCITEGIC>MOL_PROPERTY
W
SciTegic.value.DoubleValue
-63.195

@<SCITEGIC>MOL_PROPERTY
W(PB)
SciTegic.value.DoubleValue
-65.299

@<SCITEGIC>MOL_PROPERTY
W(SA)
SciTegic.value.DoubleValue
2.103

@<SCITEGIC>MOL_PROPERTY
Valence
SciTegic.value.DoubleValue
15.226

@<SCITEGIC>MOL_PROPERTY
Coulomb
SciTegic.value.DoubleValue
-1.822

@<SCITEGIC>MOL_PROPERTY
VdW
SciTegic.value.DoubleValue
0.261

@<SCITEGIC>MOL_PROPERTY
VdW6
SciTegic.value.DoubleValue
-4.165

@<SCITEGIC>MOL_PROPERTY
VdW12
SciTegic.value.DoubleValue
4.426

@<SCITEGIC>MOL_PROPERTY
Bond
SciTegic.value.DoubleValue
0.044

@<SCITEGIC>MOL_PROPERTY
Angle
SciTegic.value.DoubleValue
2.229

@<SCITEGIC>MOL_PROPERTY
Pdih
SciTegic.value.DoubleValue
12.953

@<SCITEGIC>MOL_PROPERTY
Idih
SciTegic.value.DoubleValue
0.000

@<SCITEGIC>MOL_PROPERTY
Tether
SciTegic.value.DoubleValue
0.000

@<TRIPOS>MOLECULE
guest-s20_confgen4.mol2 : confsearch ligand conformer 813
          17          16           1
SMALL
USER_CHARGES
 
@<TRIPOS>ATOM
       1    C1      20.255339   17.874766   24.887864 C.2        1 MOL1         0.6132
       2    O1      19.256503   18.196674   25.500785 O.co2      1 MOL1        -0.6749
       3    O2      20.684520   16.738392   24.851681 O.co2      1 MOL1        -0.6749
       4    C2      21.014353   18.957753   24.132396 C.3        1 MOL1        -0.1955
       5    H1      22.054121   18.629532   24.015187 H          1 MOL1         0.0733
       6    H2      21.030748   19.855543   24.761057 H          1 MOL1         0.0733
       7    C3      20.387790   19.275248   22.787769 C.2        1 MOL1        -0.1395
       8    H3      19.411863   19.754404   22.843129 H          1 MOL1         0.0816
       9    C4      20.962218   18.995405   21.611150 C.2        1 MOL1        -0.1394
      10    H4      21.938099   18.511164   21.595324 H          1 MOL1         0.0816
      11    C5      20.391942   19.280953   20.232079 C.3        1 MOL1        -0.1826
      12    H5      21.100811   19.909281   19.676007 H          1 MOL1         0.0736
      13    H6      20.329095   18.339057   19.670471 H          1 MOL1         0.0736
      14    C6      19.005513   19.962001   20.227967 C.3        1 MOL1        -0.2882
      15    H7      19.042916   20.934888   20.735405 H          1 MOL1         0.0749
      16    H8      18.663642   20.132714   19.198885 H          1 MOL1         0.0749
      17    H9      18.257391   19.335345   20.731063 H          1 MOL1         0.0749
@<TRIPOS>BOND
    1     1     2    1
    2     1     3    2
    3     1     4    1
    4     4     5    1
    5     4     6    1
    6     4     7    1
    7     7     8    1
    8     7     9    2
    9     9    10    1
   10     9    11    1
   11    11    12    1
   12    11    13    1
   13    11    14    1
   14    14    15    1
   15    14    16    1
   16    14    17    1
@<TRIPOS>SUBSTRUCTURE
       1 MOL1            1 RESIDUE      1      MOL     
@<SCITEGIC>MOL_PROPERTY
VConf Rank
SciTegic.value.IntegerValue
813

@<SCITEGIC>MOL_PROPERTY
Conf_Id
SciTegic.value.IntegerValue
19

@<SCITEGIC>MOL_PROPERTY
Delta U+W
SciTegic.value.DoubleValue
-0.496

@<SCITEGIC>MOL_PROPERTY
U+W
SciTegic.value.DoubleValue
-49.923

@<SCITEGIC>MOL_PROPERTY
Grad RMS
SciTegic.value.DoubleValue
0.000000

@<SCITEGIC>MOL_PROPERTY
U
SciTegic.value.DoubleValue
13.863

@<SCITEGIC>MOL_PROPERTY
W
SciTegic.value.DoubleValue
-63.786

@<SCITEGIC>MOL_PROPERTY
W(PB)
SciTegic.value.DoubleValue
-65.856

@<SCITEGIC>MOL_PROPERTY
W(SA)
SciTegic.value.DoubleValue
2.070

@<SCITEGIC>MOL_PROPERTY
Valence
SciTegic.value.DoubleValue
14.117

@<SCITEGIC>MOL_PROPERTY
Coulomb
SciTegic.value.DoubleValue
-1.228

@<SCITEGIC>MOL_PROPERTY
VdW
SciTegic.value.DoubleValue
0.974

@<SCITEGIC>MOL_PROPERTY
VdW6
SciTegic.value.DoubleValue
-4.885

@<SCITEGIC>MOL_PROPERTY
VdW12
SciTegic.value.DoubleValue
5.859

@<SCITEGIC>MOL_PROPERTY
Bond
SciTegic.value.DoubleValue
0.094

@<SCITEGIC>MOL_PROPERTY
Angle
SciTegic.value.DoubleValue
2.818

@<SCITEGIC>MOL_PROPERTY
Pdih
SciTegic.value.DoubleValue
11.205

@<SCITEGIC>MOL_PROPERTY
Idih
SciTegic.value.DoubleValue
0.000

@<SCITEGIC>MOL_PROPERTY
Tether
SciTegic.value.DoubleValue
0.000

@<TRIPOS>MOLECULE
guest-s20_confgen4.mol2 : confsearch ligand conformer 814
          17          16           1
SMALL
USER_CHARGES
 
@<TRIPOS>ATOM
       1    C1      18.266623   17.162922   21.017051 C.2        1 MOL1         0.6132
       2    O1      18.491538   16.146526   21.644079 O.co2      1 MOL1        -0.6749
       3    O2      17.147501   17.580384   20.792785 O.co2      1 MOL1        -0.6749
       4    C2      19.449752   17.952495   20.472435 C.3        1 MOL1        -0.1955
       5    H1      19.196800   18.275974   19.456137 H          1 MOL1         0.0733
       6    H2      20.306581   17.273120   20.389083 H          1 MOL1         0.0733
       7    C3      19.790827   19.154783   21.332048 C.2        1 MOL1        -0.1395
       8    H3      19.044856   19.948956   21.337820 H          1 MOL1         0.0816
       9    C4      20.910424   19.269535   22.052847 C.2        1 MOL1        -0.1394
      10    H4      21.653627   18.472852   22.050755 H          1 MOL1         0.0816
      11    C5      21.247248   20.467999   22.911666 C.3        1 MOL1        -0.1826
      12    H5      22.275564   20.794677   22.705829 H          1 MOL1         0.0736
      13    H6      20.591894   21.314495   22.664348 H          1 MOL1         0.0736
      14    C6      21.104400   20.133301   24.409185 C.3        1 MOL1        -0.2882
      15    H7      21.778119   19.314331   24.693468 H          1 MOL1         0.0749
      16    H8      21.349527   21.006459   25.027712 H          1 MOL1         0.0749
      17    H9      20.076297   19.827197   24.643672 H          1 MOL1         0.0749
@<TRIPOS>BOND
    1     1     2    1
    2     1     3    2
    3     1     4    1
    4     4     5    1
    5     4     6    1
    6     4     7    1
    7     7     8    1
    8     7     9    2
    9     9    10    1
   10     9    11    1
   11    11    12    1
   12    11    13    1
   13    11    14    1
   14    14    15    1
   15    14    16    1
   16    14    17    1
@<TRIPOS>SUBSTRUCTURE
       1 MOL1            1 RESIDUE      1      MOL     
@<SCITEGIC>MOL_PROPERTY
VConf Rank
SciTegic.value.IntegerValue
814

@<SCITEGIC>MOL_PROPERTY
Conf_Id
SciTegic.value.IntegerValue
7

@<SCITEGIC>MOL_PROPERTY
Delta U+W
SciTegic.value.DoubleValue
-0.041

@<SCITEGIC>MOL_PROPERTY
U+W
SciTegic.value.DoubleValue
-49.468

@<SCITEGIC>MOL_PROPERTY
Grad RMS
SciTegic.value.DoubleValue
0.000000

@<SCITEGIC>MOL_PROPERTY
U
SciTegic.value.DoubleValue
14.121

@<SCITEGIC>MOL_PROPERTY
W
SciTegic.value.DoubleValue
-63.589

@<SCITEGIC>MOL_PROPERTY
W(PB)
SciTegic.value.DoubleValue
-65.660

@<SCITEGIC>MOL_PROPERTY
W(SA)
SciTegic.value.DoubleValue
2.071

@<SCITEGIC>MOL_PROPERTY
Valence
SciTegic.value.DoubleValue
15.230

@<SCITEGIC>MOL_PROPERTY
Coulomb
SciTegic.value.DoubleValue
-1.333

@<SCITEGIC>MOL_PROPERTY
VdW
SciTegic.value.DoubleValue
0.224

@<SCITEGIC>MOL_PROPERTY
VdW6
SciTegic.value.DoubleValue
-4.212

@<SCITEGIC>MOL_PROPERTY
VdW12
SciTegic.value.DoubleValue
4.436

@<SCITEGIC>MOL_PROPERTY
Bond
SciTegic.value.DoubleValue
0.044

@<SCITEGIC>MOL_PROPERTY
Angle
SciTegic.value.DoubleValue
2.230

@<SCITEGIC>MOL_PROPERTY
Pdih
SciTegic.value.DoubleValue
12.956

@<SCITEGIC>MOL_PROPERTY
Idih
SciTegic.value.DoubleValue
0.000

@<SCITEGIC>MOL_PROPERTY
Tether
SciTegic.value.DoubleValue
0.000

@<TRIPOS>MOLECULE
guest-s20_confgen4.mol2 : confsearch ligand conformer 815
          17          16           1
SMALL
USER_CHARGES
 
@<TRIPOS>ATOM
       1    C1      20.415255   16.700080   23.228808 C.2        1 MOL1         0.6132
       2    O1      20.840158   16.130966   22.242624 O.co2      1 MOL1        -0.6749
       3    O2      19.436470   16.330806   23.847434 O.co2      1 MOL1        -0.6749
       4    C2      21.167047   17.927836   23.733785 C.3        1 MOL1        -0.1955
       5    H1      22.229714   17.790234   23.502329 H          1 MOL1         0.0733
       6    H2      21.095789   17.938716   24.827642 H          1 MOL1         0.0733
       7    C3      20.692769   19.263238   23.178231 C.2        1 MOL1        -0.1395
       8    H3      21.242665   20.126186   23.551701 H          1 MOL1         0.0816
       9    C4      19.696204   19.441870   22.303049 C.2        1 MOL1        -0.1394
      10    H4      19.131070   18.596010   21.913335 H          1 MOL1         0.0816
      11    C5      19.262304   20.794060   21.782227 C.3        1 MOL1        -0.1826
      12    H5      18.169809   20.884525   21.851441 H          1 MOL1         0.0736
      13    H6      19.684812   21.598456   22.399955 H          1 MOL1         0.0736
      14    C6      19.702275   20.990678   20.318395 C.3        1 MOL1        -0.2882
      15    H7      19.383656   21.972690   19.945310 H          1 MOL1         0.0749
      16    H8      20.794875   20.929823   20.228301 H          1 MOL1         0.0749
      17    H9      19.262533   20.220898   19.670689 H          1 MOL1         0.0749
@<TRIPOS>BOND
    1     1     2    1
    2     1     3    2
    3     1     4    1
    4     4     5    1
    5     4     6    1
    6     4     7    1
    7     7     8    1
    8     7     9    2
    9     9    10    1
   10     9    11    1
   11    11    12    1
   12    11    13    1
   13    11    14    1
   14    14    15    1
   15    14    16    1
   16    14    17    1
@<TRIPOS>SUBSTRUCTURE
       1 MOL1            1 RESIDUE      1      MOL     
@<SCITEGIC>MOL_PROPERTY
VConf Rank
SciTegic.value.IntegerValue
815

@<SCITEGIC>MOL_PROPERTY
Conf_Id
SciTegic.value.IntegerValue
39

@<SCITEGIC>MOL_PROPERTY
Delta U+W
SciTegic.value.DoubleValue
-0.422

@<SCITEGIC>MOL_PROPERTY
U+W
SciTegic.value.DoubleValue
-49.849

@<SCITEGIC>MOL_PROPERTY
Grad RMS
SciTegic.value.DoubleValue
0.000000

@<SCITEGIC>MOL_PROPERTY
U
SciTegic.value.DoubleValue
14.465

@<SCITEGIC>MOL_PROPERTY
W
SciTegic.value.DoubleValue
-64.314

@<SCITEGIC>MOL_PROPERTY
W(PB)
SciTegic.value.DoubleValue
-66.406

@<SCITEGIC>MOL_PROPERTY
W(SA)
SciTegic.value.DoubleValue
2.093

@<SCITEGIC>MOL_PROPERTY
Valence
SciTegic.value.DoubleValue
14.072

@<SCITEGIC>MOL_PROPERTY
Coulomb
SciTegic.value.DoubleValue
-0.199

@<SCITEGIC>MOL_PROPERTY
VdW
SciTegic.value.DoubleValue
0.592

@<SCITEGIC>MOL_PROPERTY
VdW6
SciTegic.value.DoubleValue
-5.019

@<SCITEGIC>MOL_PROPERTY
VdW12
SciTegic.value.DoubleValue
5.611

@<SCITEGIC>MOL_PROPERTY
Bond
SciTegic.value.DoubleValue
0.085

@<SCITEGIC>MOL_PROPERTY
Angle
SciTegic.value.DoubleValue
2.748

@<SCITEGIC>MOL_PROPERTY
Pdih
SciTegic.value.DoubleValue
11.238

@<SCITEGIC>MOL_PROPERTY
Idih
SciTegic.value.DoubleValue
0.001

@<SCITEGIC>MOL_PROPERTY
Tether
SciTegic.value.DoubleValue
0.000

@<TRIPOS>MOLECULE
guest-s20_confgen4.mol2 : confsearch ligand conformer 816
          17          16           1
SMALL
USER_CHARGES
 
@<TRIPOS>ATOM
       1    C1      20.684118   17.879500   24.887939 C.2        1 MOL1         0.6132
       2    O1      20.885971   18.616487   25.832961 O.co2      1 MOL1        -0.6749
       3    O2      21.298437   16.848577   24.696556 O.co2      1 MOL1        -0.6749
       4    C2      19.598006   18.268234   23.893529 C.3        1 MOL1        -0.1955
       5    H1      18.746894   18.659205   24.462966 H          1 MOL1         0.0733
       6    H2      19.254413   17.358008   23.387492 H          1 MOL1         0.0733
       7    C3      20.072271   19.302097   22.890062 C.2        1 MOL1        -0.1395
       8    H3      20.279507   20.289257   23.302094 H          1 MOL1         0.0816
       9    C4      20.240077   19.061511   21.586150 C.2        1 MOL1        -0.1394
      10    H4      20.035518   18.073364   21.175321 H          1 MOL1         0.0816
      11    C5      20.716687   20.092640   20.587682 C.3        1 MOL1        -0.1826
      12    H5      21.140620   20.963236   21.106879 H          1 MOL1         0.0736
      13    H6      21.522555   19.668873   19.973246 H          1 MOL1         0.0736
      14    C6      19.563689   20.554501   19.675355 C.3        1 MOL1        -0.2882
      15    H7      18.755810   21.005873   20.266282 H          1 MOL1         0.0749
      16    H8      19.915721   21.302078   18.952660 H          1 MOL1         0.0749
      17    H9      19.145420   19.708668   19.114066 H          1 MOL1         0.0749
@<TRIPOS>BOND
    1     1     2    1
    2     1     3    2
    3     1     4    1
    4     4     5    1
    5     4     6    1
    6     4     7    1
    7     7     8    1
    8     7     9    2
    9     9    10    1
   10     9    11    1
   11    11    12    1
   12    11    13    1
   13    11    14    1
   14    14    15    1
   15    14    16    1
   16    14    17    1
@<TRIPOS>SUBSTRUCTURE
       1 MOL1            1 RESIDUE      1      MOL     
@<SCITEGIC>MOL_PROPERTY
VConf Rank
SciTegic.value.IntegerValue
816

@<SCITEGIC>MOL_PROPERTY
Conf_Id
SciTegic.value.IntegerValue
38

@<SCITEGIC>MOL_PROPERTY
Delta U+W
SciTegic.value.DoubleValue
0.000

@<SCITEGIC>MOL_PROPERTY
U+W
SciTegic.value.DoubleValue
-49.427

@<SCITEGIC>MOL_PROPERTY
Grad RMS
SciTegic.value.DoubleValue
0.000000

@<SCITEGIC>MOL_PROPERTY
U
SciTegic.value.DoubleValue
13.666

@<SCITEGIC>MOL_PROPERTY
W
SciTegic.value.DoubleValue
-63.093

@<SCITEGIC>MOL_PROPERTY
W(PB)
SciTegic.value.DoubleValue
-65.225

@<SCITEGIC>MOL_PROPERTY
W(SA)
SciTegic.value.DoubleValue
2.132

@<SCITEGIC>MOL_PROPERTY
Valence
SciTegic.value.DoubleValue
15.226

@<SCITEGIC>MOL_PROPERTY
Coulomb
SciTegic.value.DoubleValue
-1.822

@<SCITEGIC>MOL_PROPERTY
VdW
SciTegic.value.DoubleValue
0.261

@<SCITEGIC>MOL_PROPERTY
VdW6
SciTegic.value.DoubleValue
-4.165

@<SCITEGIC>MOL_PROPERTY
VdW12
SciTegic.value.DoubleValue
4.426

@<SCITEGIC>MOL_PROPERTY
Bond
SciTegic.value.DoubleValue
0.044

@<SCITEGIC>MOL_PROPERTY
Angle
SciTegic.value.DoubleValue
2.229

@<SCITEGIC>MOL_PROPERTY
Pdih
SciTegic.value.DoubleValue
12.953

@<SCITEGIC>MOL_PROPERTY
Idih
SciTegic.value.DoubleValue
0.000

@<SCITEGIC>MOL_PROPERTY
Tether
SciTegic.value.DoubleValue
0.000

@<TRIPOS>MOLECULE
guest-s20_confgen4.mol2 : confsearch ligand conformer 817
          17          16           1
SMALL
USER_CHARGES
 
@<TRIPOS>ATOM
       1    C1      18.844686   16.373017   22.415786 C.2        1 MOL1         0.6132
       2    O1      18.896352   15.801234   21.344706 O.co2      1 MOL1        -0.6749
       3    O2      17.917589   16.260648   23.193491 O.co2      1 MOL1        -0.6749
       4    C2      20.006463   17.275805   22.809298 C.3        1 MOL1        -0.1955
       5    H1      20.895852   16.951360   22.255797 H          1 MOL1         0.0733
       6    H2      20.213149   17.111187   23.873107 H          1 MOL1         0.0733
       7    C3      19.713840   18.742506   22.556506 C.2        1 MOL1        -0.1395
       8    H3      18.943539   19.179204   23.191432 H          1 MOL1         0.0816
       9    C4      20.330646   19.482690   21.630273 C.2        1 MOL1        -0.1394
      10    H4      21.098571   19.044554   20.993571 H          1 MOL1         0.0816
      11    C5      20.034759   20.944057   21.376938 C.3        1 MOL1        -0.1826
      12    H5      19.897811   21.113316   20.300309 H          1 MOL1         0.0736
      13    H6      19.094174   21.235889   21.864127 H          1 MOL1         0.0736
      14    C6      21.177139   21.838592   21.896395 C.3        1 MOL1        -0.2882
      15    H7      22.124016   21.594013   21.397361 H          1 MOL1         0.0749
      16    H8      20.957099   22.897650   21.709140 H          1 MOL1         0.0749
      17    H9      21.315842   21.705384   22.977421 H          1 MOL1         0.0749
@<TRIPOS>BOND
    1     1     2    1
    2     1     3    2
    3     1     4    1
    4     4     5    1
    5     4     6    1
    6     4     7    1
    7     7     8    1
    8     7     9    2
    9     9    10    1
   10     9    11    1
   11    11    12    1
   12    11    13    1
   13    11    14    1
   14    14    15    1
   15    14    16    1
   16    14    17    1
@<TRIPOS>SUBSTRUCTURE
       1 MOL1            1 RESIDUE      1      MOL     
@<SCITEGIC>MOL_PROPERTY
VConf Rank
SciTegic.value.IntegerValue
817

@<SCITEGIC>MOL_PROPERTY
Conf_Id
SciTegic.value.IntegerValue
35

@<SCITEGIC>MOL_PROPERTY
Delta U+W
SciTegic.value.DoubleValue
-0.102

@<SCITEGIC>MOL_PROPERTY
U+W
SciTegic.value.DoubleValue
-49.529

@<SCITEGIC>MOL_PROPERTY
Grad RMS
SciTegic.value.DoubleValue
0.000000

@<SCITEGIC>MOL_PROPERTY
U
SciTegic.value.DoubleValue
13.666

@<SCITEGIC>MOL_PROPERTY
W
SciTegic.value.DoubleValue
-63.195

@<SCITEGIC>MOL_PROPERTY
W(PB)
SciTegic.value.DoubleValue
-65.299

@<SCITEGIC>MOL_PROPERTY
W(SA)
SciTegic.value.DoubleValue
2.103

@<SCITEGIC>MOL_PROPERTY
Valence
SciTegic.value.DoubleValue
15.226

@<SCITEGIC>MOL_PROPERTY
Coulomb
SciTegic.value.DoubleValue
-1.822

@<SCITEGIC>MOL_PROPERTY
VdW
SciTegic.value.DoubleValue
0.261

@<SCITEGIC>MOL_PROPERTY
VdW6
SciTegic.value.DoubleValue
-4.165

@<SCITEGIC>MOL_PROPERTY
VdW12
SciTegic.value.DoubleValue
4.426

@<SCITEGIC>MOL_PROPERTY
Bond
SciTegic.value.DoubleValue
0.044

@<SCITEGIC>MOL_PROPERTY
Angle
SciTegic.value.DoubleValue
2.229

@<SCITEGIC>MOL_PROPERTY
Pdih
SciTegic.value.DoubleValue
12.953

@<SCITEGIC>MOL_PROPERTY
Idih
SciTegic.value.DoubleValue
0.000

@<SCITEGIC>MOL_PROPERTY
Tether
SciTegic.value.DoubleValue
0.000

@<TRIPOS>MOLECULE
guest-s20_confgen4.mol2 : confsearch ligand conformer 818
          17          16           1
SMALL
USER_CHARGES
 
@<TRIPOS>ATOM
       1    C1      21.970506   18.626008   24.533165 C.2        1 MOL1         0.6132
       2    O1      23.134874   18.637991   24.185209 O.co2      1 MOL1        -0.6749
       3    O2      21.558324   19.201878   25.520752 O.co2      1 MOL1        -0.6749
       4    C2      20.977107   17.837976   23.689448 C.3        1 MOL1        -0.1955
       5    H1      20.125541   17.567806   24.325395 H          1 MOL1         0.0733
       6    H2      21.461896   16.902047   23.388572 H          1 MOL1         0.0733
       7    C3      20.520174   18.605149   22.463046 C.2        1 MOL1        -0.1395
       8    H3      21.293487   18.766761   21.714074 H          1 MOL1         0.0816
       9    C4      19.274297   19.064088   22.290196 C.2        1 MOL1        -0.1394
      10    H4      18.527994   18.886825   23.063950 H          1 MOL1         0.0816
      11    C5      18.750861   19.840103   21.093365 C.3        1 MOL1        -0.1826
      12    H5      17.899975   19.296916   20.660415 H          1 MOL1         0.0736
      13    H6      18.342791   20.798792   21.441096 H          1 MOL1         0.0736
      14    C6      19.792266   20.109644   19.984829 C.3        1 MOL1        -0.2882
      15    H7      20.183331   19.169363   19.574535 H          1 MOL1         0.0749
      16    H8      19.338560   20.673445   19.159416 H          1 MOL1         0.0749
      17    H9      20.634880   20.698332   20.370754 H          1 MOL1         0.0749
@<TRIPOS>BOND
    1     1     2    1
    2     1     3    2
    3     1     4    1
    4     4     5    1
    5     4     6    1
    6     4     7    1
    7     7     8    1
    8     7     9    2
    9     9    10    1
   10     9    11    1
   11    11    12    1
   12    11    13    1
   13    11    14    1
   14    14    15    1
   15    14    16    1
   16    14    17    1
@<TRIPOS>SUBSTRUCTURE
       1 MOL1            1 RESIDUE      1      MOL     
@<SCITEGIC>MOL_PROPERTY
VConf Rank
SciTegic.value.IntegerValue
818

@<SCITEGIC>MOL_PROPERTY
Conf_Id
SciTegic.value.IntegerValue
19

@<SCITEGIC>MOL_PROPERTY
Delta U+W
SciTegic.value.DoubleValue
-0.496

@<SCITEGIC>MOL_PROPERTY
U+W
SciTegic.value.DoubleValue
-49.923

@<SCITEGIC>MOL_PROPERTY
Grad RMS
SciTegic.value.DoubleValue
0.000000

@<SCITEGIC>MOL_PROPERTY
U
SciTegic.value.DoubleValue
13.863

@<SCITEGIC>MOL_PROPERTY
W
SciTegic.value.DoubleValue
-63.786

@<SCITEGIC>MOL_PROPERTY
W(PB)
SciTegic.value.DoubleValue
-65.856

@<SCITEGIC>MOL_PROPERTY
W(SA)
SciTegic.value.DoubleValue
2.070

@<SCITEGIC>MOL_PROPERTY
Valence
SciTegic.value.DoubleValue
14.117

@<SCITEGIC>MOL_PROPERTY
Coulomb
SciTegic.value.DoubleValue
-1.228

@<SCITEGIC>MOL_PROPERTY
VdW
SciTegic.value.DoubleValue
0.974

@<SCITEGIC>MOL_PROPERTY
VdW6
SciTegic.value.DoubleValue
-4.885

@<SCITEGIC>MOL_PROPERTY
VdW12
SciTegic.value.DoubleValue
5.859

@<SCITEGIC>MOL_PROPERTY
Bond
SciTegic.value.DoubleValue
0.094

@<SCITEGIC>MOL_PROPERTY
Angle
SciTegic.value.DoubleValue
2.818

@<SCITEGIC>MOL_PROPERTY
Pdih
SciTegic.value.DoubleValue
11.205

@<SCITEGIC>MOL_PROPERTY
Idih
SciTegic.value.DoubleValue
0.000

@<SCITEGIC>MOL_PROPERTY
Tether
SciTegic.value.DoubleValue
0.000

@<TRIPOS>MOLECULE
guest-s20_confgen4.mol2 : confsearch ligand conformer 819
          17          16           1
SMALL
USER_CHARGES
 
@<TRIPOS>ATOM
       1    C1      18.359473   20.610296   20.480824 C.2        1 MOL1         0.6132
       2    O1      19.084449   21.502153   20.086093 O.co2      1 MOL1        -0.6749
       3    O2      17.624375   19.970715   19.754484 O.co2      1 MOL1        -0.6749
       4    C2      18.362642   20.281591   21.968026 C.3        1 MOL1        -0.1955
       5    H1      17.323942   20.115359   22.276173 H          1 MOL1         0.0733
       6    H2      18.722154   21.162465   22.513430 H          1 MOL1         0.0733
       7    C3      19.203571   19.061329   22.291385 C.2        1 MOL1        -0.1395
       8    H3      18.818133   18.116462   21.909442 H          1 MOL1         0.0816
       9    C4      20.345531   19.098272   22.984767 C.2        1 MOL1        -0.1394
      10    H4      20.733142   20.044049   23.362024 H          1 MOL1         0.0816
      11    C5      21.184070   17.880678   23.303599 C.3        1 MOL1        -0.1826
      12    H5      21.447706   17.880634   24.369910 H          1 MOL1         0.0736
      13    H6      20.611640   16.960958   23.120163 H          1 MOL1         0.0736
      14    C6      22.470975   17.857709   22.456051 C.3        1 MOL1        -0.2882
      15    H7      23.082812   18.748746   22.648750 H          1 MOL1         0.0749
      16    H8      23.075406   16.971991   22.691071 H          1 MOL1         0.0749
      17    H9      22.231556   17.832601   21.384729 H          1 MOL1         0.0749
@<TRIPOS>BOND
    1     1     2    1
    2     1     3    2
    3     1     4    1
    4     4     5    1
    5     4     6    1
    6     4     7    1
    7     7     8    1
    8     7     9    2
    9     9    10    1
   10     9    11    1
   11    11    12    1
   12    11    13    1
   13    11    14    1
   14    14    15    1
   15    14    16    1
   16    14    17    1
@<TRIPOS>SUBSTRUCTURE
       1 MOL1            1 RESIDUE      1      MOL     
@<SCITEGIC>MOL_PROPERTY
VConf Rank
SciTegic.value.IntegerValue
819

@<SCITEGIC>MOL_PROPERTY
Conf_Id
SciTegic.value.IntegerValue
7

@<SCITEGIC>MOL_PROPERTY
Delta U+W
SciTegic.value.DoubleValue
-0.041

@<SCITEGIC>MOL_PROPERTY
U+W
SciTegic.value.DoubleValue
-49.468

@<SCITEGIC>MOL_PROPERTY
Grad RMS
SciTegic.value.DoubleValue
0.000000

@<SCITEGIC>MOL_PROPERTY
U
SciTegic.value.DoubleValue
14.121

@<SCITEGIC>MOL_PROPERTY
W
SciTegic.value.DoubleValue
-63.589

@<SCITEGIC>MOL_PROPERTY
W(PB)
SciTegic.value.DoubleValue
-65.660

@<SCITEGIC>MOL_PROPERTY
W(SA)
SciTegic.value.DoubleValue
2.071

@<SCITEGIC>MOL_PROPERTY
Valence
SciTegic.value.DoubleValue
15.230

@<SCITEGIC>MOL_PROPERTY
Coulomb
SciTegic.value.DoubleValue
-1.333

@<SCITEGIC>MOL_PROPERTY
VdW
SciTegic.value.DoubleValue
0.224

@<SCITEGIC>MOL_PROPERTY
VdW6
SciTegic.value.DoubleValue
-4.212

@<SCITEGIC>MOL_PROPERTY
VdW12
SciTegic.value.DoubleValue
4.436

@<SCITEGIC>MOL_PROPERTY
Bond
SciTegic.value.DoubleValue
0.044

@<SCITEGIC>MOL_PROPERTY
Angle
SciTegic.value.DoubleValue
2.230

@<SCITEGIC>MOL_PROPERTY
Pdih
SciTegic.value.DoubleValue
12.956

@<SCITEGIC>MOL_PROPERTY
Idih
SciTegic.value.DoubleValue
0.000

@<SCITEGIC>MOL_PROPERTY
Tether
SciTegic.value.DoubleValue
0.000

@<TRIPOS>MOLECULE
guest-s20_confgen4.mol2 : confsearch ligand conformer 820
          17          16           1
SMALL
USER_CHARGES
 
@<TRIPOS>ATOM
       1    C1      20.944422   19.820837   24.847451 C.2        1 MOL1         0.6132
       2    O1      20.039371   19.320391   25.485752 O.co2      1 MOL1        -0.6749
       3    O2      21.301323   20.974985   24.980294 O.co2      1 MOL1        -0.6749
       4    C2      21.691052   18.945566   23.845443 C.3        1 MOL1        -0.1955
       5    H1      21.692828   17.919389   24.231094 H          1 MOL1         0.0733
       6    H2      22.739441   19.265736   23.835823 H          1 MOL1         0.0733
       7    C3      21.141254   18.956116   22.426117 C.2        1 MOL1        -0.1395
       8    H3      21.688844   18.324948   21.727320 H          1 MOL1         0.0816
       9    C4      20.081246   19.652044   21.998257 C.2        1 MOL1        -0.1394
      10    H4      19.515697   20.289876   22.676532 H          1 MOL1         0.0816
      11    C5      19.575415   19.628689   20.572939 C.3        1 MOL1        -0.1826
      12    H5      19.405872   20.656031   20.223162 H          1 MOL1         0.0736
      13    H6      20.327898   19.188377   19.904323 H          1 MOL1         0.0736
      14    C6      18.264363   18.826014   20.463882 C.3        1 MOL1        -0.2882
      15    H7      17.901241   18.813568   19.428003 H          1 MOL1         0.0749
      16    H8      18.415757   17.786875   20.784605 H          1 MOL1         0.0749
      17    H9      17.481383   19.267631   21.094259 H          1 MOL1         0.0749
@<TRIPOS>BOND
    1     1     2    1
    2     1     3    2
    3     1     4    1
    4     4     5    1
    5     4     6    1
    6     4     7    1
    7     7     8    1
    8     7     9    2
    9     9    10    1
   10     9    11    1
   11    11    12    1
   12    11    13    1
   13    11    14    1
   14    14    15    1
   15    14    16    1
   16    14    17    1
@<TRIPOS>SUBSTRUCTURE
       1 MOL1            1 RESIDUE      1      MOL     
@<SCITEGIC>MOL_PROPERTY
VConf Rank
SciTegic.value.IntegerValue
820

@<SCITEGIC>MOL_PROPERTY
Conf_Id
SciTegic.value.IntegerValue
39

@<SCITEGIC>MOL_PROPERTY
Delta U+W
SciTegic.value.DoubleValue
-0.422

@<SCITEGIC>MOL_PROPERTY
U+W
SciTegic.value.DoubleValue
-49.849

@<SCITEGIC>MOL_PROPERTY
Grad RMS
SciTegic.value.DoubleValue
0.000000

@<SCITEGIC>MOL_PROPERTY
U
SciTegic.value.DoubleValue
14.465

@<SCITEGIC>MOL_PROPERTY
W
SciTegic.value.DoubleValue
-64.314

@<SCITEGIC>MOL_PROPERTY
W(PB)
SciTegic.value.DoubleValue
-66.406

@<SCITEGIC>MOL_PROPERTY
W(SA)
SciTegic.value.DoubleValue
2.093

@<SCITEGIC>MOL_PROPERTY
Valence
SciTegic.value.DoubleValue
14.072

@<SCITEGIC>MOL_PROPERTY
Coulomb
SciTegic.value.DoubleValue
-0.199

@<SCITEGIC>MOL_PROPERTY
VdW
SciTegic.value.DoubleValue
0.592

@<SCITEGIC>MOL_PROPERTY
VdW6
SciTegic.value.DoubleValue
-5.019

@<SCITEGIC>MOL_PROPERTY
VdW12
SciTegic.value.DoubleValue
5.611

@<SCITEGIC>MOL_PROPERTY
Bond
SciTegic.value.DoubleValue
0.085

@<SCITEGIC>MOL_PROPERTY
Angle
SciTegic.value.DoubleValue
2.748

@<SCITEGIC>MOL_PROPERTY
Pdih
SciTegic.value.DoubleValue
11.238

@<SCITEGIC>MOL_PROPERTY
Idih
SciTegic.value.DoubleValue
0.001

@<SCITEGIC>MOL_PROPERTY
Tether
SciTegic.value.DoubleValue
0.000

@<TRIPOS>MOLECULE
guest-s20_confgen4.mol2 : confsearch ligand conformer 821
          17          16           1
SMALL
USER_CHARGES
 
@<TRIPOS>ATOM
       1    C1      17.262394   20.156529   21.040753 C.2        1 MOL1         0.6132
       2    O1      16.304198   19.814630   21.705528 O.co2      1 MOL1        -0.6749
       3    O2      17.273391   20.151479   19.825569 O.co2      1 MOL1        -0.6749
       4    C2      18.514671   20.621394   21.772400 C.3        1 MOL1        -0.1955
       5    H1      18.197373   21.241715   22.618588 H          1 MOL1         0.0733
       6    H2      19.086412   21.268815   21.096679 H          1 MOL1         0.0733
       7    C3      19.363287   19.464355   22.264187 C.2        1 MOL1        -0.1395
       8    H3      18.919294   18.867402   23.060252 H          1 MOL1         0.0816
       9    C4      20.572502   19.161676   21.782094 C.2        1 MOL1        -0.1394
      10    H4      21.014611   19.757220   20.984017 H          1 MOL1         0.0816
      11    C5      21.415651   18.005267   22.271113 C.3        1 MOL1        -0.1826
      12    H5      20.809373   17.315680   22.874533 H          1 MOL1         0.0736
      13    H6      21.788139   17.429267   21.413201 H          1 MOL1         0.0736
      14    C6      22.607389   18.504935   23.110846 C.3        1 MOL1        -0.2882
      15    H7      22.258327   19.062820   23.989778 H          1 MOL1         0.0749
      16    H8      23.215784   17.661474   23.462294 H          1 MOL1         0.0749
      17    H9      23.252916   19.167449   22.519408 H          1 MOL1         0.0749
@<TRIPOS>BOND
    1     1     2    1
    2     1     3    2
    3     1     4    1
    4     4     5    1
    5     4     6    1
    6     4     7    1
    7     7     8    1
    8     7     9    2
    9     9    10    1
   10     9    11    1
   11    11    12    1
   12    11    13    1
   13    11    14    1
   14    14    15    1
   15    14    16    1
   16    14    17    1
@<TRIPOS>SUBSTRUCTURE
       1 MOL1            1 RESIDUE      1      MOL     
@<SCITEGIC>MOL_PROPERTY
VConf Rank
SciTegic.value.IntegerValue
821

@<SCITEGIC>MOL_PROPERTY
Conf_Id
SciTegic.value.IntegerValue
38

@<SCITEGIC>MOL_PROPERTY
Delta U+W
SciTegic.value.DoubleValue
0.000

@<SCITEGIC>MOL_PROPERTY
U+W
SciTegic.value.DoubleValue
-49.427

@<SCITEGIC>MOL_PROPERTY
Grad RMS
SciTegic.value.DoubleValue
0.000000

@<SCITEGIC>MOL_PROPERTY
U
SciTegic.value.DoubleValue
13.666

@<SCITEGIC>MOL_PROPERTY
W
SciTegic.value.DoubleValue
-63.093

@<SCITEGIC>MOL_PROPERTY
W(PB)
SciTegic.value.DoubleValue
-65.225

@<SCITEGIC>MOL_PROPERTY
W(SA)
SciTegic.value.DoubleValue
2.132

@<SCITEGIC>MOL_PROPERTY
Valence
SciTegic.value.DoubleValue
15.226

@<SCITEGIC>MOL_PROPERTY
Coulomb
SciTegic.value.DoubleValue
-1.822

@<SCITEGIC>MOL_PROPERTY
VdW
SciTegic.value.DoubleValue
0.261

@<SCITEGIC>MOL_PROPERTY
VdW6
SciTegic.value.DoubleValue
-4.165

@<SCITEGIC>MOL_PROPERTY
VdW12
SciTegic.value.DoubleValue
4.426

@<SCITEGIC>MOL_PROPERTY
Bond
SciTegic.value.DoubleValue
0.044

@<SCITEGIC>MOL_PROPERTY
Angle
SciTegic.value.DoubleValue
2.229

@<SCITEGIC>MOL_PROPERTY
Pdih
SciTegic.value.DoubleValue
12.953

@<SCITEGIC>MOL_PROPERTY
Idih
SciTegic.value.DoubleValue
0.000

@<SCITEGIC>MOL_PROPERTY
Tether
SciTegic.value.DoubleValue
0.000

@<TRIPOS>MOLECULE
guest-s20_confgen4.mol2 : confsearch ligand conformer 822
          17          16           1
SMALL
USER_CHARGES
 
@<TRIPOS>ATOM
       1    C1      23.216906   19.654971   21.852253 C.2        1 MOL1         0.6132
       2    O1      23.485592   20.830427   22.003674 O.co2      1 MOL1        -0.6749
       3    O2      23.791476   18.930490   21.063610 O.co2      1 MOL1        -0.6749
       4    C2      22.103502   19.053641   22.699801 C.3        1 MOL1        -0.1955
       5    H1      21.993545   19.663487   23.604587 H          1 MOL1         0.0733
       6    H2      22.428551   18.057644   23.022044 H          1 MOL1         0.0733
       7    C3      20.789905   18.954799   21.947846 C.2        1 MOL1        -0.1395
       8    H3      20.776838   18.238735   21.126698 H          1 MOL1         0.0816
       9    C4      19.703062   19.677103   22.236425 C.2        1 MOL1        -0.1394
      10    H4      19.717812   20.395244   23.055642 H          1 MOL1         0.0816
      11    C5      18.395295   19.580064   21.482998 C.3        1 MOL1        -0.1826
      12    H5      18.040819   20.587066   21.224491 H          1 MOL1         0.0736
      13    H6      18.536691   19.042613   20.535173 H          1 MOL1         0.0736
      14    C6      17.324039   18.858391   22.323628 C.3        1 MOL1        -0.2882
      15    H7      17.134471   19.396173   23.261863 H          1 MOL1         0.0749
      16    H8      16.377262   18.791654   21.772043 H          1 MOL1         0.0749
      17    H9      17.645758   17.838602   22.572881 H          1 MOL1         0.0749
@<TRIPOS>BOND
    1     1     2    1
    2     1     3    2
    3     1     4    1
    4     4     5    1
    5     4     6    1
    6     4     7    1
    7     7     8    1
    8     7     9    2
    9     9    10    1
   10     9    11    1
   11    11    12    1
   12    11    13    1
   13    11    14    1
   14    14    15    1
   15    14    16    1
   16    14    17    1
@<TRIPOS>SUBSTRUCTURE
       1 MOL1            1 RESIDUE      1      MOL     
@<SCITEGIC>MOL_PROPERTY
VConf Rank
SciTegic.value.IntegerValue
822

@<SCITEGIC>MOL_PROPERTY
Conf_Id
SciTegic.value.IntegerValue
35

@<SCITEGIC>MOL_PROPERTY
Delta U+W
SciTegic.value.DoubleValue
-0.102

@<SCITEGIC>MOL_PROPERTY
U+W
SciTegic.value.DoubleValue
-49.529

@<SCITEGIC>MOL_PROPERTY
Grad RMS
SciTegic.value.DoubleValue
0.000000

@<SCITEGIC>MOL_PROPERTY
U
SciTegic.value.DoubleValue
13.666

@<SCITEGIC>MOL_PROPERTY
W
SciTegic.value.DoubleValue
-63.195

@<SCITEGIC>MOL_PROPERTY
W(PB)
SciTegic.value.DoubleValue
-65.299

@<SCITEGIC>MOL_PROPERTY
W(SA)
SciTegic.value.DoubleValue
2.103

@<SCITEGIC>MOL_PROPERTY
Valence
SciTegic.value.DoubleValue
15.226

@<SCITEGIC>MOL_PROPERTY
Coulomb
SciTegic.value.DoubleValue
-1.822

@<SCITEGIC>MOL_PROPERTY
VdW
SciTegic.value.DoubleValue
0.261

@<SCITEGIC>MOL_PROPERTY
VdW6
SciTegic.value.DoubleValue
-4.165

@<SCITEGIC>MOL_PROPERTY
VdW12
SciTegic.value.DoubleValue
4.426

@<SCITEGIC>MOL_PROPERTY
Bond
SciTegic.value.DoubleValue
0.044

@<SCITEGIC>MOL_PROPERTY
Angle
SciTegic.value.DoubleValue
2.229

@<SCITEGIC>MOL_PROPERTY
Pdih
SciTegic.value.DoubleValue
12.953

@<SCITEGIC>MOL_PROPERTY
Idih
SciTegic.value.DoubleValue
0.000

@<SCITEGIC>MOL_PROPERTY
Tether
SciTegic.value.DoubleValue
0.000

@<TRIPOS>MOLECULE
guest-s20_confgen4.mol2 : confsearch ligand conformer 823
          17          16           1
SMALL
USER_CHARGES
 
@<TRIPOS>ATOM
       1    C1      22.693820   17.652783   22.916395 C.2        1 MOL1         0.6132
       2    O1      23.565343   17.899798   22.106209 O.co2      1 MOL1        -0.6749
       3    O2      22.874727   17.649860   24.118108 O.co2      1 MOL1        -0.6749
       4    C2      21.302157   17.319744   22.394807 C.3        1 MOL1        -0.1955
       5    H1      20.783525   16.725482   23.156686 H          1 MOL1         0.0733
       6    H2      21.419560   16.678599   21.513524 H          1 MOL1         0.0733
       7    C3      20.505368   18.559315   22.034255 C.2        1 MOL1        -0.1395
       8    H3      20.885150   19.109513   21.175106 H          1 MOL1         0.0816
       9    C4      19.421564   18.971658   22.703622 C.2        1 MOL1        -0.1394
      10    H4      19.073464   18.397306   23.561544 H          1 MOL1         0.0816
      11    C5      18.581056   20.200699   22.400975 C.3        1 MOL1        -0.1826
      12    H5      17.541311   19.889175   22.232487 H          1 MOL1         0.0736
      13    H6      18.555915   20.843278   23.291470 H          1 MOL1         0.0736
      14    C6      19.058283   21.035533   21.192118 C.3        1 MOL1        -0.2882
      15    H7      19.044418   20.438489   20.270843 H          1 MOL1         0.0749
      16    H8      18.402583   21.902751   21.040396 H          1 MOL1         0.0749
      17    H9      20.078620   21.409137   21.349674 H          1 MOL1         0.0749
@<TRIPOS>BOND
    1     1     2    1
    2     1     3    2
    3     1     4    1
    4     4     5    1
    5     4     6    1
    6     4     7    1
    7     7     8    1
    8     7     9    2
    9     9    10    1
   10     9    11    1
   11    11    12    1
   12    11    13    1
   13    11    14    1
   14    14    15    1
   15    14    16    1
   16    14    17    1
@<TRIPOS>SUBSTRUCTURE
       1 MOL1            1 RESIDUE      1      MOL     
@<SCITEGIC>MOL_PROPERTY
VConf Rank
SciTegic.value.IntegerValue
823

@<SCITEGIC>MOL_PROPERTY
Conf_Id
SciTegic.value.IntegerValue
19

@<SCITEGIC>MOL_PROPERTY
Delta U+W
SciTegic.value.DoubleValue
-0.496

@<SCITEGIC>MOL_PROPERTY
U+W
SciTegic.value.DoubleValue
-49.923

@<SCITEGIC>MOL_PROPERTY
Grad RMS
SciTegic.value.DoubleValue
0.000000

@<SCITEGIC>MOL_PROPERTY
U
SciTegic.value.DoubleValue
13.863

@<SCITEGIC>MOL_PROPERTY
W
SciTegic.value.DoubleValue
-63.786

@<SCITEGIC>MOL_PROPERTY
W(PB)
SciTegic.value.DoubleValue
-65.856

@<SCITEGIC>MOL_PROPERTY
W(SA)
SciTegic.value.DoubleValue
2.070

@<SCITEGIC>MOL_PROPERTY
Valence
SciTegic.value.DoubleValue
14.117

@<SCITEGIC>MOL_PROPERTY
Coulomb
SciTegic.value.DoubleValue
-1.228

@<SCITEGIC>MOL_PROPERTY
VdW
SciTegic.value.DoubleValue
0.974

@<SCITEGIC>MOL_PROPERTY
VdW6
SciTegic.value.DoubleValue
-4.885

@<SCITEGIC>MOL_PROPERTY
VdW12
SciTegic.value.DoubleValue
5.859

@<SCITEGIC>MOL_PROPERTY
Bond
SciTegic.value.DoubleValue
0.094

@<SCITEGIC>MOL_PROPERTY
Angle
SciTegic.value.DoubleValue
2.818

@<SCITEGIC>MOL_PROPERTY
Pdih
SciTegic.value.DoubleValue
11.205

@<SCITEGIC>MOL_PROPERTY
Idih
SciTegic.value.DoubleValue
0.000

@<SCITEGIC>MOL_PROPERTY
Tether
SciTegic.value.DoubleValue
0.000

@<TRIPOS>MOLECULE
guest-s20_confgen4.mol2 : confsearch ligand conformer 824
          17          16           1
SMALL
USER_CHARGES
 
@<TRIPOS>ATOM
       1    C1      19.913431   16.346883   23.295658 C.2        1 MOL1         0.6132
       2    O1      18.708812   16.190817   23.332390 O.co2      1 MOL1        -0.6749
       3    O2      20.685461   15.517191   22.856815 O.co2      1 MOL1        -0.6749
       4    C2      20.490214   17.647861   23.838432 C.3        1 MOL1        -0.1955
       5    H1      21.389006   17.400543   24.415054 H          1 MOL1         0.0733
       6    H2      19.766171   18.077460   24.541184 H          1 MOL1         0.0733
       7    C3      20.832083   18.635086   22.738761 C.2        1 MOL1        -0.1395
       8    H3      21.656716   18.341335   22.089989 H          1 MOL1         0.0816
       9    C4      20.189016   19.789564   22.539107 C.2        1 MOL1        -0.1394
      10    H4      19.361158   20.080379   23.184968 H          1 MOL1         0.0816
      11    C5      20.529611   20.771204   21.440147 C.3        1 MOL1        -0.1826
      12    H5      20.601797   21.784760   21.857300 H          1 MOL1         0.0736
      13    H6      21.511983   20.537671   21.007001 H          1 MOL1         0.0736
      14    C6      19.463459   20.748111   20.327592 C.3        1 MOL1        -0.2882
      15    H7      18.476067   21.016415   20.725707 H          1 MOL1         0.0749
      16    H8      19.715751   21.461847   19.532609 H          1 MOL1         0.0749
      17    H9      19.390840   19.748880   19.878207 H          1 MOL1         0.0749
@<TRIPOS>BOND
    1     1     2    1
    2     1     3    2
    3     1     4    1
    4     4     5    1
    5     4     6    1
    6     4     7    1
    7     7     8    1
    8     7     9    2
    9     9    10    1
   10     9    11    1
   11    11    12    1
   12    11    13    1
   13    11    14    1
   14    14    15    1
   15    14    16    1
   16    14    17    1
@<TRIPOS>SUBSTRUCTURE
       1 MOL1            1 RESIDUE      1      MOL     
@<SCITEGIC>MOL_PROPERTY
VConf Rank
SciTegic.value.IntegerValue
824

@<SCITEGIC>MOL_PROPERTY
Conf_Id
SciTegic.value.IntegerValue
7

@<SCITEGIC>MOL_PROPERTY
Delta U+W
SciTegic.value.DoubleValue
-0.041

@<SCITEGIC>MOL_PROPERTY
U+W
SciTegic.value.DoubleValue
-49.468

@<SCITEGIC>MOL_PROPERTY
Grad RMS
SciTegic.value.DoubleValue
0.000000

@<SCITEGIC>MOL_PROPERTY
U
SciTegic.value.DoubleValue
14.121

@<SCITEGIC>MOL_PROPERTY
W
SciTegic.value.DoubleValue
-63.589

@<SCITEGIC>MOL_PROPERTY
W(PB)
SciTegic.value.DoubleValue
-65.660

@<SCITEGIC>MOL_PROPERTY
W(SA)
SciTegic.value.DoubleValue
2.071

@<SCITEGIC>MOL_PROPERTY
Valence
SciTegic.value.DoubleValue
15.230

@<SCITEGIC>MOL_PROPERTY
Coulomb
SciTegic.value.DoubleValue
-1.333

@<SCITEGIC>MOL_PROPERTY
VdW
SciTegic.value.DoubleValue
0.224

@<SCITEGIC>MOL_PROPERTY
VdW6
SciTegic.value.DoubleValue
-4.212

@<SCITEGIC>MOL_PROPERTY
VdW12
SciTegic.value.DoubleValue
4.436

@<SCITEGIC>MOL_PROPERTY
Bond
SciTegic.value.DoubleValue
0.044

@<SCITEGIC>MOL_PROPERTY
Angle
SciTegic.value.DoubleValue
2.230

@<SCITEGIC>MOL_PROPERTY
Pdih
SciTegic.value.DoubleValue
12.956

@<SCITEGIC>MOL_PROPERTY
Idih
SciTegic.value.DoubleValue
0.000

@<SCITEGIC>MOL_PROPERTY
Tether
SciTegic.value.DoubleValue
0.000

@<TRIPOS>MOLECULE
guest-s20_confgen4.mol2 : confsearch ligand conformer 825
          17          16           1
SMALL
USER_CHARGES
 
@<TRIPOS>ATOM
       1    C1      21.638199   17.121127   21.416412 C.2        1 MOL1         0.6132
       2    O1      21.857358   16.561865   22.472910 O.co2      1 MOL1        -0.6749
       3    O2      22.511193   17.451970   20.638270 O.co2      1 MOL1        -0.6749
       4    C2      20.187567   17.397827   21.033423 C.3        1 MOL1        -0.1955
       5    H1      19.569719   16.596317   21.454866 H          1 MOL1         0.0733
       6    H2      20.103725   17.302162   19.944599 H          1 MOL1         0.0733
       7    C3      19.638701   18.748518   21.470752 C.2        1 MOL1        -0.1395
       8    H3      18.601969   18.925521   21.187198 H          1 MOL1         0.0816
       9    C4      20.308769   19.687762   22.148855 C.2        1 MOL1        -0.1394
      10    H4      21.345929   19.535674   22.445338 H          1 MOL1         0.0816
      11    C5      19.715857   21.017491   22.559000 C.3        1 MOL1        -0.1826
      12    H5      20.406512   21.828993   22.292584 H          1 MOL1         0.0736
      13    H6      18.781315   21.207267   22.013317 H          1 MOL1         0.0736
      14    C6      19.438258   21.056013   24.074418 C.3        1 MOL1        -0.2882
      15    H7      19.009515   22.023422   24.366579 H          1 MOL1         0.0749
      16    H8      18.729005   20.268294   24.360865 H          1 MOL1         0.0749
      17    H9      20.363814   20.906848   24.645868 H          1 MOL1         0.0749
@<TRIPOS>BOND
    1     1     2    1
    2     1     3    2
    3     1     4    1
    4     4     5    1
    5     4     6    1
    6     4     7    1
    7     7     8    1
    8     7     9    2
    9     9    10    1
   10     9    11    1
   11    11    12    1
   12    11    13    1
   13    11    14    1
   14    14    15    1
   15    14    16    1
   16    14    17    1
@<TRIPOS>SUBSTRUCTURE
       1 MOL1            1 RESIDUE      1      MOL     
@<SCITEGIC>MOL_PROPERTY
VConf Rank
SciTegic.value.IntegerValue
825

@<SCITEGIC>MOL_PROPERTY
Conf_Id
SciTegic.value.IntegerValue
39

@<SCITEGIC>MOL_PROPERTY
Delta U+W
SciTegic.value.DoubleValue
-0.422

@<SCITEGIC>MOL_PROPERTY
U+W
SciTegic.value.DoubleValue
-49.849

@<SCITEGIC>MOL_PROPERTY
Grad RMS
SciTegic.value.DoubleValue
0.000000

@<SCITEGIC>MOL_PROPERTY
U
SciTegic.value.DoubleValue
14.465

@<SCITEGIC>MOL_PROPERTY
W
SciTegic.value.DoubleValue
-64.314

@<SCITEGIC>MOL_PROPERTY
W(PB)
SciTegic.value.DoubleValue
-66.406

@<SCITEGIC>MOL_PROPERTY
W(SA)
SciTegic.value.DoubleValue
2.093

@<SCITEGIC>MOL_PROPERTY
Valence
SciTegic.value.DoubleValue
14.072

@<SCITEGIC>MOL_PROPERTY
Coulomb
SciTegic.value.DoubleValue
-0.199

@<SCITEGIC>MOL_PROPERTY
VdW
SciTegic.value.DoubleValue
0.592

@<SCITEGIC>MOL_PROPERTY
VdW6
SciTegic.value.DoubleValue
-5.019

@<SCITEGIC>MOL_PROPERTY
VdW12
SciTegic.value.DoubleValue
5.611

@<SCITEGIC>MOL_PROPERTY
Bond
SciTegic.value.DoubleValue
0.085

@<SCITEGIC>MOL_PROPERTY
Angle
SciTegic.value.DoubleValue
2.748

@<SCITEGIC>MOL_PROPERTY
Pdih
SciTegic.value.DoubleValue
11.238

@<SCITEGIC>MOL_PROPERTY
Idih
SciTegic.value.DoubleValue
0.001

@<SCITEGIC>MOL_PROPERTY
Tether
SciTegic.value.DoubleValue
0.000

@<TRIPOS>MOLECULE
guest-s20_confgen4.mol2 : confsearch ligand conformer 826
          17          16           1
SMALL
USER_CHARGES
 
@<TRIPOS>ATOM
       1    C1      21.087572   17.179359   24.267215 C.2        1 MOL1         0.6132
       2    O1      20.686711   17.343751   25.402665 O.co2      1 MOL1        -0.6749
       3    O2      22.220140   16.830312   23.998377 O.co2      1 MOL1        -0.6749
       4    C2      20.114352   17.419163   23.120506 C.3        1 MOL1        -0.1955
       5    H1      19.142651   17.005281   23.413777 H          1 MOL1         0.0733
       6    H2      20.458862   16.844608   22.252267 H          1 MOL1         0.0733
       7    C3      19.971903   18.889805   22.777481 C.2        1 MOL1        -0.1395
       8    H3      19.484475   19.499557   23.537625 H          1 MOL1         0.0816
       9    C4      20.401389   19.440274   21.637852 C.2        1 MOL1        -0.1394
      10    H4      20.891377   18.830524   20.879449 H          1 MOL1         0.0816
      11    C5      20.261865   20.907628   21.299139 C.3        1 MOL1        -0.1826
      12    H5      20.002981   21.486343   22.196518 H          1 MOL1         0.0736
      13    H6      21.223321   21.297950   20.938879 H          1 MOL1         0.0736
      14    C6      19.182091   21.127087   20.221648 C.3        1 MOL1        -0.2882
      15    H7      18.204948   20.767254   20.569948 H          1 MOL1         0.0749
      16    H8      19.085881   22.193504   19.979606 H          1 MOL1         0.0749
      17    H9      19.435193   20.589708   19.298289 H          1 MOL1         0.0749
@<TRIPOS>BOND
    1     1     2    1
    2     1     3    2
    3     1     4    1
    4     4     5    1
    5     4     6    1
    6     4     7    1
    7     7     8    1
    8     7     9    2
    9     9    10    1
   10     9    11    1
   11    11    12    1
   12    11    13    1
   13    11    14    1
   14    14    15    1
   15    14    16    1
   16    14    17    1
@<TRIPOS>SUBSTRUCTURE
       1 MOL1            1 RESIDUE      1      MOL     
@<SCITEGIC>MOL_PROPERTY
VConf Rank
SciTegic.value.IntegerValue
826

@<SCITEGIC>MOL_PROPERTY
Conf_Id
SciTegic.value.IntegerValue
38

@<SCITEGIC>MOL_PROPERTY
Delta U+W
SciTegic.value.DoubleValue
0.000

@<SCITEGIC>MOL_PROPERTY
U+W
SciTegic.value.DoubleValue
-49.427

@<SCITEGIC>MOL_PROPERTY
Grad RMS
SciTegic.value.DoubleValue
0.000000

@<SCITEGIC>MOL_PROPERTY
U
SciTegic.value.DoubleValue
13.666

@<SCITEGIC>MOL_PROPERTY
W
SciTegic.value.DoubleValue
-63.093

@<SCITEGIC>MOL_PROPERTY
W(PB)
SciTegic.value.DoubleValue
-65.225

@<SCITEGIC>MOL_PROPERTY
W(SA)
SciTegic.value.DoubleValue
2.132

@<SCITEGIC>MOL_PROPERTY
Valence
SciTegic.value.DoubleValue
15.226

@<SCITEGIC>MOL_PROPERTY
Coulomb
SciTegic.value.DoubleValue
-1.822

@<SCITEGIC>MOL_PROPERTY
VdW
SciTegic.value.DoubleValue
0.261

@<SCITEGIC>MOL_PROPERTY
VdW6
SciTegic.value.DoubleValue
-4.165

@<SCITEGIC>MOL_PROPERTY
VdW12
SciTegic.value.DoubleValue
4.426

@<SCITEGIC>MOL_PROPERTY
Bond
SciTegic.value.DoubleValue
0.044

@<SCITEGIC>MOL_PROPERTY
Angle
SciTegic.value.DoubleValue
2.229

@<SCITEGIC>MOL_PROPERTY
Pdih
SciTegic.value.DoubleValue
12.953

@<SCITEGIC>MOL_PROPERTY
Idih
SciTegic.value.DoubleValue
0.000

@<SCITEGIC>MOL_PROPERTY
Tether
SciTegic.value.DoubleValue
0.000

@<TRIPOS>MOLECULE
guest-s20_confgen4.mol2 : confsearch ligand conformer 827
          17          16           1
SMALL
USER_CHARGES
 
@<TRIPOS>ATOM
       1    C1      17.224636   19.492215   20.771257 C.2        1 MOL1         0.6132
       2    O1      16.379662   19.185467   21.589024 O.co2      1 MOL1        -0.6749
       3    O2      17.152031   19.209424   19.591546 O.co2      1 MOL1        -0.6749
       4    C2      18.438860   20.278569   21.247608 C.3        1 MOL1        -0.1955
       5    H1      18.167058   20.803117   22.171520 H          1 MOL1         0.0733
       6    H2      18.657128   21.045733   20.495726 H          1 MOL1         0.0733
       7    C3      19.654795   19.397126   21.460458 C.2        1 MOL1        -0.1395
       8    H3      20.081860   18.967289   20.554888 H          1 MOL1         0.0816
       9    C4      20.194454   19.137585   22.655295 C.2        1 MOL1        -0.1394
      10    H4      19.764988   19.565168   23.560719 H          1 MOL1         0.0816
      11    C5      21.404558   18.255220   22.866009 C.3        1 MOL1        -0.1826
      12    H5      21.202169   17.534188   23.669554 H          1 MOL1         0.0736
      13    H6      21.614542   17.668270   21.961235 H          1 MOL1         0.0736
      14    C6      22.645281   19.094184   23.229061 C.3        1 MOL1        -0.2882
      15    H7      22.476834   19.663090   24.152857 H          1 MOL1         0.0749
      16    H8      23.519883   18.448472   23.381418 H          1 MOL1         0.0749
      17    H9      22.882786   19.805986   22.427482 H          1 MOL1         0.0749
@<TRIPOS>BOND
    1     1     2    1
    2     1     3    2
    3     1     4    1
    4     4     5    1
    5     4     6    1
    6     4     7    1
    7     7     8    1
    8     7     9    2
    9     9    10    1
   10     9    11    1
   11    11    12    1
   12    11    13    1
   13    11    14    1
   14    14    15    1
   15    14    16    1
   16    14    17    1
@<TRIPOS>SUBSTRUCTURE
       1 MOL1            1 RESIDUE      1      MOL     
@<SCITEGIC>MOL_PROPERTY
VConf Rank
SciTegic.value.IntegerValue
827

@<SCITEGIC>MOL_PROPERTY
Conf_Id
SciTegic.value.IntegerValue
35

@<SCITEGIC>MOL_PROPERTY
Delta U+W
SciTegic.value.DoubleValue
-0.102

@<SCITEGIC>MOL_PROPERTY
U+W
SciTegic.value.DoubleValue
-49.529

@<SCITEGIC>MOL_PROPERTY
Grad RMS
SciTegic.value.DoubleValue
0.000000

@<SCITEGIC>MOL_PROPERTY
U
SciTegic.value.DoubleValue
13.666

@<SCITEGIC>MOL_PROPERTY
W
SciTegic.value.DoubleValue
-63.195

@<SCITEGIC>MOL_PROPERTY
W(PB)
SciTegic.value.DoubleValue
-65.299

@<SCITEGIC>MOL_PROPERTY
W(SA)
SciTegic.value.DoubleValue
2.103

@<SCITEGIC>MOL_PROPERTY
Valence
SciTegic.value.DoubleValue
15.226

@<SCITEGIC>MOL_PROPERTY
Coulomb
SciTegic.value.DoubleValue
-1.822

@<SCITEGIC>MOL_PROPERTY
VdW
SciTegic.value.DoubleValue
0.261

@<SCITEGIC>MOL_PROPERTY
VdW6
SciTegic.value.DoubleValue
-4.165

@<SCITEGIC>MOL_PROPERTY
VdW12
SciTegic.value.DoubleValue
4.426

@<SCITEGIC>MOL_PROPERTY
Bond
SciTegic.value.DoubleValue
0.044

@<SCITEGIC>MOL_PROPERTY
Angle
SciTegic.value.DoubleValue
2.229

@<SCITEGIC>MOL_PROPERTY
Pdih
SciTegic.value.DoubleValue
12.953

@<SCITEGIC>MOL_PROPERTY
Idih
SciTegic.value.DoubleValue
0.000

@<SCITEGIC>MOL_PROPERTY
Tether
SciTegic.value.DoubleValue
0.000

@<TRIPOS>MOLECULE
guest-s20_confgen4.mol2 : confsearch ligand conformer 828
          17          16           1
SMALL
USER_CHARGES
 
@<TRIPOS>ATOM
       1    C1      18.014474   18.969137   20.250820 C.2        1 MOL1         0.6132
       2    O1      16.947478   18.983175   20.832450 O.co2      1 MOL1        -0.6749
       3    O2      18.252449   19.641753   19.267049 O.co2      1 MOL1        -0.6749
       4    C2      19.108430   18.050831   20.779658 C.3        1 MOL1        -0.1955
       5    H1      19.795780   17.826141   19.955250 H          1 MOL1         0.0733
       6    H2      18.638758   17.104579   21.072105 H          1 MOL1         0.0733
       7    C3      19.849617   18.650576   21.959638 C.2        1 MOL1        -0.1395
       8    H3      19.255045   18.751312   22.865963 H          1 MOL1         0.0816
       9    C4      21.130160   19.039418   21.918130 C.2        1 MOL1        -0.1394
      10    H4      21.692370   18.927074   20.991641 H          1 MOL1         0.0816
      11    C5      21.930905   19.648958   23.056489 C.3        1 MOL1        -0.1826
      12    H5      22.817292   19.027336   23.241987 H          1 MOL1         0.0736
      13    H6      22.317486   20.626164   22.736890 H          1 MOL1         0.0736
      14    C6      21.153561   19.824340   24.379745 C.3        1 MOL1        -0.2882
      15    H7      20.797372   18.857393   24.758616 H          1 MOL1         0.0749
      16    H8      21.798159   20.269672   25.148641 H          1 MOL1         0.0749
      17    H9      20.287527   20.485262   24.243147 H          1 MOL1         0.0749
@<TRIPOS>BOND
    1     1     2    1
    2     1     3    2
    3     1     4    1
    4     4     5    1
    5     4     6    1
    6     4     7    1
    7     7     8    1
    8     7     9    2
    9     9    10    1
   10     9    11    1
   11    11    12    1
   12    11    13    1
   13    11    14    1
   14    14    15    1
   15    14    16    1
   16    14    17    1
@<TRIPOS>SUBSTRUCTURE
       1 MOL1            1 RESIDUE      1      MOL     
@<SCITEGIC>MOL_PROPERTY
VConf Rank
SciTegic.value.IntegerValue
828

@<SCITEGIC>MOL_PROPERTY
Conf_Id
SciTegic.value.IntegerValue
19

@<SCITEGIC>MOL_PROPERTY
Delta U+W
SciTegic.value.DoubleValue
-0.496

@<SCITEGIC>MOL_PROPERTY
U+W
SciTegic.value.DoubleValue
-49.923

@<SCITEGIC>MOL_PROPERTY
Grad RMS
SciTegic.value.DoubleValue
0.000000

@<SCITEGIC>MOL_PROPERTY
U
SciTegic.value.DoubleValue
13.863

@<SCITEGIC>MOL_PROPERTY
W
SciTegic.value.DoubleValue
-63.786

@<SCITEGIC>MOL_PROPERTY
W(PB)
SciTegic.value.DoubleValue
-65.856

@<SCITEGIC>MOL_PROPERTY
W(SA)
SciTegic.value.DoubleValue
2.070

@<SCITEGIC>MOL_PROPERTY
Valence
SciTegic.value.DoubleValue
14.117

@<SCITEGIC>MOL_PROPERTY
Coulomb
SciTegic.value.DoubleValue
-1.228

@<SCITEGIC>MOL_PROPERTY
VdW
SciTegic.value.DoubleValue
0.974

@<SCITEGIC>MOL_PROPERTY
VdW6
SciTegic.value.DoubleValue
-4.885

@<SCITEGIC>MOL_PROPERTY
VdW12
SciTegic.value.DoubleValue
5.859

@<SCITEGIC>MOL_PROPERTY
Bond
SciTegic.value.DoubleValue
0.094

@<SCITEGIC>MOL_PROPERTY
Angle
SciTegic.value.DoubleValue
2.818

@<SCITEGIC>MOL_PROPERTY
Pdih
SciTegic.value.DoubleValue
11.205

@<SCITEGIC>MOL_PROPERTY
Idih
SciTegic.value.DoubleValue
0.000

@<SCITEGIC>MOL_PROPERTY
Tether
SciTegic.value.DoubleValue
0.000

@<TRIPOS>MOLECULE
guest-s20_confgen4.mol2 : confsearch ligand conformer 829
          17          16           1
SMALL
USER_CHARGES
 
@<TRIPOS>ATOM
       1    C1      22.100041   19.977710   20.208536 C.2        1 MOL1         0.6132
       2    O1      23.135493   20.000267   20.844256 O.co2      1 MOL1        -0.6749
       3    O2      22.003180   19.491400   19.098976 O.co2      1 MOL1        -0.6749
       4    C2      20.857259   20.601835   20.829655 C.3        1 MOL1        -0.1955
       5    H1      20.338412   21.165442   20.045671 H          1 MOL1         0.0733
       6    H2      21.179200   21.327050   21.586669 H          1 MOL1         0.0733
       7    C3      19.925576   19.566429   21.430207 C.2        1 MOL1        -0.1395
       8    H3      19.442393   18.903843   20.712761 H          1 MOL1         0.0816
       9    C4      19.691566   19.435974   22.739573 C.2        1 MOL1        -0.1394
      10    H4      20.178978   20.095461   23.456906 H          1 MOL1         0.0816
      11    C5      18.764412   18.400927   23.336563 C.3        1 MOL1        -0.1826
      12    H5      18.088983   18.880068   24.058188 H          1 MOL1         0.0736
      13    H6      18.129845   17.957858   22.556677 H          1 MOL1         0.0736
      14    C6      19.560806   17.285110   24.040623 C.3        1 MOL1        -0.2882
      15    H7      20.175966   17.695343   24.852235 H          1 MOL1         0.0749
      16    H8      18.883241   16.536609   24.471574 H          1 MOL1         0.0749
      17    H9      20.226227   16.774683   23.331851 H          1 MOL1         0.0749
@<TRIPOS>BOND
    1     1     2    1
    2     1     3    2
    3     1     4    1
    4     4     5    1
    5     4     6    1
    6     4     7    1
    7     7     8    1
    8     7     9    2
    9     9    10    1
   10     9    11    1
   11    11    12    1
   12    11    13    1
   13    11    14    1
   14    14    15    1
   15    14    16    1
   16    14    17    1
@<TRIPOS>SUBSTRUCTURE
       1 MOL1            1 RESIDUE      1      MOL     
@<SCITEGIC>MOL_PROPERTY
VConf Rank
SciTegic.value.IntegerValue
829

@<SCITEGIC>MOL_PROPERTY
Conf_Id
SciTegic.value.IntegerValue
7

@<SCITEGIC>MOL_PROPERTY
Delta U+W
SciTegic.value.DoubleValue
-0.041

@<SCITEGIC>MOL_PROPERTY
U+W
SciTegic.value.DoubleValue
-49.468

@<SCITEGIC>MOL_PROPERTY
Grad RMS
SciTegic.value.DoubleValue
0.000000

@<SCITEGIC>MOL_PROPERTY
U
SciTegic.value.DoubleValue
14.121

@<SCITEGIC>MOL_PROPERTY
W
SciTegic.value.DoubleValue
-63.589

@<SCITEGIC>MOL_PROPERTY
W(PB)
SciTegic.value.DoubleValue
-65.660

@<SCITEGIC>MOL_PROPERTY
W(SA)
SciTegic.value.DoubleValue
2.071

@<SCITEGIC>MOL_PROPERTY
Valence
SciTegic.value.DoubleValue
15.230

@<SCITEGIC>MOL_PROPERTY
Coulomb
SciTegic.value.DoubleValue
-1.333

@<SCITEGIC>MOL_PROPERTY
VdW
SciTegic.value.DoubleValue
0.224

@<SCITEGIC>MOL_PROPERTY
VdW6
SciTegic.value.DoubleValue
-4.212

@<SCITEGIC>MOL_PROPERTY
VdW12
SciTegic.value.DoubleValue
4.436

@<SCITEGIC>MOL_PROPERTY
Bond
SciTegic.value.DoubleValue
0.044

@<SCITEGIC>MOL_PROPERTY
Angle
SciTegic.value.DoubleValue
2.230

@<SCITEGIC>MOL_PROPERTY
Pdih
SciTegic.value.DoubleValue
12.956

@<SCITEGIC>MOL_PROPERTY
Idih
SciTegic.value.DoubleValue
0.000

@<SCITEGIC>MOL_PROPERTY
Tether
SciTegic.value.DoubleValue
0.000

@<TRIPOS>MOLECULE
guest-s20_confgen4.mol2 : confsearch ligand conformer 830
          17          16           1
SMALL
USER_CHARGES
 
@<TRIPOS>ATOM
       1    C1      20.313732   19.884474   19.579406 C.2        1 MOL1         0.6132
       2    O1      19.150408   20.117589   19.316107 O.co2      1 MOL1        -0.6749
       3    O2      20.991338   19.079448   18.971240 O.co2      1 MOL1        -0.6749
       4    C2      20.966772   20.664324   20.716485 C.3        1 MOL1        -0.1955
       5    H1      20.506880   21.658890   20.749728 H          1 MOL1         0.0733
       6    H2      22.017987   20.827061   20.451564 H          1 MOL1         0.0733
       7    C3      20.881390   20.016668   22.091305 C.2        1 MOL1        -0.1395
       8    H3      21.353780   20.589710   22.888184 H          1 MOL1         0.0816
       9    C4      20.292525   18.849024   22.375630 C.2        1 MOL1        -0.1394
      10    H4      19.812172   18.256802   21.597640 H          1 MOL1         0.0816
      11    C5      20.236585   18.247324   23.762269 C.3        1 MOL1        -0.1826
      12    H5      20.536472   17.191472   23.720283 H          1 MOL1         0.0736
      13    H6      20.949302   18.750968   24.429750 H          1 MOL1         0.0736
      14    C6      18.818444   18.355288   24.355782 C.3        1 MOL1        -0.2882
      15    H7      18.783371   17.915988   25.361190 H          1 MOL1         0.0749
      16    H8      18.506515   19.405322   24.431442 H          1 MOL1         0.0749
      17    H9      18.089733   17.826720   23.727250 H          1 MOL1         0.0749
@<TRIPOS>BOND
    1     1     2    1
    2     1     3    2
    3     1     4    1
    4     4     5    1
    5     4     6    1
    6     4     7    1
    7     7     8    1
    8     7     9    2
    9     9    10    1
   10     9    11    1
   11    11    12    1
   12    11    13    1
   13    11    14    1
   14    14    15    1
   15    14    16    1
   16    14    17    1
@<TRIPOS>SUBSTRUCTURE
       1 MOL1            1 RESIDUE      1      MOL     
@<SCITEGIC>MOL_PROPERTY
VConf Rank
SciTegic.value.IntegerValue
830

@<SCITEGIC>MOL_PROPERTY
Conf_Id
SciTegic.value.IntegerValue
39

@<SCITEGIC>MOL_PROPERTY
Delta U+W
SciTegic.value.DoubleValue
-0.422

@<SCITEGIC>MOL_PROPERTY
U+W
SciTegic.value.DoubleValue
-49.849

@<SCITEGIC>MOL_PROPERTY
Grad RMS
SciTegic.value.DoubleValue
0.000000

@<SCITEGIC>MOL_PROPERTY
U
SciTegic.value.DoubleValue
14.465

@<SCITEGIC>MOL_PROPERTY
W
SciTegic.value.DoubleValue
-64.314

@<SCITEGIC>MOL_PROPERTY
W(PB)
SciTegic.value.DoubleValue
-66.406

@<SCITEGIC>MOL_PROPERTY
W(SA)
SciTegic.value.DoubleValue
2.093

@<SCITEGIC>MOL_PROPERTY
Valence
SciTegic.value.DoubleValue
14.072

@<SCITEGIC>MOL_PROPERTY
Coulomb
SciTegic.value.DoubleValue
-0.199

@<SCITEGIC>MOL_PROPERTY
VdW
SciTegic.value.DoubleValue
0.592

@<SCITEGIC>MOL_PROPERTY
VdW6
SciTegic.value.DoubleValue
-5.019

@<SCITEGIC>MOL_PROPERTY
VdW12
SciTegic.value.DoubleValue
5.611

@<SCITEGIC>MOL_PROPERTY
Bond
SciTegic.value.DoubleValue
0.085

@<SCITEGIC>MOL_PROPERTY
Angle
SciTegic.value.DoubleValue
2.748

@<SCITEGIC>MOL_PROPERTY
Pdih
SciTegic.value.DoubleValue
11.238

@<SCITEGIC>MOL_PROPERTY
Idih
SciTegic.value.DoubleValue
0.001

@<SCITEGIC>MOL_PROPERTY
Tether
SciTegic.value.DoubleValue
0.000

@<TRIPOS>MOLECULE
guest-s20_confgen4.mol2 : confsearch ligand conformer 831
          17          16           1
SMALL
USER_CHARGES
 
@<TRIPOS>ATOM
       1    C1      19.791954   16.848856   24.114517 C.2        1 MOL1         0.6132
       2    O1      20.158742   15.761274   23.715023 O.co2      1 MOL1        -0.6749
       3    O2      18.792292   17.016337   24.784923 O.co2      1 MOL1        -0.6749
       4    C2      20.635445   18.066127   23.759022 C.3        1 MOL1        -0.1955
       5    H1      21.689868   17.783528   23.858215 H          1 MOL1         0.0733
       6    H2      20.441335   18.847399   24.503721 H          1 MOL1         0.0733
       7    C3      20.361825   18.572646   22.355698 C.2        1 MOL1        -0.1395
       8    H3      20.681207   17.910272   21.551673 H          1 MOL1         0.0816
       9    C4      19.771707   19.739723   22.080160 C.2        1 MOL1        -0.1394
      10    H4      19.449903   20.400231   22.884667 H          1 MOL1         0.0816
      11    C5      19.496274   20.241448   20.680257 C.3        1 MOL1        -0.1826
      12    H5      19.607592   19.427022   19.951189 H          1 MOL1         0.0736
      13    H6      18.456598   20.588573   20.608753 H          1 MOL1         0.0736
      14    C6      20.449395   21.393637   20.307319 C.3        1 MOL1        -0.2882
      15    H7      21.495531   21.062522   20.346874 H          1 MOL1         0.0749
      16    H8      20.244327   21.753897   19.290832 H          1 MOL1         0.0749
      17    H9      20.331719   22.238616   20.998399 H          1 MOL1         0.0749
@<TRIPOS>BOND
    1     1     2    1
    2     1     3    2
    3     1     4    1
    4     4     5    1
    5     4     6    1
    6     4     7    1
    7     7     8    1
    8     7     9    2
    9     9    10    1
   10     9    11    1
   11    11    12    1
   12    11    13    1
   13    11    14    1
   14    14    15    1
   15    14    16    1
   16    14    17    1
@<TRIPOS>SUBSTRUCTURE
       1 MOL1            1 RESIDUE      1      MOL     
@<SCITEGIC>MOL_PROPERTY
VConf Rank
SciTegic.value.IntegerValue
831

@<SCITEGIC>MOL_PROPERTY
Conf_Id
SciTegic.value.IntegerValue
38

@<SCITEGIC>MOL_PROPERTY
Delta U+W
SciTegic.value.DoubleValue
0.000

@<SCITEGIC>MOL_PROPERTY
U+W
SciTegic.value.DoubleValue
-49.427

@<SCITEGIC>MOL_PROPERTY
Grad RMS
SciTegic.value.DoubleValue
0.000000

@<SCITEGIC>MOL_PROPERTY
U
SciTegic.value.DoubleValue
13.666

@<SCITEGIC>MOL_PROPERTY
W
SciTegic.value.DoubleValue
-63.093

@<SCITEGIC>MOL_PROPERTY
W(PB)
SciTegic.value.DoubleValue
-65.225

@<SCITEGIC>MOL_PROPERTY
W(SA)
SciTegic.value.DoubleValue
2.132

@<SCITEGIC>MOL_PROPERTY
Valence
SciTegic.value.DoubleValue
15.226

@<SCITEGIC>MOL_PROPERTY
Coulomb
SciTegic.value.DoubleValue
-1.822

@<SCITEGIC>MOL_PROPERTY
VdW
SciTegic.value.DoubleValue
0.261

@<SCITEGIC>MOL_PROPERTY
VdW6
SciTegic.value.DoubleValue
-4.165

@<SCITEGIC>MOL_PROPERTY
VdW12
SciTegic.value.DoubleValue
4.426

@<SCITEGIC>MOL_PROPERTY
Bond
SciTegic.value.DoubleValue
0.044

@<SCITEGIC>MOL_PROPERTY
Angle
SciTegic.value.DoubleValue
2.229

@<SCITEGIC>MOL_PROPERTY
Pdih
SciTegic.value.DoubleValue
12.953

@<SCITEGIC>MOL_PROPERTY
Idih
SciTegic.value.DoubleValue
0.000

@<SCITEGIC>MOL_PROPERTY
Tether
SciTegic.value.DoubleValue
0.000

@<TRIPOS>MOLECULE
guest-s20_confgen4.mol2 : confsearch ligand conformer 832
          17          16           1
SMALL
USER_CHARGES
 
@<TRIPOS>ATOM
       1    C1      18.671555   21.772886   23.424184 C.2        1 MOL1         0.6132
       2    O1      19.475217   22.363024   24.118939 O.co2      1 MOL1        -0.6749
       3    O2      17.498869   21.643031   23.715569 O.co2      1 MOL1        -0.6749
       4    C2      19.157101   21.166953   22.113957 C.3        1 MOL1        -0.1955
       5    H1      20.058242   21.706954   21.799342 H          1 MOL1         0.0733
       6    H2      18.389690   21.353670   21.353875 H          1 MOL1         0.0733
       7    C3      19.426853   19.678600   22.227020 C.2        1 MOL1        -0.1395
       8    H3      18.545427   19.056480   22.379523 H          1 MOL1         0.0816
       9    C4      20.642371   19.127848   22.153423 C.2        1 MOL1        -0.1394
      10    H4      21.523652   19.750831   22.004100 H          1 MOL1         0.0816
      11    C5      20.909863   17.643901   22.270345 C.3        1 MOL1        -0.1826
      12    H5      21.728002   17.469679   22.982262 H          1 MOL1         0.0736
      13    H6      20.027995   17.124684   22.670273 H          1 MOL1         0.0736
      14    C6      21.281394   17.038645   20.902612 C.3        1 MOL1        -0.2882
      15    H7      22.183875   17.513761   20.496138 H          1 MOL1         0.0749
      16    H8      21.475014   15.961956   20.993920 H          1 MOL1         0.0749
      17    H9      20.466405   17.178204   20.180175 H          1 MOL1         0.0749
@<TRIPOS>BOND
    1     1     2    1
    2     1     3    2
    3     1     4    1
    4     4     5    1
    5     4     6    1
    6     4     7    1
    7     7     8    1
    8     7     9    2
    9     9    10    1
   10     9    11    1
   11    11    12    1
   12    11    13    1
   13    11    14    1
   14    14    15    1
   15    14    16    1
   16    14    17    1
@<TRIPOS>SUBSTRUCTURE
       1 MOL1            1 RESIDUE      1      MOL     
@<SCITEGIC>MOL_PROPERTY
VConf Rank
SciTegic.value.IntegerValue
832

@<SCITEGIC>MOL_PROPERTY
Conf_Id
SciTegic.value.IntegerValue
35

@<SCITEGIC>MOL_PROPERTY
Delta U+W
SciTegic.value.DoubleValue
-0.102

@<SCITEGIC>MOL_PROPERTY
U+W
SciTegic.value.DoubleValue
-49.529

@<SCITEGIC>MOL_PROPERTY
Grad RMS
SciTegic.value.DoubleValue
0.000000

@<SCITEGIC>MOL_PROPERTY
U
SciTegic.value.DoubleValue
13.666

@<SCITEGIC>MOL_PROPERTY
W
SciTegic.value.DoubleValue
-63.195

@<SCITEGIC>MOL_PROPERTY
W(PB)
SciTegic.value.DoubleValue
-65.299

@<SCITEGIC>MOL_PROPERTY
W(SA)
SciTegic.value.DoubleValue
2.103

@<SCITEGIC>MOL_PROPERTY
Valence
SciTegic.value.DoubleValue
15.226

@<SCITEGIC>MOL_PROPERTY
Coulomb
SciTegic.value.DoubleValue
-1.822

@<SCITEGIC>MOL_PROPERTY
VdW
SciTegic.value.DoubleValue
0.261

@<SCITEGIC>MOL_PROPERTY
VdW6
SciTegic.value.DoubleValue
-4.165

@<SCITEGIC>MOL_PROPERTY
VdW12
SciTegic.value.DoubleValue
4.426

@<SCITEGIC>MOL_PROPERTY
Bond
SciTegic.value.DoubleValue
0.044

@<SCITEGIC>MOL_PROPERTY
Angle
SciTegic.value.DoubleValue
2.229

@<SCITEGIC>MOL_PROPERTY
Pdih
SciTegic.value.DoubleValue
12.953

@<SCITEGIC>MOL_PROPERTY
Idih
SciTegic.value.DoubleValue
0.000

@<SCITEGIC>MOL_PROPERTY
Tether
SciTegic.value.DoubleValue
0.000

@<TRIPOS>MOLECULE
guest-s20_confgen4.mol2 : confsearch ligand conformer 833
          17          16           1
SMALL
USER_CHARGES
 
@<TRIPOS>ATOM
       1    C1      19.019169   16.454462   21.689805 C.2        1 MOL1         0.6132
       2    O1      18.041033   16.301881   22.394745 O.co2      1 MOL1        -0.6749
       3    O2      19.044515   16.178095   20.506662 O.co2      1 MOL1        -0.6749
       4    C2      20.283918   17.013761   22.327997 C.3        1 MOL1        -0.1955
       5    H1      21.142385   16.694394   21.724985 H          1 MOL1         0.0733
       6    H2      20.394742   16.548992   23.314515 H          1 MOL1         0.0733
       7    C3      20.245675   18.524072   22.465493 C.2        1 MOL1        -0.1395
       8    H3      19.512505   18.896896   23.178621 H          1 MOL1         0.0816
       9    C4      21.033745   19.357333   21.774600 C.2        1 MOL1        -0.1394
      10    H4      21.752927   18.947481   21.066162 H          1 MOL1         0.0816
      11    C5      21.046107   20.874316   21.859466 C.3        1 MOL1        -0.1826
      12    H5      22.056328   21.208117   22.132480 H          1 MOL1         0.0736
      13    H6      20.858609   21.288658   20.859623 H          1 MOL1         0.0736
      14    C6      20.030396   21.480135   22.853116 C.3        1 MOL1        -0.2882
      15    H7      20.222086   21.129135   23.875592 H          1 MOL1         0.0749
      16    H8      20.100589   22.575625   22.855232 H          1 MOL1         0.0749
      17    H9      19.002136   21.209766   22.579124 H          1 MOL1         0.0749
@<TRIPOS>BOND
    1     1     2    1
    2     1     3    2
    3     1     4    1
    4     4     5    1
    5     4     6    1
    6     4     7    1
    7     7     8    1
    8     7     9    2
    9     9    10    1
   10     9    11    1
   11    11    12    1
   12    11    13    1
   13    11    14    1
   14    14    15    1
   15    14    16    1
   16    14    17    1
@<TRIPOS>SUBSTRUCTURE
       1 MOL1            1 RESIDUE      1      MOL     
@<SCITEGIC>MOL_PROPERTY
VConf Rank
SciTegic.value.IntegerValue
833

@<SCITEGIC>MOL_PROPERTY
Conf_Id
SciTegic.value.IntegerValue
19

@<SCITEGIC>MOL_PROPERTY
Delta U+W
SciTegic.value.DoubleValue
-0.496

@<SCITEGIC>MOL_PROPERTY
U+W
SciTegic.value.DoubleValue
-49.923

@<SCITEGIC>MOL_PROPERTY
Grad RMS
SciTegic.value.DoubleValue
0.000000

@<SCITEGIC>MOL_PROPERTY
U
SciTegic.value.DoubleValue
13.863

@<SCITEGIC>MOL_PROPERTY
W
SciTegic.value.DoubleValue
-63.786

@<SCITEGIC>MOL_PROPERTY
W(PB)
SciTegic.value.DoubleValue
-65.856

@<SCITEGIC>MOL_PROPERTY
W(SA)
SciTegic.value.DoubleValue
2.070

@<SCITEGIC>MOL_PROPERTY
Valence
SciTegic.value.DoubleValue
14.117

@<SCITEGIC>MOL_PROPERTY
Coulomb
SciTegic.value.DoubleValue
-1.228

@<SCITEGIC>MOL_PROPERTY
VdW
SciTegic.value.DoubleValue
0.974

@<SCITEGIC>MOL_PROPERTY
VdW6
SciTegic.value.DoubleValue
-4.885

@<SCITEGIC>MOL_PROPERTY
VdW12
SciTegic.value.DoubleValue
5.859

@<SCITEGIC>MOL_PROPERTY
Bond
SciTegic.value.DoubleValue
0.094

@<SCITEGIC>MOL_PROPERTY
Angle
SciTegic.value.DoubleValue
2.818

@<SCITEGIC>MOL_PROPERTY
Pdih
SciTegic.value.DoubleValue
11.205

@<SCITEGIC>MOL_PROPERTY
Idih
SciTegic.value.DoubleValue
0.000

@<SCITEGIC>MOL_PROPERTY
Tether
SciTegic.value.DoubleValue
0.000

@<TRIPOS>MOLECULE
guest-s20_confgen4.mol2 : confsearch ligand conformer 834
          17          16           1
SMALL
USER_CHARGES
 
@<TRIPOS>ATOM
       1    C1      18.631956   16.601404   21.737512 C.2        1 MOL1         0.6132
       2    O1      18.455712   16.634196   20.535566 O.co2      1 MOL1        -0.6749
       3    O2      19.003092   15.610603   22.335487 O.co2      1 MOL1        -0.6749
       4    C2      18.363439   17.866646   22.541807 C.3        1 MOL1        -0.1955
       5    H1      17.842995   17.574536   23.461206 H          1 MOL1         0.0733
       6    H2      17.673192   18.497495   21.968881 H          1 MOL1         0.0733
       7    C3      19.635336   18.620613   22.880296 C.2        1 MOL1        -0.1395
       8    H3      20.304047   18.115455   23.576612 H          1 MOL1         0.0816
       9    C4      19.956037   19.816636   22.377409 C.2        1 MOL1        -0.1394
      10    H4      19.289405   20.318981   21.677187 H          1 MOL1         0.0816
      11    C5      21.226215   20.565435   22.713986 C.3        1 MOL1        -0.1826
      12    H5      20.986613   21.606694   22.968729 H          1 MOL1         0.0736
      13    H6      21.707876   20.127039   23.598869 H          1 MOL1         0.0736
      14    C6      22.213569   20.539945   21.530992 C.3        1 MOL1        -0.2882
      15    H7      21.771441   21.007988   20.641675 H          1 MOL1         0.0749
      16    H8      23.133556   21.084283   21.780766 H          1 MOL1         0.0749
      17    H9      22.487097   19.508059   21.273940 H          1 MOL1         0.0749
@<TRIPOS>BOND
    1     1     2    1
    2     1     3    2
    3     1     4    1
    4     4     5    1
    5     4     6    1
    6     4     7    1
    7     7     8    1
    8     7     9    2
    9     9    10    1
   10     9    11    1
   11    11    12    1
   12    11    13    1
   13    11    14    1
   14    14    15    1
   15    14    16    1
   16    14    17    1
@<TRIPOS>SUBSTRUCTURE
       1 MOL1            1 RESIDUE      1      MOL     
@<SCITEGIC>MOL_PROPERTY
VConf Rank
SciTegic.value.IntegerValue
834

@<SCITEGIC>MOL_PROPERTY
Conf_Id
SciTegic.value.IntegerValue
7

@<SCITEGIC>MOL_PROPERTY
Delta U+W
SciTegic.value.DoubleValue
-0.041

@<SCITEGIC>MOL_PROPERTY
U+W
SciTegic.value.DoubleValue
-49.468

@<SCITEGIC>MOL_PROPERTY
Grad RMS
SciTegic.value.DoubleValue
0.000000

@<SCITEGIC>MOL_PROPERTY
U
SciTegic.value.DoubleValue
14.121

@<SCITEGIC>MOL_PROPERTY
W
SciTegic.value.DoubleValue
-63.589

@<SCITEGIC>MOL_PROPERTY
W(PB)
SciTegic.value.DoubleValue
-65.660

@<SCITEGIC>MOL_PROPERTY
W(SA)
SciTegic.value.DoubleValue
2.071

@<SCITEGIC>MOL_PROPERTY
Valence
SciTegic.value.DoubleValue
15.230

@<SCITEGIC>MOL_PROPERTY
Coulomb
SciTegic.value.DoubleValue
-1.333

@<SCITEGIC>MOL_PROPERTY
VdW
SciTegic.value.DoubleValue
0.224

@<SCITEGIC>MOL_PROPERTY
VdW6
SciTegic.value.DoubleValue
-4.212

@<SCITEGIC>MOL_PROPERTY
VdW12
SciTegic.value.DoubleValue
4.436

@<SCITEGIC>MOL_PROPERTY
Bond
SciTegic.value.DoubleValue
0.044

@<SCITEGIC>MOL_PROPERTY
Angle
SciTegic.value.DoubleValue
2.230

@<SCITEGIC>MOL_PROPERTY
Pdih
SciTegic.value.DoubleValue
12.956

@<SCITEGIC>MOL_PROPERTY
Idih
SciTegic.value.DoubleValue
0.000

@<SCITEGIC>MOL_PROPERTY
Tether
SciTegic.value.DoubleValue
0.000

@<TRIPOS>MOLECULE
guest-s20_confgen4.mol2 : confsearch ligand conformer 835
          17          16           1
SMALL
USER_CHARGES
 
@<TRIPOS>ATOM
       1    C1      17.449914   18.630732   22.085750 C.2        1 MOL1         0.6132
       2    O1      17.479910   17.442954   22.341242 O.co2      1 MOL1        -0.6749
       3    O2      16.934979   19.089286   21.084924 O.co2      1 MOL1        -0.6749
       4    C2      18.067199   19.600646   23.088647 C.3        1 MOL1        -0.1955
       5    H1      17.939642   19.174713   24.090685 H          1 MOL1         0.0733
       6    H2      17.472647   20.521534   23.074674 H          1 MOL1         0.0733
       7    C3      19.534066   19.936806   22.860235 C.2        1 MOL1        -0.1395
       8    H3      19.954614   20.630617   23.587085 H          1 MOL1         0.0816
       9    C4      20.306443   19.460208   21.876728 C.2        1 MOL1        -0.1394
      10    H4      19.911037   18.764527   21.137529 H          1 MOL1         0.0816
      11    C5      21.762049   19.828102   21.692865 C.3        1 MOL1        -0.1826
      12    H5      21.946113   20.098848   20.644373 H          1 MOL1         0.0736
      13    H6      22.015222   20.711267   22.295423 H          1 MOL1         0.0736
      14    C6      22.683200   18.658354   22.090619 C.3        1 MOL1        -0.2882
      15    H7      23.737905   18.930324   21.953911 H          1 MOL1         0.0749
      16    H8      22.535012   18.386385   23.144026 H          1 MOL1         0.0749
      17    H9      22.477456   17.771769   21.476539 H          1 MOL1         0.0749
@<TRIPOS>BOND
    1     1     2    1
    2     1     3    2
    3     1     4    1
    4     4     5    1
    5     4     6    1
    6     4     7    1
    7     7     8    1
    8     7     9    2
    9     9    10    1
   10     9    11    1
   11    11    12    1
   12    11    13    1
   13    11    14    1
   14    14    15    1
   15    14    16    1
   16    14    17    1
@<TRIPOS>SUBSTRUCTURE
       1 MOL1            1 RESIDUE      1      MOL     
@<SCITEGIC>MOL_PROPERTY
VConf Rank
SciTegic.value.IntegerValue
835

@<SCITEGIC>MOL_PROPERTY
Conf_Id
SciTegic.value.IntegerValue
39

@<SCITEGIC>MOL_PROPERTY
Delta U+W
SciTegic.value.DoubleValue
-0.422

@<SCITEGIC>MOL_PROPERTY
U+W
SciTegic.value.DoubleValue
-49.849

@<SCITEGIC>MOL_PROPERTY
Grad RMS
SciTegic.value.DoubleValue
0.000000

@<SCITEGIC>MOL_PROPERTY
U
SciTegic.value.DoubleValue
14.465

@<SCITEGIC>MOL_PROPERTY
W
SciTegic.value.DoubleValue
-64.314

@<SCITEGIC>MOL_PROPERTY
W(PB)
SciTegic.value.DoubleValue
-66.406

@<SCITEGIC>MOL_PROPERTY
W(SA)
SciTegic.value.DoubleValue
2.093

@<SCITEGIC>MOL_PROPERTY
Valence
SciTegic.value.DoubleValue
14.072

@<SCITEGIC>MOL_PROPERTY
Coulomb
SciTegic.value.DoubleValue
-0.199

@<SCITEGIC>MOL_PROPERTY
VdW
SciTegic.value.DoubleValue
0.592

@<SCITEGIC>MOL_PROPERTY
VdW6
SciTegic.value.DoubleValue
-5.019

@<SCITEGIC>MOL_PROPERTY
VdW12
SciTegic.value.DoubleValue
5.611

@<SCITEGIC>MOL_PROPERTY
Bond
SciTegic.value.DoubleValue
0.085

@<SCITEGIC>MOL_PROPERTY
Angle
SciTegic.value.DoubleValue
2.748

@<SCITEGIC>MOL_PROPERTY
Pdih
SciTegic.value.DoubleValue
11.238

@<SCITEGIC>MOL_PROPERTY
Idih
SciTegic.value.DoubleValue
0.001

@<SCITEGIC>MOL_PROPERTY
Tether
SciTegic.value.DoubleValue
0.000

@<TRIPOS>MOLECULE
guest-s20_confgen4.mol2 : confsearch ligand conformer 836
          17          16           1
SMALL
USER_CHARGES
 
@<TRIPOS>ATOM
       1    C1      20.165201   18.403739   25.147908 C.2        1 MOL1         0.6132
       2    O1      21.109386   17.725004   25.501172 O.co2      1 MOL1        -0.6749
       3    O2      19.026160   18.221368   25.530195 O.co2      1 MOL1        -0.6749
       4    C2      20.426810   19.548012   24.177442 C.3        1 MOL1        -0.1955
       5    H1      21.358833   20.038437   24.481290 H          1 MOL1         0.0733
       6    H2      19.623763   20.285915   24.292568 H          1 MOL1         0.0733
       7    C3      20.530761   19.077554   22.739176 C.2        1 MOL1        -0.1395
       8    H3      21.403326   18.465867   22.511864 H          1 MOL1         0.0816
       9    C4      19.637790   19.367002   21.787835 C.2        1 MOL1        -0.1394
      10    H4      18.763946   19.976229   22.016525 H          1 MOL1         0.0816
      11    C5      19.741121   18.893863   20.355081 C.3        1 MOL1        -0.1826
      12    H5      20.486888   18.091695   20.268012 H          1 MOL1         0.0736
      13    H6      18.780690   18.467380   20.035362 H          1 MOL1         0.0736
      14    C6      20.126770   20.052959   19.415490 C.3        1 MOL1        -0.2882
      15    H7      21.097677   20.479275   19.700438 H          1 MOL1         0.0749
      16    H8      20.199582   19.703704   18.377316 H          1 MOL1         0.0749
      17    H9      19.377009   20.854107   19.453568 H          1 MOL1         0.0749
@<TRIPOS>BOND
    1     1     2    1
    2     1     3    2
    3     1     4    1
    4     4     5    1
    5     4     6    1
    6     4     7    1
    7     7     8    1
    8     7     9    2
    9     9    10    1
   10     9    11    1
   11    11    12    1
   12    11    13    1
   13    11    14    1
   14    14    15    1
   15    14    16    1
   16    14    17    1
@<TRIPOS>SUBSTRUCTURE
       1 MOL1            1 RESIDUE      1      MOL     
@<SCITEGIC>MOL_PROPERTY
VConf Rank
SciTegic.value.IntegerValue
836

@<SCITEGIC>MOL_PROPERTY
Conf_Id
SciTegic.value.IntegerValue
38

@<SCITEGIC>MOL_PROPERTY
Delta U+W
SciTegic.value.DoubleValue
0.000

@<SCITEGIC>MOL_PROPERTY
U+W
SciTegic.value.DoubleValue
-49.427

@<SCITEGIC>MOL_PROPERTY
Grad RMS
SciTegic.value.DoubleValue
0.000000

@<SCITEGIC>MOL_PROPERTY
U
SciTegic.value.DoubleValue
13.666

@<SCITEGIC>MOL_PROPERTY
W
SciTegic.value.DoubleValue
-63.093

@<SCITEGIC>MOL_PROPERTY
W(PB)
SciTegic.value.DoubleValue
-65.225

@<SCITEGIC>MOL_PROPERTY
W(SA)
SciTegic.value.DoubleValue
2.132

@<SCITEGIC>MOL_PROPERTY
Valence
SciTegic.value.DoubleValue
15.226

@<SCITEGIC>MOL_PROPERTY
Coulomb
SciTegic.value.DoubleValue
-1.822

@<SCITEGIC>MOL_PROPERTY
VdW
SciTegic.value.DoubleValue
0.261

@<SCITEGIC>MOL_PROPERTY
VdW6
SciTegic.value.DoubleValue
-4.165

@<SCITEGIC>MOL_PROPERTY
VdW12
SciTegic.value.DoubleValue
4.426

@<SCITEGIC>MOL_PROPERTY
Bond
SciTegic.value.DoubleValue
0.044

@<SCITEGIC>MOL_PROPERTY
Angle
SciTegic.value.DoubleValue
2.229

@<SCITEGIC>MOL_PROPERTY
Pdih
SciTegic.value.DoubleValue
12.953

@<SCITEGIC>MOL_PROPERTY
Idih
SciTegic.value.DoubleValue
0.000

@<SCITEGIC>MOL_PROPERTY
Tether
SciTegic.value.DoubleValue
0.000

@<TRIPOS>MOLECULE
guest-s20_confgen4.mol2 : confsearch ligand conformer 837
          17          16           1
SMALL
USER_CHARGES
 
@<TRIPOS>ATOM
       1    C1      20.961766   21.475915   20.013761 C.2        1 MOL1         0.6132
       2    O1      21.442660   20.932018   19.039218 O.co2      1 MOL1        -0.6749
       3    O2      21.375237   22.523130   20.471301 O.co2      1 MOL1        -0.6749
       4    C2      19.772697   20.813636   20.697212 C.3        1 MOL1        -0.1955
       5    H1      19.273277   20.166684   19.965998 H          1 MOL1         0.0733
       6    H2      19.060218   21.601545   20.967545 H          1 MOL1         0.0733
       7    C3      20.175018   20.029390   21.931652 C.2        1 MOL1        -0.1395
       8    H3      20.532352   20.629543   22.767912 H          1 MOL1         0.0816
       9    C4      20.114203   18.697787   22.028412 C.2        1 MOL1        -0.1394
      10    H4      19.759792   18.098060   21.190688 H          1 MOL1         0.0816
      11    C5      20.519541   17.917205   23.258743 C.3        1 MOL1        -0.1826
      12    H5      21.178064   17.086659   22.970516 H          1 MOL1         0.0736
      13    H6      21.095907   18.553080   23.944808 H          1 MOL1         0.0736
      14    C6      19.284304   17.361994   23.994263 C.3        1 MOL1        -0.2882
      15    H7      18.709126   16.691152   23.342673 H          1 MOL1         0.0749
      16    H8      19.584742   16.796029   24.885614 H          1 MOL1         0.0749
      17    H9      18.622623   18.177278   24.315341 H          1 MOL1         0.0749
@<TRIPOS>BOND
    1     1     2    1
    2     1     3    2
    3     1     4    1
    4     4     5    1
    5     4     6    1
    6     4     7    1
    7     7     8    1
    8     7     9    2
    9     9    10    1
   10     9    11    1
   11    11    12    1
   12    11    13    1
   13    11    14    1
   14    14    15    1
   15    14    16    1
   16    14    17    1
@<TRIPOS>SUBSTRUCTURE
       1 MOL1            1 RESIDUE      1      MOL     
@<SCITEGIC>MOL_PROPERTY
VConf Rank
SciTegic.value.IntegerValue
837

@<SCITEGIC>MOL_PROPERTY
Conf_Id
SciTegic.value.IntegerValue
35

@<SCITEGIC>MOL_PROPERTY
Delta U+W
SciTegic.value.DoubleValue
-0.102

@<SCITEGIC>MOL_PROPERTY
U+W
SciTegic.value.DoubleValue
-49.529

@<SCITEGIC>MOL_PROPERTY
Grad RMS
SciTegic.value.DoubleValue
0.000000

@<SCITEGIC>MOL_PROPERTY
U
SciTegic.value.DoubleValue
13.666

@<SCITEGIC>MOL_PROPERTY
W
SciTegic.value.DoubleValue
-63.195

@<SCITEGIC>MOL_PROPERTY
W(PB)
SciTegic.value.DoubleValue
-65.299

@<SCITEGIC>MOL_PROPERTY
W(SA)
SciTegic.value.DoubleValue
2.103

@<SCITEGIC>MOL_PROPERTY
Valence
SciTegic.value.DoubleValue
15.226

@<SCITEGIC>MOL_PROPERTY
Coulomb
SciTegic.value.DoubleValue
-1.822

@<SCITEGIC>MOL_PROPERTY
VdW
SciTegic.value.DoubleValue
0.261

@<SCITEGIC>MOL_PROPERTY
VdW6
SciTegic.value.DoubleValue
-4.165

@<SCITEGIC>MOL_PROPERTY
VdW12
SciTegic.value.DoubleValue
4.426

@<SCITEGIC>MOL_PROPERTY
Bond
SciTegic.value.DoubleValue
0.044

@<SCITEGIC>MOL_PROPERTY
Angle
SciTegic.value.DoubleValue
2.229

@<SCITEGIC>MOL_PROPERTY
Pdih
SciTegic.value.DoubleValue
12.953

@<SCITEGIC>MOL_PROPERTY
Idih
SciTegic.value.DoubleValue
0.000

@<SCITEGIC>MOL_PROPERTY
Tether
SciTegic.value.DoubleValue
0.000

@<TRIPOS>MOLECULE
guest-s20_confgen4.mol2 : confsearch ligand conformer 838
          17          16           1
SMALL
USER_CHARGES
 
@<TRIPOS>ATOM
       1    C1      18.672047   16.592615   22.342495 C.2        1 MOL1         0.6132
       2    O1      18.593393   16.093704   21.237112 O.co2      1 MOL1        -0.6749
       3    O2      18.937552   15.962196   23.346949 O.co2      1 MOL1        -0.6749
       4    C2      18.414169   18.087786   22.475368 C.3        1 MOL1        -0.1955
       5    H1      18.099655   18.291264   23.506029 H          1 MOL1         0.0733
       6    H2      17.567749   18.340448   21.826334 H          1 MOL1         0.0733
       7    C3      19.624876   18.921261   22.099982 C.2        1 MOL1        -0.1395
       8    H3      19.892232   18.884767   21.045336 H          1 MOL1         0.0816
       9    C4      20.331219   19.648807   22.974321 C.2        1 MOL1        -0.1394
      10    H4      20.036065   19.657349   24.023080 H          1 MOL1         0.0816
      11    C5      21.551866   20.500587   22.669230 C.3        1 MOL1        -0.1826
      12    H5      21.352899   21.534345   22.982699 H          1 MOL1         0.0736
      13    H6      22.389374   20.159261   23.292606 H          1 MOL1         0.0736
      14    C6      21.994082   20.499949   21.189206 C.3        1 MOL1        -0.2882
      15    H7      21.198097   20.887637   20.539970 H          1 MOL1         0.0749
      16    H8      22.878955   21.134859   21.051657 H          1 MOL1         0.0749
      17    H9      22.252635   19.486287   20.855844 H          1 MOL1         0.0749
@<TRIPOS>BOND
    1     1     2    1
    2     1     3    2
    3     1     4    1
    4     4     5    1
    5     4     6    1
    6     4     7    1
    7     7     8    1
    8     7     9    2
    9     9    10    1
   10     9    11    1
   11    11    12    1
   12    11    13    1
   13    11    14    1
   14    14    15    1
   15    14    16    1
   16    14    17    1
@<TRIPOS>SUBSTRUCTURE
       1 MOL1            1 RESIDUE      1      MOL     
@<SCITEGIC>MOL_PROPERTY
VConf Rank
SciTegic.value.IntegerValue
838

@<SCITEGIC>MOL_PROPERTY
Conf_Id
SciTegic.value.IntegerValue
19

@<SCITEGIC>MOL_PROPERTY
Delta U+W
SciTegic.value.DoubleValue
-0.496

@<SCITEGIC>MOL_PROPERTY
U+W
SciTegic.value.DoubleValue
-49.923

@<SCITEGIC>MOL_PROPERTY
Grad RMS
SciTegic.value.DoubleValue
0.000000

@<SCITEGIC>MOL_PROPERTY
U
SciTegic.value.DoubleValue
13.863

@<SCITEGIC>MOL_PROPERTY
W
SciTegic.value.DoubleValue
-63.786

@<SCITEGIC>MOL_PROPERTY
W(PB)
SciTegic.value.DoubleValue
-65.856

@<SCITEGIC>MOL_PROPERTY
W(SA)
SciTegic.value.DoubleValue
2.070

@<SCITEGIC>MOL_PROPERTY
Valence
SciTegic.value.DoubleValue
14.117

@<SCITEGIC>MOL_PROPERTY
Coulomb
SciTegic.value.DoubleValue
-1.228

@<SCITEGIC>MOL_PROPERTY
VdW
SciTegic.value.DoubleValue
0.974

@<SCITEGIC>MOL_PROPERTY
VdW6
SciTegic.value.DoubleValue
-4.885

@<SCITEGIC>MOL_PROPERTY
VdW12
SciTegic.value.DoubleValue
5.859

@<SCITEGIC>MOL_PROPERTY
Bond
SciTegic.value.DoubleValue
0.094

@<SCITEGIC>MOL_PROPERTY
Angle
SciTegic.value.DoubleValue
2.818

@<SCITEGIC>MOL_PROPERTY
Pdih
SciTegic.value.DoubleValue
11.205

@<SCITEGIC>MOL_PROPERTY
Idih
SciTegic.value.DoubleValue
0.000

@<SCITEGIC>MOL_PROPERTY
Tether
SciTegic.value.DoubleValue
0.000

@<TRIPOS>MOLECULE
guest-s20_confgen4.mol2 : confsearch ligand conformer 839
          17          16           1
SMALL
USER_CHARGES
 
@<TRIPOS>ATOM
       1    C1      21.978924   18.206348   20.074859 C.2        1 MOL1         0.6132
       2    O1      21.209866   17.782147   19.234969 O.co2      1 MOL1        -0.6749
       3    O2      22.906366   18.950042   19.822328 O.co2      1 MOL1        -0.6749
       4    C2      21.777983   17.775326   21.521811 C.3        1 MOL1        -0.1955
       5    H1      22.764861   17.557402   21.946152 H          1 MOL1         0.0733
       6    H2      21.212780   16.835543   21.524630 H          1 MOL1         0.0733
       7    C3      21.076580   18.834066   22.351189 C.2        1 MOL1        -0.1395
       8    H3      21.649289   19.744893   22.523277 H          1 MOL1         0.0816
       9    C4      19.842634   18.703786   22.847800 C.2        1 MOL1        -0.1394
      10    H4      19.268446   17.794870   22.671058 H          1 MOL1         0.0816
      11    C5      19.143932   19.761927   23.672111 C.3        1 MOL1        -0.1826
      12    H5      18.711374   19.305129   24.572528 H          1 MOL1         0.0736
      13    H6      19.863011   20.518000   24.016332 H          1 MOL1         0.0736
      14    C6      18.030148   20.450442   22.859446 C.3        1 MOL1        -0.2882
      15    H7      17.275136   19.722472   22.534728 H          1 MOL1         0.0749
      16    H8      17.526799   21.217554   23.462145 H          1 MOL1         0.0749
      17    H9      18.443448   20.936062   21.965556 H          1 MOL1         0.0749
@<TRIPOS>BOND
    1     1     2    1
    2     1     3    2
    3     1     4    1
    4     4     5    1
    5     4     6    1
    6     4     7    1
    7     7     8    1
    8     7     9    2
    9     9    10    1
   10     9    11    1
   11    11    12    1
   12    11    13    1
   13    11    14    1
   14    14    15    1
   15    14    16    1
   16    14    17    1
@<TRIPOS>SUBSTRUCTURE
       1 MOL1            1 RESIDUE      1      MOL     
@<SCITEGIC>MOL_PROPERTY
VConf Rank
SciTegic.value.IntegerValue
839

@<SCITEGIC>MOL_PROPERTY
Conf_Id
SciTegic.value.IntegerValue
7

@<SCITEGIC>MOL_PROPERTY
Delta U+W
SciTegic.value.DoubleValue
-0.041

@<SCITEGIC>MOL_PROPERTY
U+W
SciTegic.value.DoubleValue
-49.468

@<SCITEGIC>MOL_PROPERTY
Grad RMS
SciTegic.value.DoubleValue
0.000000

@<SCITEGIC>MOL_PROPERTY
U
SciTegic.value.DoubleValue
14.121

@<SCITEGIC>MOL_PROPERTY
W
SciTegic.value.DoubleValue
-63.589

@<SCITEGIC>MOL_PROPERTY
W(PB)
SciTegic.value.DoubleValue
-65.660

@<SCITEGIC>MOL_PROPERTY
W(SA)
SciTegic.value.DoubleValue
2.071

@<SCITEGIC>MOL_PROPERTY
Valence
SciTegic.value.DoubleValue
15.230

@<SCITEGIC>MOL_PROPERTY
Coulomb
SciTegic.value.DoubleValue
-1.333

@<SCITEGIC>MOL_PROPERTY
VdW
SciTegic.value.DoubleValue
0.224

@<SCITEGIC>MOL_PROPERTY
VdW6
SciTegic.value.DoubleValue
-4.212

@<SCITEGIC>MOL_PROPERTY
VdW12
SciTegic.value.DoubleValue
4.436

@<SCITEGIC>MOL_PROPERTY
Bond
SciTegic.value.DoubleValue
0.044

@<SCITEGIC>MOL_PROPERTY
Angle
SciTegic.value.DoubleValue
2.230

@<SCITEGIC>MOL_PROPERTY
Pdih
SciTegic.value.DoubleValue
12.956

@<SCITEGIC>MOL_PROPERTY
Idih
SciTegic.value.DoubleValue
0.000

@<SCITEGIC>MOL_PROPERTY
Tether
SciTegic.value.DoubleValue
0.000

@<TRIPOS>MOLECULE
guest-s20_confgen4.mol2 : confsearch ligand conformer 840
          17          16           1
SMALL
USER_CHARGES
 
@<TRIPOS>ATOM
       1    C1      19.242247   19.989022   19.751045 C.2        1 MOL1         0.6132
       2    O1      18.071843   19.669043   19.820050 O.co2      1 MOL1        -0.6749
       3    O2      19.992051   19.606902   18.874199 O.co2      1 MOL1        -0.6749
       4    C2      19.792968   20.943821   20.805865 C.3        1 MOL1        -0.1955
       5    H1      18.980168   21.613339   21.110613 H          1 MOL1         0.0733
       6    H2      20.543190   21.580856   20.323087 H          1 MOL1         0.0733
       7    C3      20.399211   20.284447   22.036544 C.2        1 MOL1        -0.1395
       8    H3      20.786281   20.983884   22.776484 H          1 MOL1         0.0816
       9    C4      20.483643   18.968110   22.262648 C.2        1 MOL1        -0.1394
      10    H4      20.103548   18.247368   21.539605 H          1 MOL1         0.0816
      11    C5      21.098593   18.362668   23.504911 C.3        1 MOL1        -0.1826
      12    H5      21.798734   17.565417   23.220808 H          1 MOL1         0.0736
      13    H6      21.683260   19.115450   24.051388 H          1 MOL1         0.0736
      14    C6      20.013541   17.786001   24.435047 C.3        1 MOL1        -0.2882
      15    H7      20.465415   17.346855   25.333946 H          1 MOL1         0.0749
      16    H8      19.315414   18.571432   24.753341 H          1 MOL1         0.0749
      17    H9      19.437301   17.002456   23.925672 H          1 MOL1         0.0749
@<TRIPOS>BOND
    1     1     2    1
    2     1     3    2
    3     1     4    1
    4     4     5    1
    5     4     6    1
    6     4     7    1
    7     7     8    1
    8     7     9    2
    9     9    10    1
   10     9    11    1
   11    11    12    1
   12    11    13    1
   13    11    14    1
   14    14    15    1
   15    14    16    1
   16    14    17    1
@<TRIPOS>SUBSTRUCTURE
       1 MOL1            1 RESIDUE      1      MOL     
@<SCITEGIC>MOL_PROPERTY
VConf Rank
SciTegic.value.IntegerValue
840

@<SCITEGIC>MOL_PROPERTY
Conf_Id
SciTegic.value.IntegerValue
39

@<SCITEGIC>MOL_PROPERTY
Delta U+W
SciTegic.value.DoubleValue
-0.422

@<SCITEGIC>MOL_PROPERTY
U+W
SciTegic.value.DoubleValue
-49.849

@<SCITEGIC>MOL_PROPERTY
Grad RMS
SciTegic.value.DoubleValue
0.000000

@<SCITEGIC>MOL_PROPERTY
U
SciTegic.value.DoubleValue
14.465

@<SCITEGIC>MOL_PROPERTY
W
SciTegic.value.DoubleValue
-64.314

@<SCITEGIC>MOL_PROPERTY
W(PB)
SciTegic.value.DoubleValue
-66.406

@<SCITEGIC>MOL_PROPERTY
W(SA)
SciTegic.value.DoubleValue
2.093

@<SCITEGIC>MOL_PROPERTY
Valence
SciTegic.value.DoubleValue
14.072

@<SCITEGIC>MOL_PROPERTY
Coulomb
SciTegic.value.DoubleValue
-0.199

@<SCITEGIC>MOL_PROPERTY
VdW
SciTegic.value.DoubleValue
0.592

@<SCITEGIC>MOL_PROPERTY
VdW6
SciTegic.value.DoubleValue
-5.019

@<SCITEGIC>MOL_PROPERTY
VdW12
SciTegic.value.DoubleValue
5.611

@<SCITEGIC>MOL_PROPERTY
Bond
SciTegic.value.DoubleValue
0.085

@<SCITEGIC>MOL_PROPERTY
Angle
SciTegic.value.DoubleValue
2.748

@<SCITEGIC>MOL_PROPERTY
Pdih
SciTegic.value.DoubleValue
11.238

@<SCITEGIC>MOL_PROPERTY
Idih
SciTegic.value.DoubleValue
0.001

@<SCITEGIC>MOL_PROPERTY
Tether
SciTegic.value.DoubleValue
0.000

@<TRIPOS>MOLECULE
guest-s20_confgen4.mol2 : confsearch ligand conformer 841
          17          16           1
SMALL
USER_CHARGES
 
@<TRIPOS>ATOM
       1    C1      20.573582   17.509337   19.519165 C.2        1 MOL1         0.6132
       2    O1      19.814728   17.699111   18.589064 O.co2      1 MOL1        -0.6749
       3    O2      20.963977   16.408294   19.854002 O.co2      1 MOL1        -0.6749
       4    C2      21.065085   18.719113   20.303047 C.3        1 MOL1        -0.1955
       5    H1      21.282937   19.517796   19.584608 H          1 MOL1         0.0733
       6    H2      22.013767   18.453478   20.784793 H          1 MOL1         0.0733
       7    C3      20.052328   19.199746   21.324839 C.2        1 MOL1        -0.1395
       8    H3      19.141814   19.631002   20.909889 H          1 MOL1         0.0816
       9    C4      20.222925   19.117030   22.647821 C.2        1 MOL1        -0.1394
      10    H4      21.132345   18.682963   23.062071 H          1 MOL1         0.0816
      11    C5      19.210319   19.593373   23.665194 C.3        1 MOL1        -0.1826
      12    H5      18.238055   19.771612   23.185450 H          1 MOL1         0.0736
      13    H6      19.050134   18.813503   24.421949 H          1 MOL1         0.0736
      14    C6      19.684155   20.888022   24.353979 C.3        1 MOL1        -0.2882
      15    H7      19.826631   21.691072   23.618852 H          1 MOL1         0.0749
      16    H8      18.945681   21.228395   25.091467 H          1 MOL1         0.0749
      17    H9      20.637250   20.728263   24.875051 H          1 MOL1         0.0749
@<TRIPOS>BOND
    1     1     2    1
    2     1     3    2
    3     1     4    1
    4     4     5    1
    5     4     6    1
    6     4     7    1
    7     7     8    1
    8     7     9    2
    9     9    10    1
   10     9    11    1
   11    11    12    1
   12    11    13    1
   13    11    14    1
   14    14    15    1
   15    14    16    1
   16    14    17    1
@<TRIPOS>SUBSTRUCTURE
       1 MOL1            1 RESIDUE      1      MOL     
@<SCITEGIC>MOL_PROPERTY
VConf Rank
SciTegic.value.IntegerValue
841

@<SCITEGIC>MOL_PROPERTY
Conf_Id
SciTegic.value.IntegerValue
38

@<SCITEGIC>MOL_PROPERTY
Delta U+W
SciTegic.value.DoubleValue
0.000

@<SCITEGIC>MOL_PROPERTY
U+W
SciTegic.value.DoubleValue
-49.427

@<SCITEGIC>MOL_PROPERTY
Grad RMS
SciTegic.value.DoubleValue
0.000000

@<SCITEGIC>MOL_PROPERTY
U
SciTegic.value.DoubleValue
13.666

@<SCITEGIC>MOL_PROPERTY
W
SciTegic.value.DoubleValue
-63.093

@<SCITEGIC>MOL_PROPERTY
W(PB)
SciTegic.value.DoubleValue
-65.225

@<SCITEGIC>MOL_PROPERTY
W(SA)
SciTegic.value.DoubleValue
2.132

@<SCITEGIC>MOL_PROPERTY
Valence
SciTegic.value.DoubleValue
15.226

@<SCITEGIC>MOL_PROPERTY
Coulomb
SciTegic.value.DoubleValue
-1.822

@<SCITEGIC>MOL_PROPERTY
VdW
SciTegic.value.DoubleValue
0.261

@<SCITEGIC>MOL_PROPERTY
VdW6
SciTegic.value.DoubleValue
-4.165

@<SCITEGIC>MOL_PROPERTY
VdW12
SciTegic.value.DoubleValue
4.426

@<SCITEGIC>MOL_PROPERTY
Bond
SciTegic.value.DoubleValue
0.044

@<SCITEGIC>MOL_PROPERTY
Angle
SciTegic.value.DoubleValue
2.229

@<SCITEGIC>MOL_PROPERTY
Pdih
SciTegic.value.DoubleValue
12.953

@<SCITEGIC>MOL_PROPERTY
Idih
SciTegic.value.DoubleValue
0.000

@<SCITEGIC>MOL_PROPERTY
Tether
SciTegic.value.DoubleValue
0.000

@<TRIPOS>MOLECULE
guest-s20_confgen4.mol2 : confsearch ligand conformer 842
          17          16           1
SMALL
USER_CHARGES
 
@<TRIPOS>ATOM
       1    C1      21.030781   21.809698   23.736683 C.2        1 MOL1         0.6132
       2    O1      20.159967   22.122683   24.524426 O.co2      1 MOL1        -0.6749
       3    O2      21.716348   22.614960   23.137925 O.co2      1 MOL1        -0.6749
       4    C2      21.281992   20.328109   23.488907 C.3        1 MOL1        -0.1955
       5    H1      20.923654   19.768730   24.361449 H          1 MOL1         0.0733
       6    H2      22.366251   20.176781   23.434235 H          1 MOL1         0.0733
       7    C3      20.622088   19.831896   22.216490 C.2        1 MOL1        -0.1395
       8    H3      21.040364   20.226859   21.291152 H          1 MOL1         0.0816
       9    C4      19.597359   18.974408   22.186970 C.2        1 MOL1        -0.1394
      10    H4      19.177529   18.582319   23.112751 H          1 MOL1         0.0816
      11    C5      18.938031   18.483777   20.917368 C.3        1 MOL1        -0.1826
      12    H5      17.847033   18.573918   21.007538 H          1 MOL1         0.0736
      13    H6      19.236421   19.107504   20.063467 H          1 MOL1         0.0736
      14    C6      19.310357   17.015880   20.631514 C.3        1 MOL1        -0.2882
      15    H7      18.988688   16.362963   21.453498 H          1 MOL1         0.0749
      16    H8      18.828480   16.665312   19.709569 H          1 MOL1         0.0749
      17    H9      20.396184   16.905306   20.511715 H          1 MOL1         0.0749
@<TRIPOS>BOND
    1     1     2    1
    2     1     3    2
    3     1     4    1
    4     4     5    1
    5     4     6    1
    6     4     7    1
    7     7     8    1
    8     7     9    2
    9     9    10    1
   10     9    11    1
   11    11    12    1
   12    11    13    1
   13    11    14    1
   14    14    15    1
   15    14    16    1
   16    14    17    1
@<TRIPOS>SUBSTRUCTURE
       1 MOL1            1 RESIDUE      1      MOL     
@<SCITEGIC>MOL_PROPERTY
VConf Rank
SciTegic.value.IntegerValue
842

@<SCITEGIC>MOL_PROPERTY
Conf_Id
SciTegic.value.IntegerValue
35

@<SCITEGIC>MOL_PROPERTY
Delta U+W
SciTegic.value.DoubleValue
-0.102

@<SCITEGIC>MOL_PROPERTY
U+W
SciTegic.value.DoubleValue
-49.529

@<SCITEGIC>MOL_PROPERTY
Grad RMS
SciTegic.value.DoubleValue
0.000000

@<SCITEGIC>MOL_PROPERTY
U
SciTegic.value.DoubleValue
13.666

@<SCITEGIC>MOL_PROPERTY
W
SciTegic.value.DoubleValue
-63.195

@<SCITEGIC>MOL_PROPERTY
W(PB)
SciTegic.value.DoubleValue
-65.299

@<SCITEGIC>MOL_PROPERTY
W(SA)
SciTegic.value.DoubleValue
2.103

@<SCITEGIC>MOL_PROPERTY
Valence
SciTegic.value.DoubleValue
15.226

@<SCITEGIC>MOL_PROPERTY
Coulomb
SciTegic.value.DoubleValue
-1.822

@<SCITEGIC>MOL_PROPERTY
VdW
SciTegic.value.DoubleValue
0.261

@<SCITEGIC>MOL_PROPERTY
VdW6
SciTegic.value.DoubleValue
-4.165

@<SCITEGIC>MOL_PROPERTY
VdW12
SciTegic.value.DoubleValue
4.426

@<SCITEGIC>MOL_PROPERTY
Bond
SciTegic.value.DoubleValue
0.044

@<SCITEGIC>MOL_PROPERTY
Angle
SciTegic.value.DoubleValue
2.229

@<SCITEGIC>MOL_PROPERTY
Pdih
SciTegic.value.DoubleValue
12.953

@<SCITEGIC>MOL_PROPERTY
Idih
SciTegic.value.DoubleValue
0.000

@<SCITEGIC>MOL_PROPERTY
Tether
SciTegic.value.DoubleValue
0.000

@<TRIPOS>MOLECULE
guest-s20_confgen4.mol2 : confsearch ligand conformer 843
          17          16           1
SMALL
USER_CHARGES
 
@<TRIPOS>ATOM
       1    C1      18.268096   20.355380   20.384944 C.2        1 MOL1         0.6132
       2    O1      18.569009   20.122857   19.230667 O.co2      1 MOL1        -0.6749
       3    O2      17.136075   20.260030   20.816554 O.co2      1 MOL1        -0.6749
       4    C2      19.369519   20.799445   21.338551 C.3        1 MOL1        -0.1955
       5    H1      18.907117   21.362593   22.158084 H          1 MOL1         0.0733
       6    H2      20.019645   21.496710   20.797565 H          1 MOL1         0.0733
       7    C3      20.183106   19.633931   21.868702 C.2        1 MOL1        -0.1395
       8    H3      20.793699   19.129216   21.122024 H          1 MOL1         0.0816
       9    C4      20.167550   19.231490   23.145617 C.2        1 MOL1        -0.1394
      10    H4      19.540392   19.758668   23.863838 H          1 MOL1         0.0816
      11    C5      20.951219   18.074514   23.742155 C.3        1 MOL1        -0.1826
      12    H5      21.576366   18.452412   24.562454 H          1 MOL1         0.0736
      13    H6      20.248235   17.370241   24.207271 H          1 MOL1         0.0736
      14    C6      21.843690   17.306962   22.741961 C.3        1 MOL1        -0.2882
      15    H7      22.596536   17.970233   22.296206 H          1 MOL1         0.0749
      16    H8      22.373503   16.489360   23.247782 H          1 MOL1         0.0749
      17    H9      21.243108   16.869080   21.933846 H          1 MOL1         0.0749
@<TRIPOS>BOND
    1     1     2    1
    2     1     3    2
    3     1     4    1
    4     4     5    1
    5     4     6    1
    6     4     7    1
    7     7     8    1
    8     7     9    2
    9     9    10    1
   10     9    11    1
   11    11    12    1
   12    11    13    1
   13    11    14    1
   14    14    15    1
   15    14    16    1
   16    14    17    1
@<TRIPOS>SUBSTRUCTURE
       1 MOL1            1 RESIDUE      1      MOL     
@<SCITEGIC>MOL_PROPERTY
VConf Rank
SciTegic.value.IntegerValue
843

@<SCITEGIC>MOL_PROPERTY
Conf_Id
SciTegic.value.IntegerValue
19

@<SCITEGIC>MOL_PROPERTY
Delta U+W
SciTegic.value.DoubleValue
-0.496

@<SCITEGIC>MOL_PROPERTY
U+W
SciTegic.value.DoubleValue
-49.923

@<SCITEGIC>MOL_PROPERTY
Grad RMS
SciTegic.value.DoubleValue
0.000000

@<SCITEGIC>MOL_PROPERTY
U
SciTegic.value.DoubleValue
13.863

@<SCITEGIC>MOL_PROPERTY
W
SciTegic.value.DoubleValue
-63.786

@<SCITEGIC>MOL_PROPERTY
W(PB)
SciTegic.value.DoubleValue
-65.856

@<SCITEGIC>MOL_PROPERTY
W(SA)
SciTegic.value.DoubleValue
2.070

@<SCITEGIC>MOL_PROPERTY
Valence
SciTegic.value.DoubleValue
14.117

@<SCITEGIC>MOL_PROPERTY
Coulomb
SciTegic.value.DoubleValue
-1.228

@<SCITEGIC>MOL_PROPERTY
VdW
SciTegic.value.DoubleValue
0.974

@<SCITEGIC>MOL_PROPERTY
VdW6
SciTegic.value.DoubleValue
-4.885

@<SCITEGIC>MOL_PROPERTY
VdW12
SciTegic.value.DoubleValue
5.859

@<SCITEGIC>MOL_PROPERTY
Bond
SciTegic.value.DoubleValue
0.094

@<SCITEGIC>MOL_PROPERTY
Angle
SciTegic.value.DoubleValue
2.818

@<SCITEGIC>MOL_PROPERTY
Pdih
SciTegic.value.DoubleValue
11.205

@<SCITEGIC>MOL_PROPERTY
Idih
SciTegic.value.DoubleValue
0.000

@<SCITEGIC>MOL_PROPERTY
Tether
SciTegic.value.DoubleValue
0.000

@<TRIPOS>MOLECULE
guest-s20_confgen4.mol2 : confsearch ligand conformer 844
          17          16           1
SMALL
USER_CHARGES
 
@<TRIPOS>ATOM
       1    C1      22.492967   17.506261   21.352531 C.2        1 MOL1         0.6132
       2    O1      23.002131   17.198387   22.412143 O.co2      1 MOL1        -0.6749
       3    O2      22.316050   16.723876   20.439527 O.co2      1 MOL1        -0.6749
       4    C2      22.062082   18.953239   21.151488 C.3        1 MOL1        -0.1955
       5    H1      22.346914   19.249055   20.135196 H          1 MOL1         0.0733
       6    H2      22.637458   19.581742   21.841837 H          1 MOL1         0.0733
       7    C3      20.571371   19.148637   21.352399 C.2        1 MOL1        -0.1395
       8    H3      19.935470   18.676544   20.604085 H          1 MOL1         0.0816
       9    C4      20.033518   19.835880   22.364638 C.2        1 MOL1        -0.1394
      10    H4      20.669696   20.303390   23.115485 H          1 MOL1         0.0816
      11    C5      18.546663   20.027054   22.564765 C.3        1 MOL1        -0.1826
      12    H5      18.331667   21.086563   22.759032 H          1 MOL1         0.0736
      13    H6      17.997994   19.756023   21.652234 H          1 MOL1         0.0736
      14    C6      18.032490   19.174288   23.740948 C.3        1 MOL1        -0.2882
      15    H7      18.537245   19.451457   24.675734 H          1 MOL1         0.0749
      16    H8      16.953084   19.316461   23.881433 H          1 MOL1         0.0749
      17    H9      18.214775   18.107151   23.557448 H          1 MOL1         0.0749
@<TRIPOS>BOND
    1     1     2    1
    2     1     3    2
    3     1     4    1
    4     4     5    1
    5     4     6    1
    6     4     7    1
    7     7     8    1
    8     7     9    2
    9     9    10    1
   10     9    11    1
   11    11    12    1
   12    11    13    1
   13    11    14    1
   14    14    15    1
   15    14    16    1
   16    14    17    1
@<TRIPOS>SUBSTRUCTURE
       1 MOL1            1 RESIDUE      1      MOL     
@<SCITEGIC>MOL_PROPERTY
VConf Rank
SciTegic.value.IntegerValue
844

@<SCITEGIC>MOL_PROPERTY
Conf_Id
SciTegic.value.IntegerValue
7

@<SCITEGIC>MOL_PROPERTY
Delta U+W
SciTegic.value.DoubleValue
-0.041

@<SCITEGIC>MOL_PROPERTY
U+W
SciTegic.value.DoubleValue
-49.468

@<SCITEGIC>MOL_PROPERTY
Grad RMS
SciTegic.value.DoubleValue
0.000000

@<SCITEGIC>MOL_PROPERTY
U
SciTegic.value.DoubleValue
14.121

@<SCITEGIC>MOL_PROPERTY
W
SciTegic.value.DoubleValue
-63.589

@<SCITEGIC>MOL_PROPERTY
W(PB)
SciTegic.value.DoubleValue
-65.660

@<SCITEGIC>MOL_PROPERTY
W(SA)
SciTegic.value.DoubleValue
2.071

@<SCITEGIC>MOL_PROPERTY
Valence
SciTegic.value.DoubleValue
15.230

@<SCITEGIC>MOL_PROPERTY
Coulomb
SciTegic.value.DoubleValue
-1.333

@<SCITEGIC>MOL_PROPERTY
VdW
SciTegic.value.DoubleValue
0.224

@<SCITEGIC>MOL_PROPERTY
VdW6
SciTegic.value.DoubleValue
-4.212

@<SCITEGIC>MOL_PROPERTY
VdW12
SciTegic.value.DoubleValue
4.436

@<SCITEGIC>MOL_PROPERTY
Bond
SciTegic.value.DoubleValue
0.044

@<SCITEGIC>MOL_PROPERTY
Angle
SciTegic.value.DoubleValue
2.230

@<SCITEGIC>MOL_PROPERTY
Pdih
SciTegic.value.DoubleValue
12.956

@<SCITEGIC>MOL_PROPERTY
Idih
SciTegic.value.DoubleValue
0.000

@<SCITEGIC>MOL_PROPERTY
Tether
SciTegic.value.DoubleValue
0.000

@<TRIPOS>MOLECULE
guest-s20_confgen4.mol2 : confsearch ligand conformer 845
          17          16           1
SMALL
USER_CHARGES
 
@<TRIPOS>ATOM
       1    C1      18.062859   17.613049   23.040595 C.2        1 MOL1         0.6132
       2    O1      17.709033   18.151290   24.071176 O.co2      1 MOL1        -0.6749
       3    O2      18.365740   16.438378   22.966475 O.co2      1 MOL1        -0.6749
       4    C2      18.102247   18.450095   21.765691 C.3        1 MOL1        -0.1955
       5    H1      17.311164   19.205842   21.834993 H          1 MOL1         0.0733
       6    H2      17.824912   17.799410   20.928187 H          1 MOL1         0.0733
       7    C3      19.431303   19.128876   21.466118 C.2        1 MOL1        -0.1395
       8    H3      19.437546   19.720968   20.551824 H          1 MOL1         0.0816
       9    C4      20.538943   19.053997   22.213461 C.2        1 MOL1        -0.1394
      10    H4      20.559232   18.469668   23.132635 H          1 MOL1         0.0816
      11    C5      21.837931   19.748456   21.869518 C.3        1 MOL1        -0.1826
      12    H5      22.672109   19.039539   21.959540 H          1 MOL1         0.0736
      13    H6      21.826904   20.091084   20.825661 H          1 MOL1         0.0736
      14    C6      22.084774   20.952784   22.798873 C.3        1 MOL1        -0.2882
      15    H7      23.029134   21.451956   22.545747 H          1 MOL1         0.0749
      16    H8      21.274915   21.688488   22.706883 H          1 MOL1         0.0749
      17    H9      22.138661   20.633192   23.847879 H          1 MOL1         0.0749
@<TRIPOS>BOND
    1     1     2    1
    2     1     3    2
    3     1     4    1
    4     4     5    1
    5     4     6    1
    6     4     7    1
    7     7     8    1
    8     7     9    2
    9     9    10    1
   10     9    11    1
   11    11    12    1
   12    11    13    1
   13    11    14    1
   14    14    15    1
   15    14    16    1
   16    14    17    1
@<TRIPOS>SUBSTRUCTURE
       1 MOL1            1 RESIDUE      1      MOL     
@<SCITEGIC>MOL_PROPERTY
VConf Rank
SciTegic.value.IntegerValue
845

@<SCITEGIC>MOL_PROPERTY
Conf_Id
SciTegic.value.IntegerValue
39

@<SCITEGIC>MOL_PROPERTY
Delta U+W
SciTegic.value.DoubleValue
-0.422

@<SCITEGIC>MOL_PROPERTY
U+W
SciTegic.value.DoubleValue
-49.849

@<SCITEGIC>MOL_PROPERTY
Grad RMS
SciTegic.value.DoubleValue
0.000000

@<SCITEGIC>MOL_PROPERTY
U
SciTegic.value.DoubleValue
14.465

@<SCITEGIC>MOL_PROPERTY
W
SciTegic.value.DoubleValue
-64.314

@<SCITEGIC>MOL_PROPERTY
W(PB)
SciTegic.value.DoubleValue
-66.406

@<SCITEGIC>MOL_PROPERTY
W(SA)
SciTegic.value.DoubleValue
2.093

@<SCITEGIC>MOL_PROPERTY
Valence
SciTegic.value.DoubleValue
14.072

@<SCITEGIC>MOL_PROPERTY
Coulomb
SciTegic.value.DoubleValue
-0.199

@<SCITEGIC>MOL_PROPERTY
VdW
SciTegic.value.DoubleValue
0.592

@<SCITEGIC>MOL_PROPERTY
VdW6
SciTegic.value.DoubleValue
-5.019

@<SCITEGIC>MOL_PROPERTY
VdW12
SciTegic.value.DoubleValue
5.611

@<SCITEGIC>MOL_PROPERTY
Bond
SciTegic.value.DoubleValue
0.085

@<SCITEGIC>MOL_PROPERTY
Angle
SciTegic.value.DoubleValue
2.748

@<SCITEGIC>MOL_PROPERTY
Pdih
SciTegic.value.DoubleValue
11.238

@<SCITEGIC>MOL_PROPERTY
Idih
SciTegic.value.DoubleValue
0.001

@<SCITEGIC>MOL_PROPERTY
Tether
SciTegic.value.DoubleValue
0.000

@<TRIPOS>MOLECULE
guest-s20_confgen4.mol2 : confsearch ligand conformer 846
          17          16           1
SMALL
USER_CHARGES
 
@<TRIPOS>ATOM
       1    C1      23.187808   19.148141   22.828634 C.2        1 MOL1         0.6132
       2    O1      23.958363   19.006144   21.899634 O.co2      1 MOL1        -0.6749
       3    O2      23.321510   18.596087   23.902961 O.co2      1 MOL1        -0.6749
       4    C2      21.993212   20.072953   22.635588 C.3        1 MOL1        -0.1955
       5    H1      22.337813   20.954177   22.082230 H          1 MOL1         0.0733
       6    H2      21.666207   20.421617   23.622574 H          1 MOL1         0.0733
       7    C3      20.854280   19.402895   21.890872 C.2        1 MOL1        -0.1395
       8    H3      21.054632   19.171910   20.845068 H          1 MOL1         0.0816
       9    C4      19.674627   19.097555   22.439883 C.2        1 MOL1        -0.1394
      10    H4      19.476022   19.326112   23.486486 H          1 MOL1         0.0816
      11    C5      18.541455   18.425991   21.696750 C.3        1 MOL1        -0.1826
      12    H5      18.901070   18.002448   20.748853 H          1 MOL1         0.0736
      13    H6      18.154811   17.586618   22.290462 H          1 MOL1         0.0736
      14    C6      17.400271   19.421319   21.410250 C.3        1 MOL1        -0.2882
      15    H7      17.757683   20.257722   20.795198 H          1 MOL1         0.0749
      16    H8      16.580751   18.928155   20.871490 H          1 MOL1         0.0749
      17    H9      16.995195   19.832266   22.344308 H          1 MOL1         0.0749
@<TRIPOS>BOND
    1     1     2    1
    2     1     3    2
    3     1     4    1
    4     4     5    1
    5     4     6    1
    6     4     7    1
    7     7     8    1
    8     7     9    2
    9     9    10    1
   10     9    11    1
   11    11    12    1
   12    11    13    1
   13    11    14    1
   14    14    15    1
   15    14    16    1
   16    14    17    1
@<TRIPOS>SUBSTRUCTURE
       1 MOL1            1 RESIDUE      1      MOL     
@<SCITEGIC>MOL_PROPERTY
VConf Rank
SciTegic.value.IntegerValue
846

@<SCITEGIC>MOL_PROPERTY
Conf_Id
SciTegic.value.IntegerValue
38

@<SCITEGIC>MOL_PROPERTY
Delta U+W
SciTegic.value.DoubleValue
0.000

@<SCITEGIC>MOL_PROPERTY
U+W
SciTegic.value.DoubleValue
-49.427

@<SCITEGIC>MOL_PROPERTY
Grad RMS
SciTegic.value.DoubleValue
0.000000

@<SCITEGIC>MOL_PROPERTY
U
SciTegic.value.DoubleValue
13.666

@<SCITEGIC>MOL_PROPERTY
W
SciTegic.value.DoubleValue
-63.093

@<SCITEGIC>MOL_PROPERTY
W(PB)
SciTegic.value.DoubleValue
-65.225

@<SCITEGIC>MOL_PROPERTY
W(SA)
SciTegic.value.DoubleValue
2.132

@<SCITEGIC>MOL_PROPERTY
Valence
SciTegic.value.DoubleValue
15.226

@<SCITEGIC>MOL_PROPERTY
Coulomb
SciTegic.value.DoubleValue
-1.822

@<SCITEGIC>MOL_PROPERTY
VdW
SciTegic.value.DoubleValue
0.261

@<SCITEGIC>MOL_PROPERTY
VdW6
SciTegic.value.DoubleValue
-4.165

@<SCITEGIC>MOL_PROPERTY
VdW12
SciTegic.value.DoubleValue
4.426

@<SCITEGIC>MOL_PROPERTY
Bond
SciTegic.value.DoubleValue
0.044

@<SCITEGIC>MOL_PROPERTY
Angle
SciTegic.value.DoubleValue
2.229

@<SCITEGIC>MOL_PROPERTY
Pdih
SciTegic.value.DoubleValue
12.953

@<SCITEGIC>MOL_PROPERTY
Idih
SciTegic.value.DoubleValue
0.000

@<SCITEGIC>MOL_PROPERTY
Tether
SciTegic.value.DoubleValue
0.000

@<TRIPOS>MOLECULE
guest-s20_confgen4.mol2 : confsearch ligand conformer 847
          17          16           1
SMALL
USER_CHARGES
 
@<TRIPOS>ATOM
       1    C1      19.461146   16.179948   21.801856 C.2        1 MOL1         0.6132
       2    O1      20.466989   15.544604   22.049717 O.co2      1 MOL1        -0.6749
       3    O2      18.666370   15.869440   20.936479 O.co2      1 MOL1        -0.6749
       4    C2      19.176348   17.430741   22.622838 C.3        1 MOL1        -0.1955
       5    H1      19.702060   17.339369   23.580919 H          1 MOL1         0.0733
       6    H2      18.103357   17.447633   22.846247 H          1 MOL1         0.0733
       7    C3      19.578185   18.703062   21.901402 C.2        1 MOL1        -0.1395
       8    H3      18.984482   18.945524   21.020533 H          1 MOL1         0.0816
       9    C4      20.583141   19.497333   22.282746 C.2        1 MOL1        -0.1394
      10    H4      21.178436   19.252599   23.161831 H          1 MOL1         0.0816
      11    C5      20.984926   20.763550   21.559845 C.3        1 MOL1        -0.1826
      12    H5      22.071876   20.771103   21.401682 H          1 MOL1         0.0736
      13    H6      20.521213   20.801555   20.564484 H          1 MOL1         0.0736
      14    C6      20.573817   22.013533   22.362087 C.3        1 MOL1        -0.2882
      15    H7      21.054318   22.020955   23.349251 H          1 MOL1         0.0749
      16    H8      20.868575   22.929070   21.832941 H          1 MOL1         0.0749
      17    H9      19.486285   22.041087   22.510799 H          1 MOL1         0.0749
@<TRIPOS>BOND
    1     1     2    1
    2     1     3    2
    3     1     4    1
    4     4     5    1
    5     4     6    1
    6     4     7    1
    7     7     8    1
    8     7     9    2
    9     9    10    1
   10     9    11    1
   11    11    12    1
   12    11    13    1
   13    11    14    1
   14    14    15    1
   15    14    16    1
   16    14    17    1
@<TRIPOS>SUBSTRUCTURE
       1 MOL1            1 RESIDUE      1      MOL     
@<SCITEGIC>MOL_PROPERTY
VConf Rank
SciTegic.value.IntegerValue
847

@<SCITEGIC>MOL_PROPERTY
Conf_Id
SciTegic.value.IntegerValue
35

@<SCITEGIC>MOL_PROPERTY
Delta U+W
SciTegic.value.DoubleValue
-0.102

@<SCITEGIC>MOL_PROPERTY
U+W
SciTegic.value.DoubleValue
-49.529

@<SCITEGIC>MOL_PROPERTY
Grad RMS
SciTegic.value.DoubleValue
0.000000

@<SCITEGIC>MOL_PROPERTY
U
SciTegic.value.DoubleValue
13.666

@<SCITEGIC>MOL_PROPERTY
W
SciTegic.value.DoubleValue
-63.195

@<SCITEGIC>MOL_PROPERTY
W(PB)
SciTegic.value.DoubleValue
-65.299

@<SCITEGIC>MOL_PROPERTY
W(SA)
SciTegic.value.DoubleValue
2.103

@<SCITEGIC>MOL_PROPERTY
Valence
SciTegic.value.DoubleValue
15.226

@<SCITEGIC>MOL_PROPERTY
Coulomb
SciTegic.value.DoubleValue
-1.822

@<SCITEGIC>MOL_PROPERTY
VdW
SciTegic.value.DoubleValue
0.261

@<SCITEGIC>MOL_PROPERTY
VdW6
SciTegic.value.DoubleValue
-4.165

@<SCITEGIC>MOL_PROPERTY
VdW12
SciTegic.value.DoubleValue
4.426

@<SCITEGIC>MOL_PROPERTY
Bond
SciTegic.value.DoubleValue
0.044

@<SCITEGIC>MOL_PROPERTY
Angle
SciTegic.value.DoubleValue
2.229

@<SCITEGIC>MOL_PROPERTY
Pdih
SciTegic.value.DoubleValue
12.953

@<SCITEGIC>MOL_PROPERTY
Idih
SciTegic.value.DoubleValue
0.000

@<SCITEGIC>MOL_PROPERTY
Tether
SciTegic.value.DoubleValue
0.000

@<TRIPOS>MOLECULE
guest-s20_confgen4.mol2 : confsearch ligand conformer 848
          17          16           1
SMALL
USER_CHARGES
 
@<TRIPOS>ATOM
       1    C1      19.472492   17.399273   19.911253 C.2        1 MOL1         0.6132
       2    O1      19.365565   16.243548   20.271583 O.co2      1 MOL1        -0.6749
       3    O2      18.667050   17.955987   19.191404 O.co2      1 MOL1        -0.6749
       4    C2      20.687700   18.188229   20.380839 C.3        1 MOL1        -0.1955
       5    H1      20.865466   19.001379   19.666856 H          1 MOL1         0.0733
       6    H2      21.557740   17.523268   20.332184 H          1 MOL1         0.0733
       7    C3      20.521712   18.725977   21.789625 C.2        1 MOL1        -0.1395
       8    H3      20.498985   17.964162   22.566935 H          1 MOL1         0.0816
       9    C4      20.404326   20.026921   22.083698 C.2        1 MOL1        -0.1394
      10    H4      20.427146   20.760399   21.278358 H          1 MOL1         0.0816
      11    C5      20.232233   20.632901   23.466363 C.3        1 MOL1        -0.1826
      12    H5      21.047570   21.346371   23.647170 H          1 MOL1         0.0736
      13    H6      19.309736   21.228955   23.481860 H          1 MOL1         0.0736
      14    C6      20.190650   19.612273   24.625077 C.3        1 MOL1        -0.2882
      15    H7      21.122373   19.033570   24.674047 H          1 MOL1         0.0749
      16    H8      20.063602   20.126538   25.586544 H          1 MOL1         0.0749
      17    H9      19.352517   18.913370   24.504422 H          1 MOL1         0.0749
@<TRIPOS>BOND
    1     1     2    1
    2     1     3    2
    3     1     4    1
    4     4     5    1
    5     4     6    1
    6     4     7    1
    7     7     8    1
    8     7     9    2
    9     9    10    1
   10     9    11    1
   11    11    12    1
   12    11    13    1
   13    11    14    1
   14    14    15    1
   15    14    16    1
   16    14    17    1
@<TRIPOS>SUBSTRUCTURE
       1 MOL1            1 RESIDUE      1      MOL     
@<SCITEGIC>MOL_PROPERTY
VConf Rank
SciTegic.value.IntegerValue
848

@<SCITEGIC>MOL_PROPERTY
Conf_Id
SciTegic.value.IntegerValue
19

@<SCITEGIC>MOL_PROPERTY
Delta U+W
SciTegic.value.DoubleValue
-0.496

@<SCITEGIC>MOL_PROPERTY
U+W
SciTegic.value.DoubleValue
-49.923

@<SCITEGIC>MOL_PROPERTY
Grad RMS
SciTegic.value.DoubleValue
0.000000

@<SCITEGIC>MOL_PROPERTY
U
SciTegic.value.DoubleValue
13.863

@<SCITEGIC>MOL_PROPERTY
W
SciTegic.value.DoubleValue
-63.786

@<SCITEGIC>MOL_PROPERTY
W(PB)
SciTegic.value.DoubleValue
-65.856

@<SCITEGIC>MOL_PROPERTY
W(SA)
SciTegic.value.DoubleValue
2.070

@<SCITEGIC>MOL_PROPERTY
Valence
SciTegic.value.DoubleValue
14.117

@<SCITEGIC>MOL_PROPERTY
Coulomb
SciTegic.value.DoubleValue
-1.228

@<SCITEGIC>MOL_PROPERTY
VdW
SciTegic.value.DoubleValue
0.974

@<SCITEGIC>MOL_PROPERTY
VdW6
SciTegic.value.DoubleValue
-4.885

@<SCITEGIC>MOL_PROPERTY
VdW12
SciTegic.value.DoubleValue
5.859

@<SCITEGIC>MOL_PROPERTY
Bond
SciTegic.value.DoubleValue
0.094

@<SCITEGIC>MOL_PROPERTY
Angle
SciTegic.value.DoubleValue
2.818

@<SCITEGIC>MOL_PROPERTY
Pdih
SciTegic.value.DoubleValue
11.205

@<SCITEGIC>MOL_PROPERTY
Idih
SciTegic.value.DoubleValue
0.000

@<SCITEGIC>MOL_PROPERTY
Tether
SciTegic.value.DoubleValue
0.000

@<TRIPOS>MOLECULE
guest-s20_confgen4.mol2 : confsearch ligand conformer 849
          17          16           1
SMALL
USER_CHARGES
 
@<TRIPOS>ATOM
       1    C1      17.901537   17.855963   20.773507 C.2        1 MOL1         0.6132
       2    O1      17.289425   17.306598   21.668118 O.co2      1 MOL1        -0.6749
       3    O2      17.373344   18.541490   19.920239 O.co2      1 MOL1        -0.6749
       4    C2      19.411628   17.667806   20.709874 C.3        1 MOL1        -0.1955
       5    H1      19.685732   17.514310   19.659736 H          1 MOL1         0.0733
       6    H2      19.665434   16.745381   21.245944 H          1 MOL1         0.0733
       7    C3      20.169060   18.852790   21.278095 C.2        1 MOL1        -0.1395
       8    H3      20.088472   19.775062   20.703522 H          1 MOL1         0.0816
       9    C4      20.888947   18.814562   22.403492 C.2        1 MOL1        -0.1394
      10    H4      20.964966   17.893428   22.980373 H          1 MOL1         0.0816
      11    C5      21.641081   19.998109   22.969924 C.3        1 MOL1        -0.1826
      12    H5      22.665234   19.697322   23.229076 H          1 MOL1         0.0736
      13    H6      21.726977   20.794597   22.217969 H          1 MOL1         0.0736
      14    C6      20.936089   20.553658   24.222658 C.3        1 MOL1        -0.2882
      15    H7      20.870898   19.788348   25.007181 H          1 MOL1         0.0749
      16    H8      21.485756   21.412492   24.629276 H          1 MOL1         0.0749
      17    H9      19.916997   20.884092   23.981937 H          1 MOL1         0.0749
@<TRIPOS>BOND
    1     1     2    1
    2     1     3    2
    3     1     4    1
    4     4     5    1
    5     4     6    1
    6     4     7    1
    7     7     8    1
    8     7     9    2
    9     9    10    1
   10     9    11    1
   11    11    12    1
   12    11    13    1
   13    11    14    1
   14    14    15    1
   15    14    16    1
   16    14    17    1
@<TRIPOS>SUBSTRUCTURE
       1 MOL1            1 RESIDUE      1      MOL     
@<SCITEGIC>MOL_PROPERTY
VConf Rank
SciTegic.value.IntegerValue
849

@<SCITEGIC>MOL_PROPERTY
Conf_Id
SciTegic.value.IntegerValue
7

@<SCITEGIC>MOL_PROPERTY
Delta U+W
SciTegic.value.DoubleValue
-0.041

@<SCITEGIC>MOL_PROPERTY
U+W
SciTegic.value.DoubleValue
-49.468

@<SCITEGIC>MOL_PROPERTY
Grad RMS
SciTegic.value.DoubleValue
0.000000

@<SCITEGIC>MOL_PROPERTY
U
SciTegic.value.DoubleValue
14.121

@<SCITEGIC>MOL_PROPERTY
W
SciTegic.value.DoubleValue
-63.589

@<SCITEGIC>MOL_PROPERTY
W(PB)
SciTegic.value.DoubleValue
-65.660

@<SCITEGIC>MOL_PROPERTY
W(SA)
SciTegic.value.DoubleValue
2.071

@<SCITEGIC>MOL_PROPERTY
Valence
SciTegic.value.DoubleValue
15.230

@<SCITEGIC>MOL_PROPERTY
Coulomb
SciTegic.value.DoubleValue
-1.333

@<SCITEGIC>MOL_PROPERTY
VdW
SciTegic.value.DoubleValue
0.224

@<SCITEGIC>MOL_PROPERTY
VdW6
SciTegic.value.DoubleValue
-4.212

@<SCITEGIC>MOL_PROPERTY
VdW12
SciTegic.value.DoubleValue
4.436

@<SCITEGIC>MOL_PROPERTY
Bond
SciTegic.value.DoubleValue
0.044

@<SCITEGIC>MOL_PROPERTY
Angle
SciTegic.value.DoubleValue
2.230

@<SCITEGIC>MOL_PROPERTY
Pdih
SciTegic.value.DoubleValue
12.956

@<SCITEGIC>MOL_PROPERTY
Idih
SciTegic.value.DoubleValue
0.000

@<SCITEGIC>MOL_PROPERTY
Tether
SciTegic.value.DoubleValue
0.000

@<TRIPOS>MOLECULE
guest-s20_confgen4.mol2 : confsearch ligand conformer 850
          17          16           1
SMALL
USER_CHARGES
 
@<TRIPOS>ATOM
       1    C1      20.324111   20.514889   19.807287 C.2        1 MOL1         0.6132
       2    O1      21.029977   19.728442   19.207081 O.co2      1 MOL1        -0.6749
       3    O2      20.575904   21.699377   19.910591 O.co2      1 MOL1        -0.6749
       4    C2      19.038597   19.992585   20.441502 C.3        1 MOL1        -0.1955
       5    H1      18.667073   19.169682   19.819755 H          1 MOL1         0.0733
       6    H2      18.284676   20.785528   20.373925 H          1 MOL1         0.0733
       7    C3      19.160585   19.526175   21.885267 C.2        1 MOL1        -0.1395
       8    H3      18.231639   19.157488   22.318480 H          1 MOL1         0.0816
       9    C4      20.276978   19.535221   22.623224 C.2        1 MOL1        -0.1394
      10    H4      21.219208   19.897776   22.213969 H          1 MOL1         0.0816
      11    C5      20.344466   19.060730   24.057883 C.3        1 MOL1        -0.1826
      12    H5      20.868972   19.806524   24.670422 H          1 MOL1         0.0736
      13    H6      19.334404   18.961456   24.478684 H          1 MOL1         0.0736
      14    C6      21.074475   17.707297   24.159579 C.3        1 MOL1        -0.2882
      15    H7      21.121728   17.368561   25.202692 H          1 MOL1         0.0749
      16    H8      20.552909   16.938245   23.574666 H          1 MOL1         0.0749
      17    H9      22.101704   17.787096   23.780251 H          1 MOL1         0.0749
@<TRIPOS>BOND
    1     1     2    1
    2     1     3    2
    3     1     4    1
    4     4     5    1
    5     4     6    1
    6     4     7    1
    7     7     8    1
    8     7     9    2
    9     9    10    1
   10     9    11    1
   11    11    12    1
   12    11    13    1
   13    11    14    1
   14    14    15    1
   15    14    16    1
   16    14    17    1
@<TRIPOS>SUBSTRUCTURE
       1 MOL1            1 RESIDUE      1      MOL     
@<SCITEGIC>MOL_PROPERTY
VConf Rank
SciTegic.value.IntegerValue
850

@<SCITEGIC>MOL_PROPERTY
Conf_Id
SciTegic.value.IntegerValue
39

@<SCITEGIC>MOL_PROPERTY
Delta U+W
SciTegic.value.DoubleValue
-0.422

@<SCITEGIC>MOL_PROPERTY
U+W
SciTegic.value.DoubleValue
-49.849

@<SCITEGIC>MOL_PROPERTY
Grad RMS
SciTegic.value.DoubleValue
0.000000

@<SCITEGIC>MOL_PROPERTY
U
SciTegic.value.DoubleValue
14.465

@<SCITEGIC>MOL_PROPERTY
W
SciTegic.value.DoubleValue
-64.314

@<SCITEGIC>MOL_PROPERTY
W(PB)
SciTegic.value.DoubleValue
-66.406

@<SCITEGIC>MOL_PROPERTY
W(SA)
SciTegic.value.DoubleValue
2.093

@<SCITEGIC>MOL_PROPERTY
Valence
SciTegic.value.DoubleValue
14.072

@<SCITEGIC>MOL_PROPERTY
Coulomb
SciTegic.value.DoubleValue
-0.199

@<SCITEGIC>MOL_PROPERTY
VdW
SciTegic.value.DoubleValue
0.592

@<SCITEGIC>MOL_PROPERTY
VdW6
SciTegic.value.DoubleValue
-5.019

@<SCITEGIC>MOL_PROPERTY
VdW12
SciTegic.value.DoubleValue
5.611

@<SCITEGIC>MOL_PROPERTY
Bond
SciTegic.value.DoubleValue
0.085

@<SCITEGIC>MOL_PROPERTY
Angle
SciTegic.value.DoubleValue
2.748

@<SCITEGIC>MOL_PROPERTY
Pdih
SciTegic.value.DoubleValue
11.238

@<SCITEGIC>MOL_PROPERTY
Idih
SciTegic.value.DoubleValue
0.001

@<SCITEGIC>MOL_PROPERTY
Tether
SciTegic.value.DoubleValue
0.000

@<TRIPOS>MOLECULE
guest-s20_confgen4.mol2 : confsearch ligand conformer 851
          17          16           1
SMALL
USER_CHARGES
 
@<TRIPOS>ATOM
       1    C1      18.395397   17.423861   20.192717 C.2        1 MOL1         0.6132
       2    O1      18.743295   16.262674   20.105699 O.co2      1 MOL1        -0.6749
       3    O2      18.006365   18.081402   19.247670 O.co2      1 MOL1        -0.6749
       4    C2      18.445359   18.087542   21.562620 C.3        1 MOL1        -0.1955
       5    H1      18.085588   17.360857   22.300186 H          1 MOL1         0.0733
       6    H2      17.736484   18.924281   21.564548 H          1 MOL1         0.0733
       7    C3      19.840328   18.555950   21.930589 C.2        1 MOL1        -0.1395
       8    H3      20.566369   17.762500   22.105240 H          1 MOL1         0.0816
       9    C4      20.196991   19.839233   22.041059 C.2        1 MOL1        -0.1394
      10    H4      19.471234   20.632179   21.863366 H          1 MOL1         0.0816
      11    C5      21.589418   20.304487   22.404385 C.3        1 MOL1        -0.1826
      12    H5      22.307097   19.477575   22.312880 H          1 MOL1         0.0736
      13    H6      21.915012   21.083607   21.701892 H          1 MOL1         0.0736
      14    C6      21.630685   20.858921   23.841730 C.3        1 MOL1        -0.2882
      15    H7      21.333228   20.088606   24.565425 H          1 MOL1         0.0749
      16    H8      22.643317   21.195493   24.099375 H          1 MOL1         0.0749
      17    H9      20.949546   21.712942   23.951861 H          1 MOL1         0.0749
@<TRIPOS>BOND
    1     1     2    1
    2     1     3    2
    3     1     4    1
    4     4     5    1
    5     4     6    1
    6     4     7    1
    7     7     8    1
    8     7     9    2
    9     9    10    1
   10     9    11    1
   11    11    12    1
   12    11    13    1
   13    11    14    1
   14    14    15    1
   15    14    16    1
   16    14    17    1
@<TRIPOS>SUBSTRUCTURE
       1 MOL1            1 RESIDUE      1      MOL     
@<SCITEGIC>MOL_PROPERTY
VConf Rank
SciTegic.value.IntegerValue
851

@<SCITEGIC>MOL_PROPERTY
Conf_Id
SciTegic.value.IntegerValue
38

@<SCITEGIC>MOL_PROPERTY
Delta U+W
SciTegic.value.DoubleValue
0.000

@<SCITEGIC>MOL_PROPERTY
U+W
SciTegic.value.DoubleValue
-49.427

@<SCITEGIC>MOL_PROPERTY
Grad RMS
SciTegic.value.DoubleValue
0.000000

@<SCITEGIC>MOL_PROPERTY
U
SciTegic.value.DoubleValue
13.666

@<SCITEGIC>MOL_PROPERTY
W
SciTegic.value.DoubleValue
-63.093

@<SCITEGIC>MOL_PROPERTY
W(PB)
SciTegic.value.DoubleValue
-65.225

@<SCITEGIC>MOL_PROPERTY
W(SA)
SciTegic.value.DoubleValue
2.132

@<SCITEGIC>MOL_PROPERTY
Valence
SciTegic.value.DoubleValue
15.226

@<SCITEGIC>MOL_PROPERTY
Coulomb
SciTegic.value.DoubleValue
-1.822

@<SCITEGIC>MOL_PROPERTY
VdW
SciTegic.value.DoubleValue
0.261

@<SCITEGIC>MOL_PROPERTY
VdW6
SciTegic.value.DoubleValue
-4.165

@<SCITEGIC>MOL_PROPERTY
VdW12
SciTegic.value.DoubleValue
4.426

@<SCITEGIC>MOL_PROPERTY
Bond
SciTegic.value.DoubleValue
0.044

@<SCITEGIC>MOL_PROPERTY
Angle
SciTegic.value.DoubleValue
2.229

@<SCITEGIC>MOL_PROPERTY
Pdih
SciTegic.value.DoubleValue
12.953

@<SCITEGIC>MOL_PROPERTY
Idih
SciTegic.value.DoubleValue
0.000

@<SCITEGIC>MOL_PROPERTY
Tether
SciTegic.value.DoubleValue
0.000

@<TRIPOS>MOLECULE
guest-s20_confgen4.mol2 : confsearch ligand conformer 852
          17          16           1
SMALL
USER_CHARGES
 
@<TRIPOS>ATOM
       1    C1      19.523177   20.755210   24.841318 C.2        1 MOL1         0.6132
       2    O1      20.274605   20.320755   25.691860 O.co2      1 MOL1        -0.6749
       3    O2      18.370059   21.070056   25.060753 O.co2      1 MOL1        -0.6749
       4    C2      20.055046   20.920012   23.423729 C.3        1 MOL1        -0.1955
       5    H1      21.146639   21.011683   23.475320 H          1 MOL1         0.0733
       6    H2      19.671883   21.868688   23.030401 H          1 MOL1         0.0733
       7    C3      19.647890   19.776638   22.513969 C.2        1 MOL1        -0.1395
       8    H3      18.584060   19.720511   22.285239 H          1 MOL1         0.0816
       9    C4      20.499366   18.878589   22.009265 C.2        1 MOL1        -0.1394
      10    H4      21.562554   18.933427   22.240963 H          1 MOL1         0.0816
      11    C5      20.090995   17.736798   21.105458 C.3        1 MOL1        -0.1826
      12    H5      20.536586   16.800195   21.467061 H          1 MOL1         0.0736
      13    H6      19.001378   17.597733   21.130233 H          1 MOL1         0.0736
      14    C6      20.539680   17.992136   19.653375 C.3        1 MOL1        -0.2882
      15    H7      21.630917   18.097102   19.593282 H          1 MOL1         0.0749
      16    H8      20.241213   17.160042   19.002512 H          1 MOL1         0.0749
      17    H9      20.085478   18.911528   19.260921 H          1 MOL1         0.0749
@<TRIPOS>BOND
    1     1     2    1
    2     1     3    2
    3     1     4    1
    4     4     5    1
    5     4     6    1
    6     4     7    1
    7     7     8    1
    8     7     9    2
    9     9    10    1
   10     9    11    1
   11    11    12    1
   12    11    13    1
   13    11    14    1
   14    14    15    1
   15    14    16    1
   16    14    17    1
@<TRIPOS>SUBSTRUCTURE
       1 MOL1            1 RESIDUE      1      MOL     
@<SCITEGIC>MOL_PROPERTY
VConf Rank
SciTegic.value.IntegerValue
852

@<SCITEGIC>MOL_PROPERTY
Conf_Id
SciTegic.value.IntegerValue
35

@<SCITEGIC>MOL_PROPERTY
Delta U+W
SciTegic.value.DoubleValue
-0.102

@<SCITEGIC>MOL_PROPERTY
U+W
SciTegic.value.DoubleValue
-49.529

@<SCITEGIC>MOL_PROPERTY
Grad RMS
SciTegic.value.DoubleValue
0.000000

@<SCITEGIC>MOL_PROPERTY
U
SciTegic.value.DoubleValue
13.666

@<SCITEGIC>MOL_PROPERTY
W
SciTegic.value.DoubleValue
-63.195

@<SCITEGIC>MOL_PROPERTY
W(PB)
SciTegic.value.DoubleValue
-65.299

@<SCITEGIC>MOL_PROPERTY
W(SA)
SciTegic.value.DoubleValue
2.103

@<SCITEGIC>MOL_PROPERTY
Valence
SciTegic.value.DoubleValue
15.226

@<SCITEGIC>MOL_PROPERTY
Coulomb
SciTegic.value.DoubleValue
-1.822

@<SCITEGIC>MOL_PROPERTY
VdW
SciTegic.value.DoubleValue
0.261

@<SCITEGIC>MOL_PROPERTY
VdW6
SciTegic.value.DoubleValue
-4.165

@<SCITEGIC>MOL_PROPERTY
VdW12
SciTegic.value.DoubleValue
4.426

@<SCITEGIC>MOL_PROPERTY
Bond
SciTegic.value.DoubleValue
0.044

@<SCITEGIC>MOL_PROPERTY
Angle
SciTegic.value.DoubleValue
2.229

@<SCITEGIC>MOL_PROPERTY
Pdih
SciTegic.value.DoubleValue
12.953

@<SCITEGIC>MOL_PROPERTY
Idih
SciTegic.value.DoubleValue
0.000

@<SCITEGIC>MOL_PROPERTY
Tether
SciTegic.value.DoubleValue
0.000

@<TRIPOS>MOLECULE
guest-s20_confgen4.mol2 : confsearch ligand conformer 853
          17          16           1
SMALL
USER_CHARGES
 
@<TRIPOS>ATOM
       1    C1      19.536922   18.178543   19.485260 C.2        1 MOL1         0.6132
       2    O1      19.367526   19.135534   18.755573 O.co2      1 MOL1        -0.6749
       3    O2      20.186628   17.200732   19.171225 O.co2      1 MOL1        -0.6749
       4    C2      18.891073   18.203998   20.864363 C.3        1 MOL1        -0.1955
       5    H1      18.763754   17.168626   21.202563 H          1 MOL1         0.0733
       6    H2      17.887503   18.631371   20.756157 H          1 MOL1         0.0733
       7    C3      19.694853   19.010306   21.866965 C.2        1 MOL1        -0.1395
       8    H3      19.724471   20.080531   21.669911 H          1 MOL1         0.0816
       9    C4      20.332164   18.475896   22.916227 C.2        1 MOL1        -0.1394
      10    H4      20.283490   17.399658   23.078793 H          1 MOL1         0.0816
      11    C5      21.155219   19.220688   23.953751 C.3        1 MOL1        -0.1826
      12    H5      20.737764   19.021829   24.950090 H          1 MOL1         0.0736
      13    H6      22.170661   18.802213   23.970419 H          1 MOL1         0.0736
      14    C6      21.244526   20.748091   23.741404 C.3        1 MOL1        -0.2882
      15    H7      20.248651   21.209209   23.773120 H          1 MOL1         0.0749
      16    H8      21.854348   21.211009   24.528077 H          1 MOL1         0.0749
      17    H9      21.707312   20.984886   22.774323 H          1 MOL1         0.0749
@<TRIPOS>BOND
    1     1     2    1
    2     1     3    2
    3     1     4    1
    4     4     5    1
    5     4     6    1
    6     4     7    1
    7     7     8    1
    8     7     9    2
    9     9    10    1
   10     9    11    1
   11    11    12    1
   12    11    13    1
   13    11    14    1
   14    14    15    1
   15    14    16    1
   16    14    17    1
@<TRIPOS>SUBSTRUCTURE
       1 MOL1            1 RESIDUE      1      MOL     
@<SCITEGIC>MOL_PROPERTY
VConf Rank
SciTegic.value.IntegerValue
853

@<SCITEGIC>MOL_PROPERTY
Conf_Id
SciTegic.value.IntegerValue
19

@<SCITEGIC>MOL_PROPERTY
Delta U+W
SciTegic.value.DoubleValue
-0.496

@<SCITEGIC>MOL_PROPERTY
U+W
SciTegic.value.DoubleValue
-49.923

@<SCITEGIC>MOL_PROPERTY
Grad RMS
SciTegic.value.DoubleValue
0.000000

@<SCITEGIC>MOL_PROPERTY
U
SciTegic.value.DoubleValue
13.863

@<SCITEGIC>MOL_PROPERTY
W
SciTegic.value.DoubleValue
-63.786

@<SCITEGIC>MOL_PROPERTY
W(PB)
SciTegic.value.DoubleValue
-65.856

@<SCITEGIC>MOL_PROPERTY
W(SA)
SciTegic.value.DoubleValue
2.070

@<SCITEGIC>MOL_PROPERTY
Valence
SciTegic.value.DoubleValue
14.117

@<SCITEGIC>MOL_PROPERTY
Coulomb
SciTegic.value.DoubleValue
-1.228

@<SCITEGIC>MOL_PROPERTY
VdW
SciTegic.value.DoubleValue
0.974

@<SCITEGIC>MOL_PROPERTY
VdW6
SciTegic.value.DoubleValue
-4.885

@<SCITEGIC>MOL_PROPERTY
VdW12
SciTegic.value.DoubleValue
5.859

@<SCITEGIC>MOL_PROPERTY
Bond
SciTegic.value.DoubleValue
0.094

@<SCITEGIC>MOL_PROPERTY
Angle
SciTegic.value.DoubleValue
2.818

@<SCITEGIC>MOL_PROPERTY
Pdih
SciTegic.value.DoubleValue
11.205

@<SCITEGIC>MOL_PROPERTY
Idih
SciTegic.value.DoubleValue
0.000

@<SCITEGIC>MOL_PROPERTY
Tether
SciTegic.value.DoubleValue
0.000

@<TRIPOS>MOLECULE
guest-s20_confgen4.mol2 : confsearch ligand conformer 854
          17          16           1
SMALL
USER_CHARGES
 
@<TRIPOS>ATOM
       1    C1      22.807694   18.572480   23.376023 C.2        1 MOL1         0.6132
       2    O1      23.506034   19.362212   22.771493 O.co2      1 MOL1        -0.6749
       3    O2      22.850625   18.423127   24.581367 O.co2      1 MOL1        -0.6749
       4    C2      21.832422   17.714460   22.580740 C.3        1 MOL1        -0.1955
       5    H1      21.870787   16.698098   22.989422 H          1 MOL1         0.0733
       6    H2      22.190277   17.657886   21.545659 H          1 MOL1         0.0733
       7    C3      20.412598   18.245227   22.636865 C.2        1 MOL1        -0.1395
       8    H3      19.932682   18.187109   23.613348 H          1 MOL1         0.0816
       9    C4      19.762157   18.762716   21.590277 C.2        1 MOL1        -0.1394
      10    H4      20.244367   18.825308   20.615282 H          1 MOL1         0.0816
      11    C5      18.347413   19.294112   21.649069 C.3        1 MOL1        -0.1826
      12    H5      17.761765   18.883028   20.815673 H          1 MOL1         0.0736
      13    H6      17.852231   18.967476   22.573900 H          1 MOL1         0.0736
      14    C6      18.331170   20.833509   21.578473 C.3        1 MOL1        -0.2882
      15    H7      18.786119   21.187553   20.644076 H          1 MOL1         0.0749
      16    H8      17.302294   21.213758   21.621972 H          1 MOL1         0.0749
      17    H9      18.890943   21.267947   22.417281 H          1 MOL1         0.0749
@<TRIPOS>BOND
    1     1     2    1
    2     1     3    2
    3     1     4    1
    4     4     5    1
    5     4     6    1
    6     4     7    1
    7     7     8    1
    8     7     9    2
    9     9    10    1
   10     9    11    1
   11    11    12    1
   12    11    13    1
   13    11    14    1
   14    14    15    1
   15    14    16    1
   16    14    17    1
@<TRIPOS>SUBSTRUCTURE
       1 MOL1            1 RESIDUE      1      MOL     
@<SCITEGIC>MOL_PROPERTY
VConf Rank
SciTegic.value.IntegerValue
854

@<SCITEGIC>MOL_PROPERTY
Conf_Id
SciTegic.value.IntegerValue
7

@<SCITEGIC>MOL_PROPERTY
Delta U+W
SciTegic.value.DoubleValue
-0.041

@<SCITEGIC>MOL_PROPERTY
U+W
SciTegic.value.DoubleValue
-49.468

@<SCITEGIC>MOL_PROPERTY
Grad RMS
SciTegic.value.DoubleValue
0.000000

@<SCITEGIC>MOL_PROPERTY
U
SciTegic.value.DoubleValue
14.121

@<SCITEGIC>MOL_PROPERTY
W
SciTegic.value.DoubleValue
-63.589

@<SCITEGIC>MOL_PROPERTY
W(PB)
SciTegic.value.DoubleValue
-65.660

@<SCITEGIC>MOL_PROPERTY
W(SA)
SciTegic.value.DoubleValue
2.071

@<SCITEGIC>MOL_PROPERTY
Valence
SciTegic.value.DoubleValue
15.230

@<SCITEGIC>MOL_PROPERTY
Coulomb
SciTegic.value.DoubleValue
-1.333

@<SCITEGIC>MOL_PROPERTY
VdW
SciTegic.value.DoubleValue
0.224

@<SCITEGIC>MOL_PROPERTY
VdW6
SciTegic.value.DoubleValue
-4.212

@<SCITEGIC>MOL_PROPERTY
VdW12
SciTegic.value.DoubleValue
4.436

@<SCITEGIC>MOL_PROPERTY
Bond
SciTegic.value.DoubleValue
0.044

@<SCITEGIC>MOL_PROPERTY
Angle
SciTegic.value.DoubleValue
2.230

@<SCITEGIC>MOL_PROPERTY
Pdih
SciTegic.value.DoubleValue
12.956

@<SCITEGIC>MOL_PROPERTY
Idih
SciTegic.value.DoubleValue
0.000

@<SCITEGIC>MOL_PROPERTY
Tether
SciTegic.value.DoubleValue
0.000

@<TRIPOS>MOLECULE
guest-s20_confgen4.mol2 : confsearch ligand conformer 855
          17          16           1
SMALL
USER_CHARGES
 
@<TRIPOS>ATOM
       1    C1      17.502719   20.115853   22.385437 C.2        1 MOL1         0.6132
       2    O1      17.645169   21.321653   22.333035 O.co2      1 MOL1        -0.6749
       3    O2      16.879319   19.551049   23.262621 O.co2      1 MOL1        -0.6749
       4    C2      18.115734   19.267629   21.275344 C.3        1 MOL1        -0.1955
       5    H1      18.097993   19.858309   20.352008 H          1 MOL1         0.0733
       6    H2      17.451283   18.413613   21.099609 H          1 MOL1         0.0733
       7    C3      19.530222   18.768750   21.534616 C.2        1 MOL1        -0.1395
       8    H3      19.948552   18.165390   20.729942 H          1 MOL1         0.0816
       9    C4      20.261284   19.010253   22.629249 C.2        1 MOL1        -0.1394
      10    H4      19.867161   19.611213   23.447935 H          1 MOL1         0.0816
      11    C5      21.665443   18.488330   22.838714 C.3        1 MOL1        -0.1826
      12    H5      21.748049   18.037673   23.837014 H          1 MOL1         0.0736
      13    H6      21.893137   17.693970   22.114627 H          1 MOL1         0.0736
      14    C6      22.703056   19.619098   22.698153 C.3        1 MOL1        -0.2882
      15    H7      23.719797   19.235056   22.852459 H          1 MOL1         0.0749
      16    H8      22.656579   20.068520   21.697426 H          1 MOL1         0.0749
      17    H9      22.521909   20.410711   23.437066 H          1 MOL1         0.0749
@<TRIPOS>BOND
    1     1     2    1
    2     1     3    2
    3     1     4    1
    4     4     5    1
    5     4     6    1
    6     4     7    1
    7     7     8    1
    8     7     9    2
    9     9    10    1
   10     9    11    1
   11    11    12    1
   12    11    13    1
   13    11    14    1
   14    14    15    1
   15    14    16    1
   16    14    17    1
@<TRIPOS>SUBSTRUCTURE
       1 MOL1            1 RESIDUE      1      MOL     
@<SCITEGIC>MOL_PROPERTY
VConf Rank
SciTegic.value.IntegerValue
855

@<SCITEGIC>MOL_PROPERTY
Conf_Id
SciTegic.value.IntegerValue
39

@<SCITEGIC>MOL_PROPERTY
Delta U+W
SciTegic.value.DoubleValue
-0.422

@<SCITEGIC>MOL_PROPERTY
U+W
SciTegic.value.DoubleValue
-49.849

@<SCITEGIC>MOL_PROPERTY
Grad RMS
SciTegic.value.DoubleValue
0.000000

@<SCITEGIC>MOL_PROPERTY
U
SciTegic.value.DoubleValue
14.465

@<SCITEGIC>MOL_PROPERTY
W
SciTegic.value.DoubleValue
-64.314

@<SCITEGIC>MOL_PROPERTY
W(PB)
SciTegic.value.DoubleValue
-66.406

@<SCITEGIC>MOL_PROPERTY
W(SA)
SciTegic.value.DoubleValue
2.093

@<SCITEGIC>MOL_PROPERTY
Valence
SciTegic.value.DoubleValue
14.072

@<SCITEGIC>MOL_PROPERTY
Coulomb
SciTegic.value.DoubleValue
-0.199

@<SCITEGIC>MOL_PROPERTY
VdW
SciTegic.value.DoubleValue
0.592

@<SCITEGIC>MOL_PROPERTY
VdW6
SciTegic.value.DoubleValue
-5.019

@<SCITEGIC>MOL_PROPERTY
VdW12
SciTegic.value.DoubleValue
5.611

@<SCITEGIC>MOL_PROPERTY
Bond
SciTegic.value.DoubleValue
0.085

@<SCITEGIC>MOL_PROPERTY
Angle
SciTegic.value.DoubleValue
2.748

@<SCITEGIC>MOL_PROPERTY
Pdih
SciTegic.value.DoubleValue
11.238

@<SCITEGIC>MOL_PROPERTY
Idih
SciTegic.value.DoubleValue
0.001

@<SCITEGIC>MOL_PROPERTY
Tether
SciTegic.value.DoubleValue
0.000

@<TRIPOS>MOLECULE
guest-s20_confgen4.mol2 : confsearch ligand conformer 856
          17          16           1
SMALL
USER_CHARGES
 
@<TRIPOS>ATOM
       1    C1      20.489401   16.939458   20.002061 C.2        1 MOL1         0.6132
       2    O1      21.073946   17.223855   18.975228 O.co2      1 MOL1        -0.6749
       3    O2      19.521445   16.205842   20.043143 O.co2      1 MOL1        -0.6749
       4    C2      21.002855   17.531474   21.308004 C.3        1 MOL1        -0.1955
       5    H1      22.098145   17.495661   21.284231 H          1 MOL1         0.0733
       6    H2      20.678462   16.882123   22.130046 H          1 MOL1         0.0733
       7    C3      20.532974   18.957456   21.523717 C.2        1 MOL1        -0.1395
       8    H3      20.947626   19.692956   20.835019 H          1 MOL1         0.0816
       9    C4      19.671599   19.328535   22.475852 C.2        1 MOL1        -0.1394
      10    H4      19.255060   18.592083   23.162288 H          1 MOL1         0.0816
      11    C5      19.201285   20.750336   22.687061 C.3        1 MOL1        -0.1826
      12    H5      19.454000   21.372044   21.817098 H          1 MOL1         0.0736
      13    H6      18.106993   20.768789   22.780442 H          1 MOL1         0.0736
      14    C6      19.835218   21.361273   23.951950 C.3        1 MOL1        -0.2882
      15    H7      20.930086   21.377078   23.870604 H          1 MOL1         0.0749
      16    H8      19.489736   22.392643   24.100287 H          1 MOL1         0.0749
      17    H9      19.566880   20.780501   24.844210 H          1 MOL1         0.0749
@<TRIPOS>BOND
    1     1     2    1
    2     1     3    2
    3     1     4    1
    4     4     5    1
    5     4     6    1
    6     4     7    1
    7     7     8    1
    8     7     9    2
    9     9    10    1
   10     9    11    1
   11    11    12    1
   12    11    13    1
   13    11    14    1
   14    14    15    1
   15    14    16    1
   16    14    17    1
@<TRIPOS>SUBSTRUCTURE
       1 MOL1            1 RESIDUE      1      MOL     
@<SCITEGIC>MOL_PROPERTY
VConf Rank
SciTegic.value.IntegerValue
856

@<SCITEGIC>MOL_PROPERTY
Conf_Id
SciTegic.value.IntegerValue
38

@<SCITEGIC>MOL_PROPERTY
Delta U+W
SciTegic.value.DoubleValue
0.000

@<SCITEGIC>MOL_PROPERTY
U+W
SciTegic.value.DoubleValue
-49.427

@<SCITEGIC>MOL_PROPERTY
Grad RMS
SciTegic.value.DoubleValue
0.000000

@<SCITEGIC>MOL_PROPERTY
U
SciTegic.value.DoubleValue
13.666

@<SCITEGIC>MOL_PROPERTY
W
SciTegic.value.DoubleValue
-63.093

@<SCITEGIC>MOL_PROPERTY
W(PB)
SciTegic.value.DoubleValue
-65.225

@<SCITEGIC>MOL_PROPERTY
W(SA)
SciTegic.value.DoubleValue
2.132

@<SCITEGIC>MOL_PROPERTY
Valence
SciTegic.value.DoubleValue
15.226

@<SCITEGIC>MOL_PROPERTY
Coulomb
SciTegic.value.DoubleValue
-1.822

@<SCITEGIC>MOL_PROPERTY
VdW
SciTegic.value.DoubleValue
0.261

@<SCITEGIC>MOL_PROPERTY
VdW6
SciTegic.value.DoubleValue
-4.165

@<SCITEGIC>MOL_PROPERTY
VdW12
SciTegic.value.DoubleValue
4.426

@<SCITEGIC>MOL_PROPERTY
Bond
SciTegic.value.DoubleValue
0.044

@<SCITEGIC>MOL_PROPERTY
Angle
SciTegic.value.DoubleValue
2.229

@<SCITEGIC>MOL_PROPERTY
Pdih
SciTegic.value.DoubleValue
12.953

@<SCITEGIC>MOL_PROPERTY
Idih
SciTegic.value.DoubleValue
0.000

@<SCITEGIC>MOL_PROPERTY
Tether
SciTegic.value.DoubleValue
0.000

@<TRIPOS>MOLECULE
guest-s20_confgen4.mol2 : confsearch ligand conformer 857
          17          16           1
SMALL
USER_CHARGES
 
@<TRIPOS>ATOM
       1    C1      21.581663   20.519741   19.612661 C.2        1 MOL1         0.6132
       2    O1      21.107135   21.612302   19.371928 O.co2      1 MOL1        -0.6749
       3    O2      21.949129   19.742608   18.753596 O.co2      1 MOL1        -0.6749
       4    C2      21.729847   20.101844   21.069715 C.3        1 MOL1        -0.1955
       5    H1      21.769689   21.009082   21.684508 H          1 MOL1         0.0733
       6    H2      22.697890   19.598994   21.177151 H          1 MOL1         0.0733
       7    C3      20.612470   19.183738   21.527203 C.2        1 MOL1        -0.1395
       8    H3      20.607902   18.193966   21.071648 H          1 MOL1         0.0816
       9    C4      19.678401   19.524640   22.420247 C.2        1 MOL1        -0.1394
      10    H4      19.681694   20.515626   22.873014 H          1 MOL1         0.0816
      11    C5      18.562626   18.609199   22.872282 C.3        1 MOL1        -0.1826
      12    H5      17.603895   19.143426   22.827917 H          1 MOL1         0.0736
      13    H6      18.474886   17.747361   22.196444 H          1 MOL1         0.0736
      14    C6      18.805372   18.107874   24.309226 C.3        1 MOL1        -0.2882
      15    H7      18.859190   18.948425   25.013503 H          1 MOL1         0.0749
      16    H8      17.992231   17.444721   24.631894 H          1 MOL1         0.0749
      17    H9      19.747505   17.547557   24.372721 H          1 MOL1         0.0749
@<TRIPOS>BOND
    1     1     2    1
    2     1     3    2
    3     1     4    1
    4     4     5    1
    5     4     6    1
    6     4     7    1
    7     7     8    1
    8     7     9    2
    9     9    10    1
   10     9    11    1
   11    11    12    1
   12    11    13    1
   13    11    14    1
   14    14    15    1
   15    14    16    1
   16    14    17    1
@<TRIPOS>SUBSTRUCTURE
       1 MOL1            1 RESIDUE      1      MOL     
@<SCITEGIC>MOL_PROPERTY
VConf Rank
SciTegic.value.IntegerValue
857

@<SCITEGIC>MOL_PROPERTY
Conf_Id
SciTegic.value.IntegerValue
35

@<SCITEGIC>MOL_PROPERTY
Delta U+W
SciTegic.value.DoubleValue
-0.102

@<SCITEGIC>MOL_PROPERTY
U+W
SciTegic.value.DoubleValue
-49.529

@<SCITEGIC>MOL_PROPERTY
Grad RMS
SciTegic.value.DoubleValue
0.000000

@<SCITEGIC>MOL_PROPERTY
U
SciTegic.value.DoubleValue
13.666

@<SCITEGIC>MOL_PROPERTY
W
SciTegic.value.DoubleValue
-63.195

@<SCITEGIC>MOL_PROPERTY
W(PB)
SciTegic.value.DoubleValue
-65.299

@<SCITEGIC>MOL_PROPERTY
W(SA)
SciTegic.value.DoubleValue
2.103

@<SCITEGIC>MOL_PROPERTY
Valence
SciTegic.value.DoubleValue
15.226

@<SCITEGIC>MOL_PROPERTY
Coulomb
SciTegic.value.DoubleValue
-1.822

@<SCITEGIC>MOL_PROPERTY
VdW
SciTegic.value.DoubleValue
0.261

@<SCITEGIC>MOL_PROPERTY
VdW6
SciTegic.value.DoubleValue
-4.165

@<SCITEGIC>MOL_PROPERTY
VdW12
SciTegic.value.DoubleValue
4.426

@<SCITEGIC>MOL_PROPERTY
Bond
SciTegic.value.DoubleValue
0.044

@<SCITEGIC>MOL_PROPERTY
Angle
SciTegic.value.DoubleValue
2.229

@<SCITEGIC>MOL_PROPERTY
Pdih
SciTegic.value.DoubleValue
12.953

@<SCITEGIC>MOL_PROPERTY
Idih
SciTegic.value.DoubleValue
0.000

@<SCITEGIC>MOL_PROPERTY
Tether
SciTegic.value.DoubleValue
0.000

@<TRIPOS>MOLECULE
guest-s20_confgen4.mol2 : confsearch ligand conformer 858
          17          16           1
SMALL
USER_CHARGES
 
@<TRIPOS>ATOM
       1    C1      18.813822   19.855138   24.683185 C.2        1 MOL1         0.6132
       2    O1      19.382419   19.375160   25.644065 O.co2      1 MOL1        -0.6749
       3    O2      18.423999   21.005307   24.638477 O.co2      1 MOL1        -0.6749
       4    C2      18.569064   18.962168   23.473891 C.3        1 MOL1        -0.1955
       5    H1      17.717111   19.367651   22.915013 H          1 MOL1         0.0733
       6    H2      18.269478   17.974275   23.842435 H          1 MOL1         0.0733
       7    C3      19.793537   18.837516   22.587023 C.2        1 MOL1        -0.1395
       8    H3      20.625974   18.297755   23.035126 H          1 MOL1         0.0816
       9    C4      19.875349   19.345034   21.350721 C.2        1 MOL1        -0.1394
      10    H4      19.023032   19.883161   20.937127 H          1 MOL1         0.0816
      11    C5      21.067290   19.260999   20.412208 C.3        1 MOL1        -0.1826
      12    H5      20.751723   18.778908   19.477055 H          1 MOL1         0.0736
      13    H6      21.372163   20.278231   20.131474 H          1 MOL1         0.0736
      14    C6      22.291241   18.507748   20.978410 C.3        1 MOL1        -0.2882
      15    H7      22.036455   17.467573   21.220324 H          1 MOL1         0.0749
      16    H8      23.106897   18.491786   20.243918 H          1 MOL1         0.0749
      17    H9      22.667311   18.994711   21.887766 H          1 MOL1         0.0749
@<TRIPOS>BOND
    1     1     2    1
    2     1     3    2
    3     1     4    1
    4     4     5    1
    5     4     6    1
    6     4     7    1
    7     7     8    1
    8     7     9    2
    9     9    10    1
   10     9    11    1
   11    11    12    1
   12    11    13    1
   13    11    14    1
   14    14    15    1
   15    14    16    1
   16    14    17    1
@<TRIPOS>SUBSTRUCTURE
       1 MOL1            1 RESIDUE      1      MOL     
@<SCITEGIC>MOL_PROPERTY
VConf Rank
SciTegic.value.IntegerValue
858

@<SCITEGIC>MOL_PROPERTY
Conf_Id
SciTegic.value.IntegerValue
19

@<SCITEGIC>MOL_PROPERTY
Delta U+W
SciTegic.value.DoubleValue
-0.496

@<SCITEGIC>MOL_PROPERTY
U+W
SciTegic.value.DoubleValue
-49.923

@<SCITEGIC>MOL_PROPERTY
Grad RMS
SciTegic.value.DoubleValue
0.000000

@<SCITEGIC>MOL_PROPERTY
U
SciTegic.value.DoubleValue
13.863

@<SCITEGIC>MOL_PROPERTY
W
SciTegic.value.DoubleValue
-63.786

@<SCITEGIC>MOL_PROPERTY
W(PB)
SciTegic.value.DoubleValue
-65.856

@<SCITEGIC>MOL_PROPERTY
W(SA)
SciTegic.value.DoubleValue
2.070

@<SCITEGIC>MOL_PROPERTY
Valence
SciTegic.value.DoubleValue
14.117

@<SCITEGIC>MOL_PROPERTY
Coulomb
SciTegic.value.DoubleValue
-1.228

@<SCITEGIC>MOL_PROPERTY
VdW
SciTegic.value.DoubleValue
0.974

@<SCITEGIC>MOL_PROPERTY
VdW6
SciTegic.value.DoubleValue
-4.885

@<SCITEGIC>MOL_PROPERTY
VdW12
SciTegic.value.DoubleValue
5.859

@<SCITEGIC>MOL_PROPERTY
Bond
SciTegic.value.DoubleValue
0.094

@<SCITEGIC>MOL_PROPERTY
Angle
SciTegic.value.DoubleValue
2.818

@<SCITEGIC>MOL_PROPERTY
Pdih
SciTegic.value.DoubleValue
11.205

@<SCITEGIC>MOL_PROPERTY
Idih
SciTegic.value.DoubleValue
0.000

@<SCITEGIC>MOL_PROPERTY
Tether
SciTegic.value.DoubleValue
0.000

@<TRIPOS>MOLECULE
guest-s20_confgen4.mol2 : confsearch ligand conformer 859
          17          16           1
SMALL
USER_CHARGES
 
@<TRIPOS>ATOM
       1    C1      17.552563   20.297178   22.771434 C.2        1 MOL1         0.6132
       2    O1      16.896149   19.349959   23.157059 O.co2      1 MOL1        -0.6749
       3    O2      17.572549   21.374396   23.333756 O.co2      1 MOL1        -0.6749
       4    C2      18.388101   20.130973   21.508865 C.3        1 MOL1        -0.1955
       5    H1      18.278448   21.044076   20.912456 H          1 MOL1         0.0733
       6    H2      17.961095   19.310022   20.920342 H          1 MOL1         0.0733
       7    C3      19.853022   19.878796   21.810821 C.2        1 MOL1        -0.1395
       8    H3      20.386513   20.716799   22.258429 H          1 MOL1         0.0816
       9    C4      20.481997   18.724617   21.569003 C.2        1 MOL1        -0.1394
      10    H4      19.946752   17.885295   21.126157 H          1 MOL1         0.0816
      11    C5      21.942102   18.474269   21.873562 C.3        1 MOL1        -0.1826
      12    H5      22.431122   18.022354   20.999975 H          1 MOL1         0.0736
      13    H6      22.461661   19.422114   22.070684 H          1 MOL1         0.0736
      14    C6      22.101622   17.542779   23.090884 C.3        1 MOL1        -0.2882
      15    H7      21.624049   16.571583   22.906144 H          1 MOL1         0.0749
      16    H8      23.162938   17.364847   23.307715 H          1 MOL1         0.0749
      17    H9      21.640894   17.985950   23.983637 H          1 MOL1         0.0749
@<TRIPOS>BOND
    1     1     2    1
    2     1     3    2
    3     1     4    1
    4     4     5    1
    5     4     6    1
    6     4     7    1
    7     7     8    1
    8     7     9    2
    9     9    10    1
   10     9    11    1
   11    11    12    1
   12    11    13    1
   13    11    14    1
   14    14    15    1
   15    14    16    1
   16    14    17    1
@<TRIPOS>SUBSTRUCTURE
       1 MOL1            1 RESIDUE      1      MOL     
@<SCITEGIC>MOL_PROPERTY
VConf Rank
SciTegic.value.IntegerValue
859

@<SCITEGIC>MOL_PROPERTY
Conf_Id
SciTegic.value.IntegerValue
7

@<SCITEGIC>MOL_PROPERTY
Delta U+W
SciTegic.value.DoubleValue
-0.041

@<SCITEGIC>MOL_PROPERTY
U+W
SciTegic.value.DoubleValue
-49.468

@<SCITEGIC>MOL_PROPERTY
Grad RMS
SciTegic.value.DoubleValue
0.000000

@<SCITEGIC>MOL_PROPERTY
U
SciTegic.value.DoubleValue
14.121

@<SCITEGIC>MOL_PROPERTY
W
SciTegic.value.DoubleValue
-63.589

@<SCITEGIC>MOL_PROPERTY
W(PB)
SciTegic.value.DoubleValue
-65.660

@<SCITEGIC>MOL_PROPERTY
W(SA)
SciTegic.value.DoubleValue
2.071

@<SCITEGIC>MOL_PROPERTY
Valence
SciTegic.value.DoubleValue
15.230

@<SCITEGIC>MOL_PROPERTY
Coulomb
SciTegic.value.DoubleValue
-1.333

@<SCITEGIC>MOL_PROPERTY
VdW
SciTegic.value.DoubleValue
0.224

@<SCITEGIC>MOL_PROPERTY
VdW6
SciTegic.value.DoubleValue
-4.212

@<SCITEGIC>MOL_PROPERTY
VdW12
SciTegic.value.DoubleValue
4.436

@<SCITEGIC>MOL_PROPERTY
Bond
SciTegic.value.DoubleValue
0.044

@<SCITEGIC>MOL_PROPERTY
Angle
SciTegic.value.DoubleValue
2.230

@<SCITEGIC>MOL_PROPERTY
Pdih
SciTegic.value.DoubleValue
12.956

@<SCITEGIC>MOL_PROPERTY
Idih
SciTegic.value.DoubleValue
0.000

@<SCITEGIC>MOL_PROPERTY
Tether
SciTegic.value.DoubleValue
0.000

@<TRIPOS>MOLECULE
guest-s20_confgen4.mol2 : confsearch ligand conformer 860
          17          16           1
SMALL
USER_CHARGES
 
@<TRIPOS>ATOM
       1    C1      17.766753   20.200783   21.179274 C.2        1 MOL1         0.6132
       2    O1      16.996113   19.326016   21.522622 O.co2      1 MOL1        -0.6749
       3    O2      17.902672   20.561211   20.026581 O.co2      1 MOL1        -0.6749
       4    C2      18.587412   20.903491   22.256445 C.3        1 MOL1        -0.1955
       5    H1      17.989268   20.924301   23.174900 H          1 MOL1         0.0733
       6    H2      18.712180   21.949836   21.954259 H          1 MOL1         0.0733
       7    C3      19.949804   20.290866   22.548771 C.2        1 MOL1        -0.1395
       8    H3      20.518818   20.807836   23.320464 H          1 MOL1         0.0816
       9    C4      20.471115   19.211583   21.953473 C.2        1 MOL1        -0.1394
      10    H4      19.922769   18.675745   21.179569 H          1 MOL1         0.0816
      11    C5      21.833946   18.642674   22.280544 C.3        1 MOL1        -0.1826
      12    H5      22.389978   18.455864   21.351862 H          1 MOL1         0.0736
      13    H6      22.423839   19.365340   22.861003 H          1 MOL1         0.0736
      14    C6      21.708949   17.329486   23.077382 C.3        1 MOL1        -0.2882
      15    H7      22.700593   16.920508   23.310704 H          1 MOL1         0.0749
      16    H8      21.177903   17.496888   24.023723 H          1 MOL1         0.0749
      17    H9      21.155292   16.574644   22.503679 H          1 MOL1         0.0749
@<TRIPOS>BOND
    1     1     2    1
    2     1     3    2
    3     1     4    1
    4     4     5    1
    5     4     6    1
    6     4     7    1
    7     7     8    1
    8     7     9    2
    9     9    10    1
   10     9    11    1
   11    11    12    1
   12    11    13    1
   13    11    14    1
   14    14    15    1
   15    14    16    1
   16    14    17    1
@<TRIPOS>SUBSTRUCTURE
       1 MOL1            1 RESIDUE      1      MOL     
@<SCITEGIC>MOL_PROPERTY
VConf Rank
SciTegic.value.IntegerValue
860

@<SCITEGIC>MOL_PROPERTY
Conf_Id
SciTegic.value.IntegerValue
39

@<SCITEGIC>MOL_PROPERTY
Delta U+W
SciTegic.value.DoubleValue
-0.422

@<SCITEGIC>MOL_PROPERTY
U+W
SciTegic.value.DoubleValue
-49.849

@<SCITEGIC>MOL_PROPERTY
Grad RMS
SciTegic.value.DoubleValue
0.000000

@<SCITEGIC>MOL_PROPERTY
U
SciTegic.value.DoubleValue
14.465

@<SCITEGIC>MOL_PROPERTY
W
SciTegic.value.DoubleValue
-64.314

@<SCITEGIC>MOL_PROPERTY
W(PB)
SciTegic.value.DoubleValue
-66.406

@<SCITEGIC>MOL_PROPERTY
W(SA)
SciTegic.value.DoubleValue
2.093

@<SCITEGIC>MOL_PROPERTY
Valence
SciTegic.value.DoubleValue
14.072

@<SCITEGIC>MOL_PROPERTY
Coulomb
SciTegic.value.DoubleValue
-0.199

@<SCITEGIC>MOL_PROPERTY
VdW
SciTegic.value.DoubleValue
0.592

@<SCITEGIC>MOL_PROPERTY
VdW6
SciTegic.value.DoubleValue
-5.019

@<SCITEGIC>MOL_PROPERTY
VdW12
SciTegic.value.DoubleValue
5.611

@<SCITEGIC>MOL_PROPERTY
Bond
SciTegic.value.DoubleValue
0.085

@<SCITEGIC>MOL_PROPERTY
Angle
SciTegic.value.DoubleValue
2.748

@<SCITEGIC>MOL_PROPERTY
Pdih
SciTegic.value.DoubleValue
11.238

@<SCITEGIC>MOL_PROPERTY
Idih
SciTegic.value.DoubleValue
0.001

@<SCITEGIC>MOL_PROPERTY
Tether
SciTegic.value.DoubleValue
0.000

@<TRIPOS>MOLECULE
guest-s20_confgen4.mol2 : confsearch ligand conformer 861
          17          16           1
SMALL
USER_CHARGES
 
@<TRIPOS>ATOM
       1    C1      18.518426   16.675739   22.964061 C.2        1 MOL1         0.6132
       2    O1      19.129804   15.857810   23.622975 O.co2      1 MOL1        -0.6749
       3    O2      17.735987   16.379318   22.082731 O.co2      1 MOL1        -0.6749
       4    C2      18.742474   18.151932   23.264496 C.3        1 MOL1        -0.1955
       5    H1      18.794849   18.267980   24.353210 H          1 MOL1         0.0733
       6    H2      17.861043   18.708875   22.924592 H          1 MOL1         0.0733
       7    C3      20.006708   18.690098   22.621975 C.2        1 MOL1        -0.1395
       8    H3      20.938296   18.296169   23.027149 H          1 MOL1         0.0816
       9    C4      20.022391   19.581836   21.626593 C.2        1 MOL1        -0.1394
      10    H4      19.090413   19.973094   21.219905 H          1 MOL1         0.0816
      11    C5      21.283908   20.114497   20.984589 C.3        1 MOL1        -0.1826
      12    H5      22.147625   19.494570   21.261904 H          1 MOL1         0.0736
      13    H6      21.194874   20.059942   19.891140 H          1 MOL1         0.0736
      14    C6      21.546669   21.573267   21.406501 C.3        1 MOL1        -0.2882
      15    H7      21.664953   21.648877   22.495488 H          1 MOL1         0.0749
      16    H8      22.462867   21.954438   20.937059 H          1 MOL1         0.0749
      17    H9      20.714424   22.223667   21.106873 H          1 MOL1         0.0749
@<TRIPOS>BOND
    1     1     2    1
    2     1     3    2
    3     1     4    1
    4     4     5    1
    5     4     6    1
    6     4     7    1
    7     7     8    1
    8     7     9    2
    9     9    10    1
   10     9    11    1
   11    11    12    1
   12    11    13    1
   13    11    14    1
   14    14    15    1
   15    14    16    1
   16    14    17    1
@<TRIPOS>SUBSTRUCTURE
       1 MOL1            1 RESIDUE      1      MOL     
@<SCITEGIC>MOL_PROPERTY
VConf Rank
SciTegic.value.IntegerValue
861

@<SCITEGIC>MOL_PROPERTY
Conf_Id
SciTegic.value.IntegerValue
38

@<SCITEGIC>MOL_PROPERTY
Delta U+W
SciTegic.value.DoubleValue
0.000

@<SCITEGIC>MOL_PROPERTY
U+W
SciTegic.value.DoubleValue
-49.427

@<SCITEGIC>MOL_PROPERTY
Grad RMS
SciTegic.value.DoubleValue
0.000000

@<SCITEGIC>MOL_PROPERTY
U
SciTegic.value.DoubleValue
13.666

@<SCITEGIC>MOL_PROPERTY
W
SciTegic.value.DoubleValue
-63.093

@<SCITEGIC>MOL_PROPERTY
W(PB)
SciTegic.value.DoubleValue
-65.225

@<SCITEGIC>MOL_PROPERTY
W(SA)
SciTegic.value.DoubleValue
2.132

@<SCITEGIC>MOL_PROPERTY
Valence
SciTegic.value.DoubleValue
15.226

@<SCITEGIC>MOL_PROPERTY
Coulomb
SciTegic.value.DoubleValue
-1.822

@<SCITEGIC>MOL_PROPERTY
VdW
SciTegic.value.DoubleValue
0.261

@<SCITEGIC>MOL_PROPERTY
VdW6
SciTegic.value.DoubleValue
-4.165

@<SCITEGIC>MOL_PROPERTY
VdW12
SciTegic.value.DoubleValue
4.426

@<SCITEGIC>MOL_PROPERTY
Bond
SciTegic.value.DoubleValue
0.044

@<SCITEGIC>MOL_PROPERTY
Angle
SciTegic.value.DoubleValue
2.229

@<SCITEGIC>MOL_PROPERTY
Pdih
SciTegic.value.DoubleValue
12.953

@<SCITEGIC>MOL_PROPERTY
Idih
SciTegic.value.DoubleValue
0.000

@<SCITEGIC>MOL_PROPERTY
Tether
SciTegic.value.DoubleValue
0.000

@<TRIPOS>MOLECULE
guest-s20_confgen4.mol2 : confsearch ligand conformer 862
          17          16           1
SMALL
USER_CHARGES
 
@<TRIPOS>ATOM
       1    C1      20.118010   21.796748   24.007555 C.2        1 MOL1         0.6132
       2    O1      19.625610   22.740950   23.422027 O.co2      1 MOL1        -0.6749
       3    O2      21.063691   21.894484   24.764585 O.co2      1 MOL1        -0.6749
       4    C2      19.515290   20.415675   23.786258 C.3        1 MOL1        -0.1955
       5    H1      18.476962   20.543168   23.457229 H          1 MOL1         0.0733
       6    H2      19.484021   19.904648   24.755474 H          1 MOL1         0.0733
       7    C3      20.304594   19.590636   22.787732 C.2        1 MOL1        -0.1395
       8    H3      21.297378   19.286119   23.117657 H          1 MOL1         0.0816
       9    C4      19.854152   19.242153   21.578646 C.2        1 MOL1        -0.1394
      10    H4      18.862563   19.549687   21.248139 H          1 MOL1         0.0816
      11    C5      20.644161   18.422774   20.582741 C.3        1 MOL1        -0.1826
      12    H5      20.612184   18.906028   19.596853 H          1 MOL1         0.0736
      13    H6      21.701808   18.375755   20.876663 H          1 MOL1         0.0736
      14    C6      20.081454   16.992318   20.472200 C.3        1 MOL1        -0.2882
      15    H7      19.034400   17.007681   20.142245 H          1 MOL1         0.0749
      16    H8      20.658245   16.402857   19.747677 H          1 MOL1         0.0749
      17    H9      20.127003   16.479426   21.441977 H          1 MOL1         0.0749
@<TRIPOS>BOND
    1     1     2    1
    2     1     3    2
    3     1     4    1
    4     4     5    1
    5     4     6    1
    6     4     7    1
    7     7     8    1
    8     7     9    2
    9     9    10    1
   10     9    11    1
   11    11    12    1
   12    11    13    1
   13    11    14    1
   14    14    15    1
   15    14    16    1
   16    14    17    1
@<TRIPOS>SUBSTRUCTURE
       1 MOL1            1 RESIDUE      1      MOL     
@<SCITEGIC>MOL_PROPERTY
VConf Rank
SciTegic.value.IntegerValue
862

@<SCITEGIC>MOL_PROPERTY
Conf_Id
SciTegic.value.IntegerValue
35

@<SCITEGIC>MOL_PROPERTY
Delta U+W
SciTegic.value.DoubleValue
-0.102

@<SCITEGIC>MOL_PROPERTY
U+W
SciTegic.value.DoubleValue
-49.529

@<SCITEGIC>MOL_PROPERTY
Grad RMS
SciTegic.value.DoubleValue
0.000000

@<SCITEGIC>MOL_PROPERTY
U
SciTegic.value.DoubleValue
13.666

@<SCITEGIC>MOL_PROPERTY
W
SciTegic.value.DoubleValue
-63.195

@<SCITEGIC>MOL_PROPERTY
W(PB)
SciTegic.value.DoubleValue
-65.299

@<SCITEGIC>MOL_PROPERTY
W(SA)
SciTegic.value.DoubleValue
2.103

@<SCITEGIC>MOL_PROPERTY
Valence
SciTegic.value.DoubleValue
15.226

@<SCITEGIC>MOL_PROPERTY
Coulomb
SciTegic.value.DoubleValue
-1.822

@<SCITEGIC>MOL_PROPERTY
VdW
SciTegic.value.DoubleValue
0.261

@<SCITEGIC>MOL_PROPERTY
VdW6
SciTegic.value.DoubleValue
-4.165

@<SCITEGIC>MOL_PROPERTY
VdW12
SciTegic.value.DoubleValue
4.426

@<SCITEGIC>MOL_PROPERTY
Bond
SciTegic.value.DoubleValue
0.044

@<SCITEGIC>MOL_PROPERTY
Angle
SciTegic.value.DoubleValue
2.229

@<SCITEGIC>MOL_PROPERTY
Pdih
SciTegic.value.DoubleValue
12.953

@<SCITEGIC>MOL_PROPERTY
Idih
SciTegic.value.DoubleValue
0.000

@<SCITEGIC>MOL_PROPERTY
Tether
SciTegic.value.DoubleValue
0.000

@<TRIPOS>MOLECULE
guest-s20_confgen4.mol2 : confsearch ligand conformer 863
          17          16           1
SMALL
USER_CHARGES
 
@<TRIPOS>ATOM
       1    C1      22.636896   20.124009   23.555218 C.2        1 MOL1         0.6132
       2    O1      23.096773   21.057590   22.927593 O.co2      1 MOL1        -0.6749
       3    O2      22.500777   20.128135   24.762820 O.co2      1 MOL1        -0.6749
       4    C2      22.217754   18.878392   22.785509 C.3        1 MOL1        -0.1955
       5    H1      22.245128   18.024800   23.473417 H          1 MOL1         0.0733
       6    H2      22.973198   18.691989   22.013453 H          1 MOL1         0.0733
       7    C3      20.848056   19.022553   22.149468 C.2        1 MOL1        -0.1395
       8    H3      20.796591   19.750623   21.341783 H          1 MOL1         0.0816
       9    C4      19.769427   18.328165   22.533000 C.2        1 MOL1        -0.1394
      10    H4      19.858406   17.611093   23.348460 H          1 MOL1         0.0816
      11    C5      18.371708   18.424616   21.945063 C.3        1 MOL1        -0.1826
      12    H5      18.064247   17.431288   21.591126 H          1 MOL1         0.0736
      13    H6      17.665630   18.684241   22.745418 H          1 MOL1         0.0736
      14    C6      18.218409   19.439636   20.790826 C.3        1 MOL1        -0.2882
      15    H7      18.872166   19.179572   19.947992 H          1 MOL1         0.0749
      16    H8      17.184223   19.450738   20.422906 H          1 MOL1         0.0749
      17    H9      18.467475   20.455678   21.124167 H          1 MOL1         0.0749
@<TRIPOS>BOND
    1     1     2    1
    2     1     3    2
    3     1     4    1
    4     4     5    1
    5     4     6    1
    6     4     7    1
    7     7     8    1
    8     7     9    2
    9     9    10    1
   10     9    11    1
   11    11    12    1
   12    11    13    1
   13    11    14    1
   14    14    15    1
   15    14    16    1
   16    14    17    1
@<TRIPOS>SUBSTRUCTURE
       1 MOL1            1 RESIDUE      1      MOL     
@<SCITEGIC>MOL_PROPERTY
VConf Rank
SciTegic.value.IntegerValue
863

@<SCITEGIC>MOL_PROPERTY
Conf_Id
SciTegic.value.IntegerValue
19

@<SCITEGIC>MOL_PROPERTY
Delta U+W
SciTegic.value.DoubleValue
-0.496

@<SCITEGIC>MOL_PROPERTY
U+W
SciTegic.value.DoubleValue
-49.923

@<SCITEGIC>MOL_PROPERTY
Grad RMS
SciTegic.value.DoubleValue
0.000000

@<SCITEGIC>MOL_PROPERTY
U
SciTegic.value.DoubleValue
13.863

@<SCITEGIC>MOL_PROPERTY
W
SciTegic.value.DoubleValue
-63.786

@<SCITEGIC>MOL_PROPERTY
W(PB)
SciTegic.value.DoubleValue
-65.856

@<SCITEGIC>MOL_PROPERTY
W(SA)
SciTegic.value.DoubleValue
2.070

@<SCITEGIC>MOL_PROPERTY
Valence
SciTegic.value.DoubleValue
14.117

@<SCITEGIC>MOL_PROPERTY
Coulomb
SciTegic.value.DoubleValue
-1.228

@<SCITEGIC>MOL_PROPERTY
VdW
SciTegic.value.DoubleValue
0.974

@<SCITEGIC>MOL_PROPERTY
VdW6
SciTegic.value.DoubleValue
-4.885

@<SCITEGIC>MOL_PROPERTY
VdW12
SciTegic.value.DoubleValue
5.859

@<SCITEGIC>MOL_PROPERTY
Bond
SciTegic.value.DoubleValue
0.094

@<SCITEGIC>MOL_PROPERTY
Angle
SciTegic.value.DoubleValue
2.818

@<SCITEGIC>MOL_PROPERTY
Pdih
SciTegic.value.DoubleValue
11.205

@<SCITEGIC>MOL_PROPERTY
Idih
SciTegic.value.DoubleValue
0.000

@<SCITEGIC>MOL_PROPERTY
Tether
SciTegic.value.DoubleValue
0.000

@<TRIPOS>MOLECULE
guest-s20_confgen4.mol2 : confsearch ligand conformer 864
          17          16           1
SMALL
USER_CHARGES
 
@<TRIPOS>ATOM
       1    C1      18.119485   17.815154   20.507587 C.2        1 MOL1         0.6132
       2    O1      17.085880   18.220517   21.001705 O.co2      1 MOL1        -0.6749
       3    O2      18.338322   17.815775   19.312132 O.co2      1 MOL1        -0.6749
       4    C2      19.196438   17.266055   21.434134 C.3        1 MOL1        -0.1955
       5    H1      19.609835   16.363744   20.968923 H          1 MOL1         0.0733
       6    H2      18.717507   16.953984   22.370024 H          1 MOL1         0.0733
       7    C3      20.302718   18.269723   21.697879 C.2        1 MOL1        -0.1395
       8    H3      20.926033   18.511544   20.837521 H          1 MOL1         0.0816
       9    C4      20.527126   18.846347   22.882514 C.2        1 MOL1        -0.1394
      10    H4      19.900295   18.608043   23.741207 H          1 MOL1         0.0816
      11    C5      21.628983   19.849131   23.142656 C.3        1 MOL1        -0.1826
      12    H5      22.177078   19.570313   24.052806 H          1 MOL1         0.0736
      13    H6      22.357913   19.841187   22.320582 H          1 MOL1         0.0736
      14    C6      21.056644   21.271032   23.302710 C.3        1 MOL1        -0.2882
      15    H7      20.352568   21.317439   24.143869 H          1 MOL1         0.0749
      16    H8      21.860417   21.994655   23.490819 H          1 MOL1         0.0749
      17    H9      20.524332   21.581367   22.393855 H          1 MOL1         0.0749
@<TRIPOS>BOND
    1     1     2    1
    2     1     3    2
    3     1     4    1
    4     4     5    1
    5     4     6    1
    6     4     7    1
    7     7     8    1
    8     7     9    2
    9     9    10    1
   10     9    11    1
   11    11    12    1
   12    11    13    1
   13    11    14    1
   14    14    15    1
   15    14    16    1
   16    14    17    1
@<TRIPOS>SUBSTRUCTURE
       1 MOL1            1 RESIDUE      1      MOL     
@<SCITEGIC>MOL_PROPERTY
VConf Rank
SciTegic.value.IntegerValue
864

@<SCITEGIC>MOL_PROPERTY
Conf_Id
SciTegic.value.IntegerValue
7

@<SCITEGIC>MOL_PROPERTY
Delta U+W
SciTegic.value.DoubleValue
-0.041

@<SCITEGIC>MOL_PROPERTY
U+W
SciTegic.value.DoubleValue
-49.468

@<SCITEGIC>MOL_PROPERTY
Grad RMS
SciTegic.value.DoubleValue
0.000000

@<SCITEGIC>MOL_PROPERTY
U
SciTegic.value.DoubleValue
14.121

@<SCITEGIC>MOL_PROPERTY
W
SciTegic.value.DoubleValue
-63.589

@<SCITEGIC>MOL_PROPERTY
W(PB)
SciTegic.value.DoubleValue
-65.660

@<SCITEGIC>MOL_PROPERTY
W(SA)
SciTegic.value.DoubleValue
2.071

@<SCITEGIC>MOL_PROPERTY
Valence
SciTegic.value.DoubleValue
15.230

@<SCITEGIC>MOL_PROPERTY
Coulomb
SciTegic.value.DoubleValue
-1.333

@<SCITEGIC>MOL_PROPERTY
VdW
SciTegic.value.DoubleValue
0.224

@<SCITEGIC>MOL_PROPERTY
VdW6
SciTegic.value.DoubleValue
-4.212

@<SCITEGIC>MOL_PROPERTY
VdW12
SciTegic.value.DoubleValue
4.436

@<SCITEGIC>MOL_PROPERTY
Bond
SciTegic.value.DoubleValue
0.044

@<SCITEGIC>MOL_PROPERTY
Angle
SciTegic.value.DoubleValue
2.230

@<SCITEGIC>MOL_PROPERTY
Pdih
SciTegic.value.DoubleValue
12.956

@<SCITEGIC>MOL_PROPERTY
Idih
SciTegic.value.DoubleValue
0.000

@<SCITEGIC>MOL_PROPERTY
Tether
SciTegic.value.DoubleValue
0.000

@<TRIPOS>MOLECULE
guest-s20_confgen4.mol2 : confsearch ligand conformer 865
          17          16           1
SMALL
USER_CHARGES
 
@<TRIPOS>ATOM
       1    C1      22.441105   19.537793   23.754366 C.2        1 MOL1         0.6132
       2    O1      23.207718   19.967120   22.914738 O.co2      1 MOL1        -0.6749
       3    O2      22.667551   18.552539   24.428962 O.co2      1 MOL1        -0.6749
       4    C2      21.136812   20.292080   23.994047 C.3        1 MOL1        -0.1955
       5    H1      21.323977   21.355726   23.805910 H          1 MOL1         0.0733
       6    H2      20.894151   20.212719   25.060132 H          1 MOL1         0.0733
       7    C3      19.947835   19.828813   23.164230 C.2        1 MOL1        -0.1395
       8    H3      19.027236   20.380324   23.350991 H          1 MOL1         0.0816
       9    C4      19.955290   18.839735   22.262752 C.2        1 MOL1        -0.1394
      10    H4      20.862579   18.273196   22.056368 H          1 MOL1         0.0816
      11    C5      18.742686   18.416672   21.463659 C.3        1 MOL1        -0.1826
      12    H5      18.635863   17.324169   21.502979 H          1 MOL1         0.0736
      13    H6      17.827116   18.838677   21.900461 H          1 MOL1         0.0736
      14    C6      18.862222   18.868555   19.995139 C.3        1 MOL1        -0.2882
      15    H7      17.980478   18.557767   19.419817 H          1 MOL1         0.0749
      16    H8      18.944532   19.961470   19.929141 H          1 MOL1         0.0749
      17    H9      19.750256   18.429717   19.521562 H          1 MOL1         0.0749
@<TRIPOS>BOND
    1     1     2    1
    2     1     3    2
    3     1     4    1
    4     4     5    1
    5     4     6    1
    6     4     7    1
    7     7     8    1
    8     7     9    2
    9     9    10    1
   10     9    11    1
   11    11    12    1
   12    11    13    1
   13    11    14    1
   14    14    15    1
   15    14    16    1
   16    14    17    1
@<TRIPOS>SUBSTRUCTURE
       1 MOL1            1 RESIDUE      1      MOL     
@<SCITEGIC>MOL_PROPERTY
VConf Rank
SciTegic.value.IntegerValue
865

@<SCITEGIC>MOL_PROPERTY
Conf_Id
SciTegic.value.IntegerValue
39

@<SCITEGIC>MOL_PROPERTY
Delta U+W
SciTegic.value.DoubleValue
-0.422

@<SCITEGIC>MOL_PROPERTY
U+W
SciTegic.value.DoubleValue
-49.849

@<SCITEGIC>MOL_PROPERTY
Grad RMS
SciTegic.value.DoubleValue
0.000000

@<SCITEGIC>MOL_PROPERTY
U
SciTegic.value.DoubleValue
14.465

@<SCITEGIC>MOL_PROPERTY
W
SciTegic.value.DoubleValue
-64.314

@<SCITEGIC>MOL_PROPERTY
W(PB)
SciTegic.value.DoubleValue
-66.406

@<SCITEGIC>MOL_PROPERTY
W(SA)
SciTegic.value.DoubleValue
2.093

@<SCITEGIC>MOL_PROPERTY
Valence
SciTegic.value.DoubleValue
14.072

@<SCITEGIC>MOL_PROPERTY
Coulomb
SciTegic.value.DoubleValue
-0.199

@<SCITEGIC>MOL_PROPERTY
VdW
SciTegic.value.DoubleValue
0.592

@<SCITEGIC>MOL_PROPERTY
VdW6
SciTegic.value.DoubleValue
-5.019

@<SCITEGIC>MOL_PROPERTY
VdW12
SciTegic.value.DoubleValue
5.611

@<SCITEGIC>MOL_PROPERTY
Bond
SciTegic.value.DoubleValue
0.085

@<SCITEGIC>MOL_PROPERTY
Angle
SciTegic.value.DoubleValue
2.748

@<SCITEGIC>MOL_PROPERTY
Pdih
SciTegic.value.DoubleValue
11.238

@<SCITEGIC>MOL_PROPERTY
Idih
SciTegic.value.DoubleValue
0.001

@<SCITEGIC>MOL_PROPERTY
Tether
SciTegic.value.DoubleValue
0.000

@<TRIPOS>MOLECULE
guest-s20_confgen4.mol2 : confsearch ligand conformer 866
          17          16           1
SMALL
USER_CHARGES
 
@<TRIPOS>ATOM
       1    C1      20.161449   22.430723   21.888287 C.2        1 MOL1         0.6132
       2    O1      19.549103   22.921281   20.960200 O.co2      1 MOL1        -0.6749
       3    O2      21.240603   22.837634   22.271261 O.co2      1 MOL1        -0.6749
       4    C2      19.538129   21.244954   22.612876 C.3        1 MOL1        -0.1955
       5    H1      18.465691   21.444365   22.720682 H          1 MOL1         0.0733
       6    H2      19.959462   21.200897   23.624398 H          1 MOL1         0.0733
       7    C3      19.753087   19.936177   21.876914 C.2        1 MOL1        -0.1395
       8    H3      19.226421   19.844587   20.927474 H          1 MOL1         0.0816
       9    C4      20.526265   18.941631   22.323345 C.2        1 MOL1        -0.1394
      10    H4      21.054980   19.035075   23.271390 H          1 MOL1         0.0816
      11    C5      20.742423   17.638800   21.586305 C.3        1 MOL1        -0.1826
      12    H5      20.397025   17.723399   20.546707 H          1 MOL1         0.0736
      13    H6      21.816025   17.410465   21.544147 H          1 MOL1         0.0736
      14    C6      19.997667   16.480689   22.278532 C.3        1 MOL1        -0.2882
      15    H7      18.917461   16.675090   22.309568 H          1 MOL1         0.0749
      16    H8      20.158780   15.537981   21.739617 H          1 MOL1         0.0749
      17    H9      20.351144   16.348362   23.309538 H          1 MOL1         0.0749
@<TRIPOS>BOND
    1     1     2    1
    2     1     3    2
    3     1     4    1
    4     4     5    1
    5     4     6    1
    6     4     7    1
    7     7     8    1
    8     7     9    2
    9     9    10    1
   10     9    11    1
   11    11    12    1
   12    11    13    1
   13    11    14    1
   14    14    15    1
   15    14    16    1
   16    14    17    1
@<TRIPOS>SUBSTRUCTURE
       1 MOL1            1 RESIDUE      1      MOL     
@<SCITEGIC>MOL_PROPERTY
VConf Rank
SciTegic.value.IntegerValue
866

@<SCITEGIC>MOL_PROPERTY
Conf_Id
SciTegic.value.IntegerValue
38

@<SCITEGIC>MOL_PROPERTY
Delta U+W
SciTegic.value.DoubleValue
0.000

@<SCITEGIC>MOL_PROPERTY
U+W
SciTegic.value.DoubleValue
-49.427

@<SCITEGIC>MOL_PROPERTY
Grad RMS
SciTegic.value.DoubleValue
0.000000

@<SCITEGIC>MOL_PROPERTY
U
SciTegic.value.DoubleValue
13.666

@<SCITEGIC>MOL_PROPERTY
W
SciTegic.value.DoubleValue
-63.093

@<SCITEGIC>MOL_PROPERTY
W(PB)
SciTegic.value.DoubleValue
-65.225

@<SCITEGIC>MOL_PROPERTY
W(SA)
SciTegic.value.DoubleValue
2.132

@<SCITEGIC>MOL_PROPERTY
Valence
SciTegic.value.DoubleValue
15.226

@<SCITEGIC>MOL_PROPERTY
Coulomb
SciTegic.value.DoubleValue
-1.822

@<SCITEGIC>MOL_PROPERTY
VdW
SciTegic.value.DoubleValue
0.261

@<SCITEGIC>MOL_PROPERTY
VdW6
SciTegic.value.DoubleValue
-4.165

@<SCITEGIC>MOL_PROPERTY
VdW12
SciTegic.value.DoubleValue
4.426

@<SCITEGIC>MOL_PROPERTY
Bond
SciTegic.value.DoubleValue
0.044

@<SCITEGIC>MOL_PROPERTY
Angle
SciTegic.value.DoubleValue
2.229

@<SCITEGIC>MOL_PROPERTY
Pdih
SciTegic.value.DoubleValue
12.953

@<SCITEGIC>MOL_PROPERTY
Idih
SciTegic.value.DoubleValue
0.000

@<SCITEGIC>MOL_PROPERTY
Tether
SciTegic.value.DoubleValue
0.000

@<TRIPOS>MOLECULE
guest-s20_confgen4.mol2 : confsearch ligand conformer 867
          17          16           1
SMALL
USER_CHARGES
 
@<TRIPOS>ATOM
       1    C1      18.733585   16.850837   23.636829 C.2        1 MOL1         0.6132
       2    O1      18.963518   16.955009   24.825567 O.co2      1 MOL1        -0.6749
       3    O2      18.699086   15.787315   23.049725 O.co2      1 MOL1        -0.6749
       4    C2      18.468585   18.120510   22.838512 C.3        1 MOL1        -0.1955
       5    H1      18.118815   18.894944   23.531732 H          1 MOL1         0.0733
       6    H2      17.644588   17.914626   22.145585 H          1 MOL1         0.0733
       7    C3      19.689817   18.589455   22.070770 C.2        1 MOL1        -0.1395
       8    H3      20.001170   17.941882   21.251680 H          1 MOL1         0.0816
       9    C4      20.366871   19.708142   22.347114 C.2        1 MOL1        -0.1394
      10    H4      20.056876   20.353579   23.168318 H          1 MOL1         0.0816
      11    C5      21.586763   20.172126   21.582979 C.3        1 MOL1        -0.1826
      12    H5      22.384655   20.443056   22.287605 H          1 MOL1         0.0736
      13    H6      21.980919   19.359128   20.957763 H          1 MOL1         0.0736
      14    C6      21.254181   21.385071   20.692354 C.3        1 MOL1        -0.2882
      15    H7      20.893294   22.227615   21.296762 H          1 MOL1         0.0749
      16    H8      22.143278   21.717619   20.140988 H          1 MOL1         0.0749
      17    H9      20.475526   21.130189   19.961373 H          1 MOL1         0.0749
@<TRIPOS>BOND
    1     1     2    1
    2     1     3    2
    3     1     4    1
    4     4     5    1
    5     4     6    1
    6     4     7    1
    7     7     8    1
    8     7     9    2
    9     9    10    1
   10     9    11    1
   11    11    12    1
   12    11    13    1
   13    11    14    1
   14    14    15    1
   15    14    16    1
   16    14    17    1
@<TRIPOS>SUBSTRUCTURE
       1 MOL1            1 RESIDUE      1      MOL     
@<SCITEGIC>MOL_PROPERTY
VConf Rank
SciTegic.value.IntegerValue
867

@<SCITEGIC>MOL_PROPERTY
Conf_Id
SciTegic.value.IntegerValue
35

@<SCITEGIC>MOL_PROPERTY
Delta U+W
SciTegic.value.DoubleValue
-0.102

@<SCITEGIC>MOL_PROPERTY
U+W
SciTegic.value.DoubleValue
-49.529

@<SCITEGIC>MOL_PROPERTY
Grad RMS
SciTegic.value.DoubleValue
0.000000

@<SCITEGIC>MOL_PROPERTY
U
SciTegic.value.DoubleValue
13.666

@<SCITEGIC>MOL_PROPERTY
W
SciTegic.value.DoubleValue
-63.195

@<SCITEGIC>MOL_PROPERTY
W(PB)
SciTegic.value.DoubleValue
-65.299

@<SCITEGIC>MOL_PROPERTY
W(SA)
SciTegic.value.DoubleValue
2.103

@<SCITEGIC>MOL_PROPERTY
Valence
SciTegic.value.DoubleValue
15.226

@<SCITEGIC>MOL_PROPERTY
Coulomb
SciTegic.value.DoubleValue
-1.822

@<SCITEGIC>MOL_PROPERTY
VdW
SciTegic.value.DoubleValue
0.261

@<SCITEGIC>MOL_PROPERTY
VdW6
SciTegic.value.DoubleValue
-4.165

@<SCITEGIC>MOL_PROPERTY
VdW12
SciTegic.value.DoubleValue
4.426

@<SCITEGIC>MOL_PROPERTY
Bond
SciTegic.value.DoubleValue
0.044

@<SCITEGIC>MOL_PROPERTY
Angle
SciTegic.value.DoubleValue
2.229

@<SCITEGIC>MOL_PROPERTY
Pdih
SciTegic.value.DoubleValue
12.953

@<SCITEGIC>MOL_PROPERTY
Idih
SciTegic.value.DoubleValue
0.000

@<SCITEGIC>MOL_PROPERTY
Tether
SciTegic.value.DoubleValue
0.000

@<TRIPOS>MOLECULE
guest-s20_confgen4.mol2 : confsearch ligand conformer 868
          17          16           1
SMALL
USER_CHARGES
 
@<TRIPOS>ATOM
       1    C1      21.616282   21.529824   21.278621 C.2        1 MOL1         0.6132
       2    O1      20.817968   22.435279   21.137850 O.co2      1 MOL1        -0.6749
       3    O2      22.691288   21.661392   21.829894 O.co2      1 MOL1        -0.6749
       4    C2      21.251691   20.158630   20.724911 C.3        1 MOL1        -0.1955
       5    H1      22.180363   19.605589   20.539713 H          1 MOL1         0.0733
       6    H2      20.768432   20.308018   19.752464 H          1 MOL1         0.0733
       7    C3      20.331433   19.384955   21.650090 C.2        1 MOL1        -0.1395
       8    H3      19.331214   19.802971   21.749661 H          1 MOL1         0.0816
       9    C4      20.693765   18.277246   22.309187 C.2        1 MOL1        -0.1394
      10    H4      21.705224   17.890786   22.188016 H          1 MOL1         0.0816
      11    C5      19.828020   17.457455   23.251004 C.3        1 MOL1        -0.1826
      12    H5      19.780737   16.423564   22.883119 H          1 MOL1         0.0736
      13    H6      20.322414   17.399883   24.230178 H          1 MOL1         0.0736
      14    C6      18.390577   17.988904   23.444256 C.3        1 MOL1        -0.2882
      15    H7      17.846434   18.009045   22.490891 H          1 MOL1         0.0749
      16    H8      17.832122   17.345346   24.136347 H          1 MOL1         0.0749
      17    H9      18.398900   19.004235   23.862017 H          1 MOL1         0.0749
@<TRIPOS>BOND
    1     1     2    1
    2     1     3    2
    3     1     4    1
    4     4     5    1
    5     4     6    1
    6     4     7    1
    7     7     8    1
    8     7     9    2
    9     9    10    1
   10     9    11    1
   11    11    12    1
   12    11    13    1
   13    11    14    1
   14    14    15    1
   15    14    16    1
   16    14    17    1
@<TRIPOS>SUBSTRUCTURE
       1 MOL1            1 RESIDUE      1      MOL     
@<SCITEGIC>MOL_PROPERTY
VConf Rank
SciTegic.value.IntegerValue
868

@<SCITEGIC>MOL_PROPERTY
Conf_Id
SciTegic.value.IntegerValue
19

@<SCITEGIC>MOL_PROPERTY
Delta U+W
SciTegic.value.DoubleValue
-0.496

@<SCITEGIC>MOL_PROPERTY
U+W
SciTegic.value.DoubleValue
-49.923

@<SCITEGIC>MOL_PROPERTY
Grad RMS
SciTegic.value.DoubleValue
0.000000

@<SCITEGIC>MOL_PROPERTY
U
SciTegic.value.DoubleValue
13.863

@<SCITEGIC>MOL_PROPERTY
W
SciTegic.value.DoubleValue
-63.786

@<SCITEGIC>MOL_PROPERTY
W(PB)
SciTegic.value.DoubleValue
-65.856

@<SCITEGIC>MOL_PROPERTY
W(SA)
SciTegic.value.DoubleValue
2.070

@<SCITEGIC>MOL_PROPERTY
Valence
SciTegic.value.DoubleValue
14.117

@<SCITEGIC>MOL_PROPERTY
Coulomb
SciTegic.value.DoubleValue
-1.228

@<SCITEGIC>MOL_PROPERTY
VdW
SciTegic.value.DoubleValue
0.974

@<SCITEGIC>MOL_PROPERTY
VdW6
SciTegic.value.DoubleValue
-4.885

@<SCITEGIC>MOL_PROPERTY
VdW12
SciTegic.value.DoubleValue
5.859

@<SCITEGIC>MOL_PROPERTY
Bond
SciTegic.value.DoubleValue
0.094

@<SCITEGIC>MOL_PROPERTY
Angle
SciTegic.value.DoubleValue
2.818

@<SCITEGIC>MOL_PROPERTY
Pdih
SciTegic.value.DoubleValue
11.205

@<SCITEGIC>MOL_PROPERTY
Idih
SciTegic.value.DoubleValue
0.000

@<SCITEGIC>MOL_PROPERTY
Tether
SciTegic.value.DoubleValue
0.000

@<TRIPOS>MOLECULE
guest-s20_confgen4.mol2 : confsearch ligand conformer 869
          17          16           1
SMALL
USER_CHARGES
 
@<TRIPOS>ATOM
       1    C1      20.665244   16.437284   23.420126 C.2        1 MOL1         0.6132
       2    O1      21.734824   16.130566   22.931519 O.co2      1 MOL1        -0.6749
       3    O2      20.410580   16.326866   24.603324 O.co2      1 MOL1        -0.6749
       4    C2      19.579606   16.979765   22.499837 C.3        1 MOL1        -0.1955
       5    H1      18.628852   16.523394   22.798630 H          1 MOL1         0.0733
       6    H2      19.792640   16.638790   21.479540 H          1 MOL1         0.0733
       7    C3      19.472213   18.491724   22.556482 C.2        1 MOL1        -0.1395
       8    H3      19.112038   18.897254   23.501487 H          1 MOL1         0.0816
       9    C4      19.793266   19.305985   21.546472 C.2        1 MOL1        -0.1394
      10    H4      20.158263   18.900193   20.603514 H          1 MOL1         0.0816
      11    C5      19.688220   20.813551   21.606033 C.3        1 MOL1        -0.1826
      12    H5      19.171037   21.185061   20.711034 H          1 MOL1         0.0736
      13    H6      19.084608   21.122967   22.470395 H          1 MOL1         0.0736
      14    C6      21.083035   21.462137   21.699950 C.3        1 MOL1        -0.2882
      15    H7      21.696069   21.200742   20.827432 H          1 MOL1         0.0749
      16    H8      21.000935   22.555958   21.743339 H          1 MOL1         0.0749
      17    H9      21.610147   21.123772   22.601805 H          1 MOL1         0.0749
@<TRIPOS>BOND
    1     1     2    1
    2     1     3    2
    3     1     4    1
    4     4     5    1
    5     4     6    1
    6     4     7    1
    7     7     8    1
    8     7     9    2
    9     9    10    1
   10     9    11    1
   11    11    12    1
   12    11    13    1
   13    11    14    1
   14    14    15    1
   15    14    16    1
   16    14    17    1
@<TRIPOS>SUBSTRUCTURE
       1 MOL1            1 RESIDUE      1      MOL     
@<SCITEGIC>MOL_PROPERTY
VConf Rank
SciTegic.value.IntegerValue
869

@<SCITEGIC>MOL_PROPERTY
Conf_Id
SciTegic.value.IntegerValue
7

@<SCITEGIC>MOL_PROPERTY
Delta U+W
SciTegic.value.DoubleValue
-0.041

@<SCITEGIC>MOL_PROPERTY
U+W
SciTegic.value.DoubleValue
-49.468

@<SCITEGIC>MOL_PROPERTY
Grad RMS
SciTegic.value.DoubleValue
0.000000

@<SCITEGIC>MOL_PROPERTY
U
SciTegic.value.DoubleValue
14.121

@<SCITEGIC>MOL_PROPERTY
W
SciTegic.value.DoubleValue
-63.589

@<SCITEGIC>MOL_PROPERTY
W(PB)
SciTegic.value.DoubleValue
-65.660

@<SCITEGIC>MOL_PROPERTY
W(SA)
SciTegic.value.DoubleValue
2.071

@<SCITEGIC>MOL_PROPERTY
Valence
SciTegic.value.DoubleValue
15.230

@<SCITEGIC>MOL_PROPERTY
Coulomb
SciTegic.value.DoubleValue
-1.333

@<SCITEGIC>MOL_PROPERTY
VdW
SciTegic.value.DoubleValue
0.224

@<SCITEGIC>MOL_PROPERTY
VdW6
SciTegic.value.DoubleValue
-4.212

@<SCITEGIC>MOL_PROPERTY
VdW12
SciTegic.value.DoubleValue
4.436

@<SCITEGIC>MOL_PROPERTY
Bond
SciTegic.value.DoubleValue
0.044

@<SCITEGIC>MOL_PROPERTY
Angle
SciTegic.value.DoubleValue
2.230

@<SCITEGIC>MOL_PROPERTY
Pdih
SciTegic.value.DoubleValue
12.956

@<SCITEGIC>MOL_PROPERTY
Idih
SciTegic.value.DoubleValue
0.000

@<SCITEGIC>MOL_PROPERTY
Tether
SciTegic.value.DoubleValue
0.000

@<TRIPOS>MOLECULE
guest-s20_confgen4.mol2 : confsearch ligand conformer 870
          17          16           1
SMALL
USER_CHARGES
 
@<TRIPOS>ATOM
       1    C1      20.426377   18.184152   19.745517 C.2        1 MOL1         0.6132
       2    O1      20.649185   17.021724   20.021396 O.co2      1 MOL1        -0.6749
       3    O2      21.150196   18.856760   19.037868 O.co2      1 MOL1        -0.6749
       4    C2      19.155437   18.825463   20.294162 C.3        1 MOL1        -0.1955
       5    H1      18.389925   18.044344   20.369080 H          1 MOL1         0.0733
       6    H2      18.788032   19.536679   19.545226 H          1 MOL1         0.0733
       7    C3      19.300651   19.527775   21.636752 C.2        1 MOL1        -0.1395
       8    H3      18.381882   19.978552   22.009859 H          1 MOL1         0.0816
       9    C4      20.424497   19.623379   22.357049 C.2        1 MOL1        -0.1394
      10    H4      21.356467   19.180833   22.007310 H          1 MOL1         0.0816
      11    C5      20.515935   20.335623   23.688322 C.3        1 MOL1        -0.1826
      12    H5      21.386458   21.005475   23.691036 H          1 MOL1         0.0736
      13    H6      19.631596   20.967611   23.848603 H          1 MOL1         0.0736
      14    C6      20.639513   19.328057   24.847882 C.3        1 MOL1        -0.2882
      15    H7      20.706902   19.850304   25.811093 H          1 MOL1         0.0749
      16    H8      19.766494   18.662974   24.880998 H          1 MOL1         0.0749
      17    H9      21.537860   18.707367   24.733101 H          1 MOL1         0.0749
@<TRIPOS>BOND
    1     1     2    1
    2     1     3    2
    3     1     4    1
    4     4     5    1
    5     4     6    1
    6     4     7    1
    7     7     8    1
    8     7     9    2
    9     9    10    1
   10     9    11    1
   11    11    12    1
   12    11    13    1
   13    11    14    1
   14    14    15    1
   15    14    16    1
   16    14    17    1
@<TRIPOS>SUBSTRUCTURE
       1 MOL1            1 RESIDUE      1      MOL     
@<SCITEGIC>MOL_PROPERTY
VConf Rank
SciTegic.value.IntegerValue
870

@<SCITEGIC>MOL_PROPERTY
Conf_Id
SciTegic.value.IntegerValue
39

@<SCITEGIC>MOL_PROPERTY
Delta U+W
SciTegic.value.DoubleValue
-0.422

@<SCITEGIC>MOL_PROPERTY
U+W
SciTegic.value.DoubleValue
-49.849

@<SCITEGIC>MOL_PROPERTY
Grad RMS
SciTegic.value.DoubleValue
0.000000

@<SCITEGIC>MOL_PROPERTY
U
SciTegic.value.DoubleValue
14.465

@<SCITEGIC>MOL_PROPERTY
W
SciTegic.value.DoubleValue
-64.314

@<SCITEGIC>MOL_PROPERTY
W(PB)
SciTegic.value.DoubleValue
-66.406

@<SCITEGIC>MOL_PROPERTY
W(SA)
SciTegic.value.DoubleValue
2.093

@<SCITEGIC>MOL_PROPERTY
Valence
SciTegic.value.DoubleValue
14.072

@<SCITEGIC>MOL_PROPERTY
Coulomb
SciTegic.value.DoubleValue
-0.199

@<SCITEGIC>MOL_PROPERTY
VdW
SciTegic.value.DoubleValue
0.592

@<SCITEGIC>MOL_PROPERTY
VdW6
SciTegic.value.DoubleValue
-5.019

@<SCITEGIC>MOL_PROPERTY
VdW12
SciTegic.value.DoubleValue
5.611

@<SCITEGIC>MOL_PROPERTY
Bond
SciTegic.value.DoubleValue
0.085

@<SCITEGIC>MOL_PROPERTY
Angle
SciTegic.value.DoubleValue
2.748

@<SCITEGIC>MOL_PROPERTY
Pdih
SciTegic.value.DoubleValue
11.238

@<SCITEGIC>MOL_PROPERTY
Idih
SciTegic.value.DoubleValue
0.001

@<SCITEGIC>MOL_PROPERTY
Tether
SciTegic.value.DoubleValue
0.000

@<TRIPOS>MOLECULE
guest-s20_confgen4.mol2 : confsearch ligand conformer 871
          17          16           1
SMALL
USER_CHARGES
 
@<TRIPOS>ATOM
       1    C1      19.311500   19.201819   19.043419 C.2        1 MOL1         0.6132
       2    O1      18.122489   19.188843   18.792332 O.co2      1 MOL1        -0.6749
       3    O2      20.134235   18.547556   18.433611 O.co2      1 MOL1        -0.6749
       4    C2      19.795326   20.091271   20.181133 C.3        1 MOL1        -0.1955
       5    H1      19.247020   21.038575   20.122098 H          1 MOL1         0.0733
       6    H2      20.853668   20.322030   20.009956 H          1 MOL1         0.0733
       7    C3      19.590917   19.455211   21.542893 C.2        1 MOL1        -0.1395
       8    H3      18.552290   19.342230   21.852231 H          1 MOL1         0.0816
       9    C4      20.584556   19.045997   22.337532 C.2        1 MOL1        -0.1394
      10    H4      21.622811   19.156555   22.026302 H          1 MOL1         0.0816
      11    C5      20.378716   18.408516   23.693470 C.3        1 MOL1        -0.1826
      12    H5      19.331428   18.100652   23.818486 H          1 MOL1         0.0736
      13    H6      20.986584   17.496880   23.770608 H          1 MOL1         0.0736
      14    C6      20.763461   19.379933   24.826334 C.3        1 MOL1        -0.2882
      15    H7      20.149966   20.289613   24.785019 H          1 MOL1         0.0749
      16    H8      20.612603   18.911602   25.807657 H          1 MOL1         0.0749
      17    H9      21.818144   19.674825   24.748159 H          1 MOL1         0.0749
@<TRIPOS>BOND
    1     1     2    1
    2     1     3    2
    3     1     4    1
    4     4     5    1
    5     4     6    1
    6     4     7    1
    7     7     8    1
    8     7     9    2
    9     9    10    1
   10     9    11    1
   11    11    12    1
   12    11    13    1
   13    11    14    1
   14    14    15    1
   15    14    16    1
   16    14    17    1
@<TRIPOS>SUBSTRUCTURE
       1 MOL1            1 RESIDUE      1      MOL     
@<SCITEGIC>MOL_PROPERTY
VConf Rank
SciTegic.value.IntegerValue
871

@<SCITEGIC>MOL_PROPERTY
Conf_Id
SciTegic.value.IntegerValue
38

@<SCITEGIC>MOL_PROPERTY
Delta U+W
SciTegic.value.DoubleValue
0.000

@<SCITEGIC>MOL_PROPERTY
U+W
SciTegic.value.DoubleValue
-49.427

@<SCITEGIC>MOL_PROPERTY
Grad RMS
SciTegic.value.DoubleValue
0.000000

@<SCITEGIC>MOL_PROPERTY
U
SciTegic.value.DoubleValue
13.666

@<SCITEGIC>MOL_PROPERTY
W
SciTegic.value.DoubleValue
-63.093

@<SCITEGIC>MOL_PROPERTY
W(PB)
SciTegic.value.DoubleValue
-65.225

@<SCITEGIC>MOL_PROPERTY
W(SA)
SciTegic.value.DoubleValue
2.132

@<SCITEGIC>MOL_PROPERTY
Valence
SciTegic.value.DoubleValue
15.226

@<SCITEGIC>MOL_PROPERTY
Coulomb
SciTegic.value.DoubleValue
-1.822

@<SCITEGIC>MOL_PROPERTY
VdW
SciTegic.value.DoubleValue
0.261

@<SCITEGIC>MOL_PROPERTY
VdW6
SciTegic.value.DoubleValue
-4.165

@<SCITEGIC>MOL_PROPERTY
VdW12
SciTegic.value.DoubleValue
4.426

@<SCITEGIC>MOL_PROPERTY
Bond
SciTegic.value.DoubleValue
0.044

@<SCITEGIC>MOL_PROPERTY
Angle
SciTegic.value.DoubleValue
2.229

@<SCITEGIC>MOL_PROPERTY
Pdih
SciTegic.value.DoubleValue
12.953

@<SCITEGIC>MOL_PROPERTY
Idih
SciTegic.value.DoubleValue
0.000

@<SCITEGIC>MOL_PROPERTY
Tether
SciTegic.value.DoubleValue
0.000

@<TRIPOS>MOLECULE
guest-s20_confgen4.mol2 : confsearch ligand conformer 872
          17          16           1
SMALL
USER_CHARGES
 
@<TRIPOS>ATOM
       1    C1      18.559684   17.323906   24.082077 C.2        1 MOL1         0.6132
       2    O1      17.902314   17.985346   24.861294 O.co2      1 MOL1        -0.6749
       3    O2      19.137492   16.300197   24.390490 O.co2      1 MOL1        -0.6749
       4    C2      18.661853   17.798995   22.638658 C.3        1 MOL1        -0.1955
       5    H1      17.794828   18.435515   22.424765 H          1 MOL1         0.0733
       6    H2      18.581433   16.919105   21.989941 H          1 MOL1         0.0733
       7    C3      19.958547   18.534887   22.359747 C.2        1 MOL1        -0.1395
       8    H3      20.858337   17.921443   22.395296 H          1 MOL1         0.0816
       9    C4      20.037451   19.841168   22.088394 C.2        1 MOL1        -0.1394
      10    H4      19.137621   20.454622   22.056142 H          1 MOL1         0.0816
      11    C5      21.331725   20.574056   21.814435 C.3        1 MOL1        -0.1826
      12    H5      21.373006   21.491408   22.417174 H          1 MOL1         0.0736
      13    H6      22.192063   19.960317   22.115035 H          1 MOL1         0.0736
      14    C6      21.458949   20.934185   20.321390 C.3        1 MOL1        -0.2882
      15    H7      20.630602   21.580299   20.002321 H          1 MOL1         0.0749
      16    H8      22.399603   21.466353   20.128897 H          1 MOL1         0.0749
      17    H9      21.446019   20.029302   19.699602 H          1 MOL1         0.0749
@<TRIPOS>BOND
    1     1     2    1
    2     1     3    2
    3     1     4    1
    4     4     5    1
    5     4     6    1
    6     4     7    1
    7     7     8    1
    8     7     9    2
    9     9    10    1
   10     9    11    1
   11    11    12    1
   12    11    13    1
   13    11    14    1
   14    14    15    1
   15    14    16    1
   16    14    17    1
@<TRIPOS>SUBSTRUCTURE
       1 MOL1            1 RESIDUE      1      MOL     
@<SCITEGIC>MOL_PROPERTY
VConf Rank
SciTegic.value.IntegerValue
872

@<SCITEGIC>MOL_PROPERTY
Conf_Id
SciTegic.value.IntegerValue
35

@<SCITEGIC>MOL_PROPERTY
Delta U+W
SciTegic.value.DoubleValue
-0.102

@<SCITEGIC>MOL_PROPERTY
U+W
SciTegic.value.DoubleValue
-49.529

@<SCITEGIC>MOL_PROPERTY
Grad RMS
SciTegic.value.DoubleValue
0.000000

@<SCITEGIC>MOL_PROPERTY
U
SciTegic.value.DoubleValue
13.666

@<SCITEGIC>MOL_PROPERTY
W
SciTegic.value.DoubleValue
-63.195

@<SCITEGIC>MOL_PROPERTY
W(PB)
SciTegic.value.DoubleValue
-65.299

@<SCITEGIC>MOL_PROPERTY
W(SA)
SciTegic.value.DoubleValue
2.103

@<SCITEGIC>MOL_PROPERTY
Valence
SciTegic.value.DoubleValue
15.226

@<SCITEGIC>MOL_PROPERTY
Coulomb
SciTegic.value.DoubleValue
-1.822

@<SCITEGIC>MOL_PROPERTY
VdW
SciTegic.value.DoubleValue
0.261

@<SCITEGIC>MOL_PROPERTY
VdW6
SciTegic.value.DoubleValue
-4.165

@<SCITEGIC>MOL_PROPERTY
VdW12
SciTegic.value.DoubleValue
4.426

@<SCITEGIC>MOL_PROPERTY
Bond
SciTegic.value.DoubleValue
0.044

@<SCITEGIC>MOL_PROPERTY
Angle
SciTegic.value.DoubleValue
2.229

@<SCITEGIC>MOL_PROPERTY
Pdih
SciTegic.value.DoubleValue
12.953

@<SCITEGIC>MOL_PROPERTY
Idih
SciTegic.value.DoubleValue
0.000

@<SCITEGIC>MOL_PROPERTY
Tether
SciTegic.value.DoubleValue
0.000

@<TRIPOS>MOLECULE
guest-s20_confgen4.mol2 : confsearch ligand conformer 873
          17          16           1
SMALL
USER_CHARGES
 
@<TRIPOS>ATOM
       1    C1      18.510197   16.733147   22.622820 C.2        1 MOL1         0.6132
       2    O1      18.827216   16.171106   23.652665 O.co2      1 MOL1        -0.6749
       3    O2      17.358416   16.958029   22.307105 O.co2      1 MOL1        -0.6749
       4    C2      19.617791   17.170197   21.673127 C.3        1 MOL1        -0.1955
       5    H1      19.194271   17.246797   20.664490 H          1 MOL1         0.0733
       6    H2      20.369064   16.372494   21.645394 H          1 MOL1         0.0733
       7    C3      20.261869   18.477354   22.094918 C.2        1 MOL1        -0.1395
       8    H3      20.836497   18.423601   23.017958 H          1 MOL1         0.0816
       9    C4      20.145890   19.622343   21.410622 C.2        1 MOL1        -0.1394
      10    H4      19.558709   19.638655   20.492996 H          1 MOL1         0.0816
      11    C5      20.758640   20.963910   21.775758 C.3        1 MOL1        -0.1826
      12    H5      21.391245   21.305071   20.945140 H          1 MOL1         0.0736
      13    H6      19.957168   21.710053   21.861979 H          1 MOL1         0.0736
      14    C6      21.591231   20.968045   23.076836 C.3        1 MOL1        -0.2882
      15    H7      22.436398   20.270852   23.006006 H          1 MOL1         0.0749
      16    H8      21.997042   21.969392   23.270876 H          1 MOL1         0.0749
      17    H9      20.975222   20.682073   23.939531 H          1 MOL1         0.0749
@<TRIPOS>BOND
    1     1     2    1
    2     1     3    2
    3     1     4    1
    4     4     5    1
    5     4     6    1
    6     4     7    1
    7     7     8    1
    8     7     9    2
    9     9    10    1
   10     9    11    1
   11    11    12    1
   12    11    13    1
   13    11    14    1
   14    14    15    1
   15    14    16    1
   16    14    17    1
@<TRIPOS>SUBSTRUCTURE
       1 MOL1            1 RESIDUE      1      MOL     
@<SCITEGIC>MOL_PROPERTY
VConf Rank
SciTegic.value.IntegerValue
873

@<SCITEGIC>MOL_PROPERTY
Conf_Id
SciTegic.value.IntegerValue
19

@<SCITEGIC>MOL_PROPERTY
Delta U+W
SciTegic.value.DoubleValue
-0.496

@<SCITEGIC>MOL_PROPERTY
U+W
SciTegic.value.DoubleValue
-49.923

@<SCITEGIC>MOL_PROPERTY
Grad RMS
SciTegic.value.DoubleValue
0.000000

@<SCITEGIC>MOL_PROPERTY
U
SciTegic.value.DoubleValue
13.863

@<SCITEGIC>MOL_PROPERTY
W
SciTegic.value.DoubleValue
-63.786

@<SCITEGIC>MOL_PROPERTY
W(PB)
SciTegic.value.DoubleValue
-65.856

@<SCITEGIC>MOL_PROPERTY
W(SA)
SciTegic.value.DoubleValue
2.070

@<SCITEGIC>MOL_PROPERTY
Valence
SciTegic.value.DoubleValue
14.117

@<SCITEGIC>MOL_PROPERTY
Coulomb
SciTegic.value.DoubleValue
-1.228

@<SCITEGIC>MOL_PROPERTY
VdW
SciTegic.value.DoubleValue
0.974

@<SCITEGIC>MOL_PROPERTY
VdW6
SciTegic.value.DoubleValue
-4.885

@<SCITEGIC>MOL_PROPERTY
VdW12
SciTegic.value.DoubleValue
5.859

@<SCITEGIC>MOL_PROPERTY
Bond
SciTegic.value.DoubleValue
0.094

@<SCITEGIC>MOL_PROPERTY
Angle
SciTegic.value.DoubleValue
2.818

@<SCITEGIC>MOL_PROPERTY
Pdih
SciTegic.value.DoubleValue
11.205

@<SCITEGIC>MOL_PROPERTY
Idih
SciTegic.value.DoubleValue
0.000

@<SCITEGIC>MOL_PROPERTY
Tether
SciTegic.value.DoubleValue
0.000

@<TRIPOS>MOLECULE
guest-s20_confgen4.mol2 : confsearch ligand conformer 874
          17          16           1
SMALL
USER_CHARGES
 
@<TRIPOS>ATOM
       1    C1      22.887016   18.013894   21.952937 C.2        1 MOL1         0.6132
       2    O1      22.887235   17.096374   22.749788 O.co2      1 MOL1        -0.6749
       3    O2      23.327940   17.923605   20.824028 O.co2      1 MOL1        -0.6749
       4    C2      22.313217   19.353944   22.394353 C.3        1 MOL1        -0.1955
       5    H1      22.975604   20.141924   22.017770 H          1 MOL1         0.0733
       6    H2      22.350691   19.399343   23.489427 H          1 MOL1         0.0733
       7    C3      20.900299   19.575562   21.889067 C.2        1 MOL1        -0.1395
       8    H3      20.805938   19.697436   20.810430 H          1 MOL1         0.0816
       9    C4      19.819599   19.617325   22.674279 C.2        1 MOL1        -0.1394
      10    H4      19.913950   19.490250   23.752244 H          1 MOL1         0.0816
      11    C5      18.411230   19.835507   22.168087 C.3        1 MOL1        -0.1826
      12    H5      17.916134   20.609094   22.770552 H          1 MOL1         0.0736
      13    H6      18.427517   20.204061   21.133142 H          1 MOL1         0.0736
      14    C6      17.592052   18.531726   22.232063 C.3        1 MOL1        -0.2882
      15    H7      17.526357   18.160651   23.263283 H          1 MOL1         0.0749
      16    H8      16.571188   18.695614   21.863222 H          1 MOL1         0.0749
      17    H9      18.055608   17.749696   21.616250 H          1 MOL1         0.0749
@<TRIPOS>BOND
    1     1     2    1
    2     1     3    2
    3     1     4    1
    4     4     5    1
    5     4     6    1
    6     4     7    1
    7     7     8    1
    8     7     9    2
    9     9    10    1
   10     9    11    1
   11    11    12    1
   12    11    13    1
   13    11    14    1
   14    14    15    1
   15    14    16    1
   16    14    17    1
@<TRIPOS>SUBSTRUCTURE
       1 MOL1            1 RESIDUE      1      MOL     
@<SCITEGIC>MOL_PROPERTY
VConf Rank
SciTegic.value.IntegerValue
874

@<SCITEGIC>MOL_PROPERTY
Conf_Id
SciTegic.value.IntegerValue
7

@<SCITEGIC>MOL_PROPERTY
Delta U+W
SciTegic.value.DoubleValue
-0.041

@<SCITEGIC>MOL_PROPERTY
U+W
SciTegic.value.DoubleValue
-49.468

@<SCITEGIC>MOL_PROPERTY
Grad RMS
SciTegic.value.DoubleValue
0.000000

@<SCITEGIC>MOL_PROPERTY
U
SciTegic.value.DoubleValue
14.121

@<SCITEGIC>MOL_PROPERTY
W
SciTegic.value.DoubleValue
-63.589

@<SCITEGIC>MOL_PROPERTY
W(PB)
SciTegic.value.DoubleValue
-65.660

@<SCITEGIC>MOL_PROPERTY
W(SA)
SciTegic.value.DoubleValue
2.071

@<SCITEGIC>MOL_PROPERTY
Valence
SciTegic.value.DoubleValue
15.230

@<SCITEGIC>MOL_PROPERTY
Coulomb
SciTegic.value.DoubleValue
-1.333

@<SCITEGIC>MOL_PROPERTY
VdW
SciTegic.value.DoubleValue
0.224

@<SCITEGIC>MOL_PROPERTY
VdW6
SciTegic.value.DoubleValue
-4.212

@<SCITEGIC>MOL_PROPERTY
VdW12
SciTegic.value.DoubleValue
4.436

@<SCITEGIC>MOL_PROPERTY
Bond
SciTegic.value.DoubleValue
0.044

@<SCITEGIC>MOL_PROPERTY
Angle
SciTegic.value.DoubleValue
2.230

@<SCITEGIC>MOL_PROPERTY
Pdih
SciTegic.value.DoubleValue
12.956

@<SCITEGIC>MOL_PROPERTY
Idih
SciTegic.value.DoubleValue
0.000

@<SCITEGIC>MOL_PROPERTY
Tether
SciTegic.value.DoubleValue
0.000

@<TRIPOS>MOLECULE
guest-s20_confgen4.mol2 : confsearch ligand conformer 875
          17          16           1
SMALL
USER_CHARGES
 
@<TRIPOS>ATOM
       1    C1      17.634322   18.686954   21.238579 C.2        1 MOL1         0.6132
       2    O1      17.208100   19.803519   21.018105 O.co2      1 MOL1        -0.6749
       3    O2      17.043920   17.863450   21.909659 O.co2      1 MOL1        -0.6749
       4    C2      18.969056   18.287936   20.616609 C.3        1 MOL1        -0.1955
       5    H1      19.065189   18.814707   19.660032 H          1 MOL1         0.0733
       6    H2      18.918682   17.221117   20.369465 H          1 MOL1         0.0733
       7    C3      20.198992   18.555950   21.472355 C.2        1 MOL1        -0.1395
       8    H3      21.140814   18.263660   21.009663 H          1 MOL1         0.0816
       9    C4      20.203432   19.101630   22.694324 C.2        1 MOL1        -0.1394
      10    H4      19.275829   19.403569   23.179214 H          1 MOL1         0.0816
      11    C5      21.456699   19.345836   23.505266 C.3        1 MOL1        -0.1826
      12    H5      21.315154   18.970747   24.527906 H          1 MOL1         0.0736
      13    H6      22.304512   18.790808   23.080635 H          1 MOL1         0.0736
      14    C6      21.802099   20.847020   23.551979 C.3        1 MOL1        -0.2882
      15    H7      22.711324   21.018478   24.142717 H          1 MOL1         0.0749
      16    H8      21.973484   21.239155   22.540816 H          1 MOL1         0.0749
      17    H9      20.985800   21.422537   24.007932 H          1 MOL1         0.0749
@<TRIPOS>BOND
    1     1     2    1
    2     1     3    2
    3     1     4    1
    4     4     5    1
    5     4     6    1
    6     4     7    1
    7     7     8    1
    8     7     9    2
    9     9    10    1
   10     9    11    1
   11    11    12    1
   12    11    13    1
   13    11    14    1
   14    14    15    1
   15    14    16    1
   16    14    17    1
@<TRIPOS>SUBSTRUCTURE
       1 MOL1            1 RESIDUE      1      MOL     
@<SCITEGIC>MOL_PROPERTY
VConf Rank
SciTegic.value.IntegerValue
875

@<SCITEGIC>MOL_PROPERTY
Conf_Id
SciTegic.value.IntegerValue
39

@<SCITEGIC>MOL_PROPERTY
Delta U+W
SciTegic.value.DoubleValue
-0.422

@<SCITEGIC>MOL_PROPERTY
U+W
SciTegic.value.DoubleValue
-49.849

@<SCITEGIC>MOL_PROPERTY
Grad RMS
SciTegic.value.DoubleValue
0.000000

@<SCITEGIC>MOL_PROPERTY
U
SciTegic.value.DoubleValue
14.465

@<SCITEGIC>MOL_PROPERTY
W
SciTegic.value.DoubleValue
-64.314

@<SCITEGIC>MOL_PROPERTY
W(PB)
SciTegic.value.DoubleValue
-66.406

@<SCITEGIC>MOL_PROPERTY
W(SA)
SciTegic.value.DoubleValue
2.093

@<SCITEGIC>MOL_PROPERTY
Valence
SciTegic.value.DoubleValue
14.072

@<SCITEGIC>MOL_PROPERTY
Coulomb
SciTegic.value.DoubleValue
-0.199

@<SCITEGIC>MOL_PROPERTY
VdW
SciTegic.value.DoubleValue
0.592

@<SCITEGIC>MOL_PROPERTY
VdW6
SciTegic.value.DoubleValue
-5.019

@<SCITEGIC>MOL_PROPERTY
VdW12
SciTegic.value.DoubleValue
5.611

@<SCITEGIC>MOL_PROPERTY
Bond
SciTegic.value.DoubleValue
0.085

@<SCITEGIC>MOL_PROPERTY
Angle
SciTegic.value.DoubleValue
2.748

@<SCITEGIC>MOL_PROPERTY
Pdih
SciTegic.value.DoubleValue
11.238

@<SCITEGIC>MOL_PROPERTY
Idih
SciTegic.value.DoubleValue
0.001

@<SCITEGIC>MOL_PROPERTY
Tether
SciTegic.value.DoubleValue
0.000

@<TRIPOS>MOLECULE
guest-s20_confgen4.mol2 : confsearch ligand conformer 876
          17          16           1
SMALL
USER_CHARGES
 
@<TRIPOS>ATOM
       1    C1      18.089530   18.573255   19.771382 C.2        1 MOL1         0.6132
       2    O1      17.066208   19.227147   19.724497 O.co2      1 MOL1        -0.6749
       3    O2      18.134363   17.378806   19.552061 O.co2      1 MOL1        -0.6749
       4    C2      19.386063   19.292911   20.118805 C.3        1 MOL1        -0.1955
       5    H1      19.385654   20.255571   19.594597 H          1 MOL1         0.0733
       6    H2      20.221656   18.708368   19.715403 H          1 MOL1         0.0733
       7    C3      19.546604   19.512559   21.611027 C.2        1 MOL1        -0.1395
       8    H3      18.843341   20.215927   22.055882 H          1 MOL1         0.0816
       9    C4      20.468758   18.905928   22.364591 C.2        1 MOL1        -0.1394
      10    H4      21.169753   18.200455   21.919648 H          1 MOL1         0.0816
      11    C5      20.624924   19.123329   23.853104 C.3        1 MOL1        -0.1826
      12    H5      19.740873   19.631597   24.262174 H          1 MOL1         0.0736
      13    H6      20.695465   18.153502   24.363980 H          1 MOL1         0.0736
      14    C6      21.882271   19.959286   24.161833 C.3        1 MOL1        -0.2882
      15    H7      21.822675   20.944965   23.681742 H          1 MOL1         0.0749
      16    H8      21.990595   20.113148   25.243350 H          1 MOL1         0.0749
      17    H9      22.786980   19.455356   23.797164 H          1 MOL1         0.0749
@<TRIPOS>BOND
    1     1     2    1
    2     1     3    2
    3     1     4    1
    4     4     5    1
    5     4     6    1
    6     4     7    1
    7     7     8    1
    8     7     9    2
    9     9    10    1
   10     9    11    1
   11    11    12    1
   12    11    13    1
   13    11    14    1
   14    14    15    1
   15    14    16    1
   16    14    17    1
@<TRIPOS>SUBSTRUCTURE
       1 MOL1            1 RESIDUE      1      MOL     
@<SCITEGIC>MOL_PROPERTY
VConf Rank
SciTegic.value.IntegerValue
876

@<SCITEGIC>MOL_PROPERTY
Conf_Id
SciTegic.value.IntegerValue
38

@<SCITEGIC>MOL_PROPERTY
Delta U+W
SciTegic.value.DoubleValue
0.000

@<SCITEGIC>MOL_PROPERTY
U+W
SciTegic.value.DoubleValue
-49.427

@<SCITEGIC>MOL_PROPERTY
Grad RMS
SciTegic.value.DoubleValue
0.000000

@<SCITEGIC>MOL_PROPERTY
U
SciTegic.value.DoubleValue
13.666

@<SCITEGIC>MOL_PROPERTY
W
SciTegic.value.DoubleValue
-63.093

@<SCITEGIC>MOL_PROPERTY
W(PB)
SciTegic.value.DoubleValue
-65.225

@<SCITEGIC>MOL_PROPERTY
W(SA)
SciTegic.value.DoubleValue
2.132

@<SCITEGIC>MOL_PROPERTY
Valence
SciTegic.value.DoubleValue
15.226

@<SCITEGIC>MOL_PROPERTY
Coulomb
SciTegic.value.DoubleValue
-1.822

@<SCITEGIC>MOL_PROPERTY
VdW
SciTegic.value.DoubleValue
0.261

@<SCITEGIC>MOL_PROPERTY
VdW6
SciTegic.value.DoubleValue
-4.165

@<SCITEGIC>MOL_PROPERTY
VdW12
SciTegic.value.DoubleValue
4.426

@<SCITEGIC>MOL_PROPERTY
Bond
SciTegic.value.DoubleValue
0.044

@<SCITEGIC>MOL_PROPERTY
Angle
SciTegic.value.DoubleValue
2.229

@<SCITEGIC>MOL_PROPERTY
Pdih
SciTegic.value.DoubleValue
12.953

@<SCITEGIC>MOL_PROPERTY
Idih
SciTegic.value.DoubleValue
0.000

@<SCITEGIC>MOL_PROPERTY
Tether
SciTegic.value.DoubleValue
0.000

@<TRIPOS>MOLECULE
guest-s20_confgen4.mol2 : confsearch ligand conformer 877
          17          16           1
SMALL
USER_CHARGES
 
@<TRIPOS>ATOM
       1    C1      20.043457   22.174234   20.853265 C.2        1 MOL1         0.6132
       2    O1      20.566287   22.142492   19.756697 O.co2      1 MOL1        -0.6749
       3    O2      20.165804   23.101316   21.629480 O.co2      1 MOL1        -0.6749
       4    C2      19.183226   20.991256   21.277728 C.3        1 MOL1        -0.1955
       5    H1      18.831601   20.480645   20.373142 H          1 MOL1         0.0733
       6    H2      18.297190   21.387183   21.787324 H          1 MOL1         0.0733
       7    C3      19.923811   20.032297   22.190240 C.2        1 MOL1        -0.1395
       8    H3      20.165235   20.423255   23.178201 H          1 MOL1         0.0816
       9    C4      20.276729   18.789868   21.846658 C.2        1 MOL1        -0.1394
      10    H4      20.037803   18.400674   20.857464 H          1 MOL1         0.0816
      11    C5      21.018663   17.836426   22.756495 C.3        1 MOL1        -0.1826
      12    H5      21.864585   17.390754   22.215825 H          1 MOL1         0.0736
      13    H6      21.442103   18.375554   23.615133 H          1 MOL1         0.0736
      14    C6      20.087589   16.718544   23.264926 C.3        1 MOL1        -0.2882
      15    H7      19.679237   16.137742   22.427462 H          1 MOL1         0.0749
      16    H8      20.631669   16.029541   23.923969 H          1 MOL1         0.0749
      17    H9      19.246537   17.139323   23.831649 H          1 MOL1         0.0749
@<TRIPOS>BOND
    1     1     2    1
    2     1     3    2
    3     1     4    1
    4     4     5    1
    5     4     6    1
    6     4     7    1
    7     7     8    1
    8     7     9    2
    9     9    10    1
   10     9    11    1
   11    11    12    1
   12    11    13    1
   13    11    14    1
   14    14    15    1
   15    14    16    1
   16    14    17    1
@<TRIPOS>SUBSTRUCTURE
       1 MOL1            1 RESIDUE      1      MOL     
@<SCITEGIC>MOL_PROPERTY
VConf Rank
SciTegic.value.IntegerValue
877

@<SCITEGIC>MOL_PROPERTY
Conf_Id
SciTegic.value.IntegerValue
35

@<SCITEGIC>MOL_PROPERTY
Delta U+W
SciTegic.value.DoubleValue
-0.102

@<SCITEGIC>MOL_PROPERTY
U+W
SciTegic.value.DoubleValue
-49.529

@<SCITEGIC>MOL_PROPERTY
Grad RMS
SciTegic.value.DoubleValue
0.000000

@<SCITEGIC>MOL_PROPERTY
U
SciTegic.value.DoubleValue
13.666

@<SCITEGIC>MOL_PROPERTY
W
SciTegic.value.DoubleValue
-63.195

@<SCITEGIC>MOL_PROPERTY
W(PB)
SciTegic.value.DoubleValue
-65.299

@<SCITEGIC>MOL_PROPERTY
W(SA)
SciTegic.value.DoubleValue
2.103

@<SCITEGIC>MOL_PROPERTY
Valence
SciTegic.value.DoubleValue
15.226

@<SCITEGIC>MOL_PROPERTY
Coulomb
SciTegic.value.DoubleValue
-1.822

@<SCITEGIC>MOL_PROPERTY
VdW
SciTegic.value.DoubleValue
0.261

@<SCITEGIC>MOL_PROPERTY
VdW6
SciTegic.value.DoubleValue
-4.165

@<SCITEGIC>MOL_PROPERTY
VdW12
SciTegic.value.DoubleValue
4.426

@<SCITEGIC>MOL_PROPERTY
Bond
SciTegic.value.DoubleValue
0.044

@<SCITEGIC>MOL_PROPERTY
Angle
SciTegic.value.DoubleValue
2.229

@<SCITEGIC>MOL_PROPERTY
Pdih
SciTegic.value.DoubleValue
12.953

@<SCITEGIC>MOL_PROPERTY
Idih
SciTegic.value.DoubleValue
0.000

@<SCITEGIC>MOL_PROPERTY
Tether
SciTegic.value.DoubleValue
0.000

@<TRIPOS>MOLECULE
guest-s20_confgen4.mol2 : confsearch ligand conformer 878
          17          16           1
SMALL
USER_CHARGES
 
@<TRIPOS>ATOM
       1    C1      22.236693   20.105284   24.110651 C.2        1 MOL1         0.6132
       2    O1      22.177860   21.317608   24.172133 O.co2      1 MOL1        -0.6749
       3    O2      22.321117   19.386243   25.086715 O.co2      1 MOL1        -0.6749
       4    C2      22.212694   19.454204   22.733984 C.3        1 MOL1        -0.1955
       5    H1      22.690921   18.470401   22.811542 H          1 MOL1         0.0733
       6    H2      22.834717   20.060992   22.065847 H          1 MOL1         0.0733
       7    C3      20.808410   19.335251   22.172521 C.2        1 MOL1        -0.1395
       8    H3      20.336855   20.284288   21.923413 H          1 MOL1         0.0816
       9    C4      20.172155   18.171085   21.991943 C.2        1 MOL1        -0.1394
      10    H4      20.674647   17.241411   22.257074 H          1 MOL1         0.0816
      11    C5      18.769569   17.979458   21.440017 C.3        1 MOL1        -0.1826
      12    H5      18.819623   17.328345   20.556812 H          1 MOL1         0.0736
      13    H6      18.168367   17.430626   22.177486 H          1 MOL1         0.0736
      14    C6      18.033586   19.283940   21.062284 C.3        1 MOL1        -0.2882
      15    H7      18.580327   19.833948   20.285131 H          1 MOL1         0.0749
      16    H8      17.031023   19.061681   20.674343 H          1 MOL1         0.0749
      17    H9      17.918301   19.938355   21.936321 H          1 MOL1         0.0749
@<TRIPOS>BOND
    1     1     2    1
    2     1     3    2
    3     1     4    1
    4     4     5    1
    5     4     6    1
    6     4     7    1
    7     7     8    1
    8     7     9    2
    9     9    10    1
   10     9    11    1
   11    11    12    1
   12    11    13    1
   13    11    14    1
   14    14    15    1
   15    14    16    1
   16    14    17    1
@<TRIPOS>SUBSTRUCTURE
       1 MOL1            1 RESIDUE      1      MOL     
@<SCITEGIC>MOL_PROPERTY
VConf Rank
SciTegic.value.IntegerValue
878

@<SCITEGIC>MOL_PROPERTY
Conf_Id
SciTegic.value.IntegerValue
19

@<SCITEGIC>MOL_PROPERTY
Delta U+W
SciTegic.value.DoubleValue
-0.496

@<SCITEGIC>MOL_PROPERTY
U+W
SciTegic.value.DoubleValue
-49.923

@<SCITEGIC>MOL_PROPERTY
Grad RMS
SciTegic.value.DoubleValue
0.000000

@<SCITEGIC>MOL_PROPERTY
U
SciTegic.value.DoubleValue
13.863

@<SCITEGIC>MOL_PROPERTY
W
SciTegic.value.DoubleValue
-63.786

@<SCITEGIC>MOL_PROPERTY
W(PB)
SciTegic.value.DoubleValue
-65.856

@<SCITEGIC>MOL_PROPERTY
W(SA)
SciTegic.value.DoubleValue
2.070

@<SCITEGIC>MOL_PROPERTY
Valence
SciTegic.value.DoubleValue
14.117

@<SCITEGIC>MOL_PROPERTY
Coulomb
SciTegic.value.DoubleValue
-1.228

@<SCITEGIC>MOL_PROPERTY
VdW
SciTegic.value.DoubleValue
0.974

@<SCITEGIC>MOL_PROPERTY
VdW6
SciTegic.value.DoubleValue
-4.885

@<SCITEGIC>MOL_PROPERTY
VdW12
SciTegic.value.DoubleValue
5.859

@<SCITEGIC>MOL_PROPERTY
Bond
SciTegic.value.DoubleValue
0.094

@<SCITEGIC>MOL_PROPERTY
Angle
SciTegic.value.DoubleValue
2.818

@<SCITEGIC>MOL_PROPERTY
Pdih
SciTegic.value.DoubleValue
11.205

@<SCITEGIC>MOL_PROPERTY
Idih
SciTegic.value.DoubleValue
0.000

@<SCITEGIC>MOL_PROPERTY
Tether
SciTegic.value.DoubleValue
0.000

@<TRIPOS>MOLECULE
guest-s20_confgen4.mol2 : confsearch ligand conformer 879
          17          16           1
SMALL
USER_CHARGES
 
@<TRIPOS>ATOM
       1    C1      22.022633   17.205726   20.913004 C.2        1 MOL1         0.6132
       2    O1      23.070912   17.457729   21.473735 O.co2      1 MOL1        -0.6749
       3    O2      21.616983   16.076021   20.722698 O.co2      1 MOL1        -0.6749
       4    C2      21.174512   18.366987   20.411018 C.3        1 MOL1        -0.1955
       5    H1      20.793970   18.098933   19.418637 H          1 MOL1         0.0733
       6    H2      21.828143   19.237715   20.279671 H          1 MOL1         0.0733
       7    C3      20.020903   18.688657   21.341867 C.2        1 MOL1        -0.1395
       8    H3      19.245421   17.925637   21.402233 H          1 MOL1         0.0816
       9    C4      19.926472   19.811215   22.061006 C.2        1 MOL1        -0.1394
      10    H4      20.704750   20.571553   22.004173 H          1 MOL1         0.0816
      11    C5      18.776724   20.128713   22.990850 C.3        1 MOL1        -0.1826
      12    H5      18.415058   21.147992   22.799047 H          1 MOL1         0.0736
      13    H6      17.931231   19.453123   22.801301 H          1 MOL1         0.0736
      14    C6      19.207281   20.005165   24.465417 C.3        1 MOL1        -0.2882
      15    H7      20.027207   20.698811   24.693458 H          1 MOL1         0.0749
      16    H8      18.369175   20.236154   25.135707 H          1 MOL1         0.0749
      17    H9      19.550202   18.985879   24.687100 H          1 MOL1         0.0749
@<TRIPOS>BOND
    1     1     2    1
    2     1     3    2
    3     1     4    1
    4     4     5    1
    5     4     6    1
    6     4     7    1
    7     7     8    1
    8     7     9    2
    9     9    10    1
   10     9    11    1
   11    11    12    1
   12    11    13    1
   13    11    14    1
   14    14    15    1
   15    14    16    1
   16    14    17    1
@<TRIPOS>SUBSTRUCTURE
       1 MOL1            1 RESIDUE      1      MOL     
@<SCITEGIC>MOL_PROPERTY
VConf Rank
SciTegic.value.IntegerValue
879

@<SCITEGIC>MOL_PROPERTY
Conf_Id
SciTegic.value.IntegerValue
7

@<SCITEGIC>MOL_PROPERTY
Delta U+W
SciTegic.value.DoubleValue
-0.041

@<SCITEGIC>MOL_PROPERTY
U+W
SciTegic.value.DoubleValue
-49.468

@<SCITEGIC>MOL_PROPERTY
Grad RMS
SciTegic.value.DoubleValue
0.000000

@<SCITEGIC>MOL_PROPERTY
U
SciTegic.value.DoubleValue
14.121

@<SCITEGIC>MOL_PROPERTY
W
SciTegic.value.DoubleValue
-63.589

@<SCITEGIC>MOL_PROPERTY
W(PB)
SciTegic.value.DoubleValue
-65.660

@<SCITEGIC>MOL_PROPERTY
W(SA)
SciTegic.value.DoubleValue
2.071

@<SCITEGIC>MOL_PROPERTY
Valence
SciTegic.value.DoubleValue
15.230

@<SCITEGIC>MOL_PROPERTY
Coulomb
SciTegic.value.DoubleValue
-1.333

@<SCITEGIC>MOL_PROPERTY
VdW
SciTegic.value.DoubleValue
0.224

@<SCITEGIC>MOL_PROPERTY
VdW6
SciTegic.value.DoubleValue
-4.212

@<SCITEGIC>MOL_PROPERTY
VdW12
SciTegic.value.DoubleValue
4.436

@<SCITEGIC>MOL_PROPERTY
Bond
SciTegic.value.DoubleValue
0.044

@<SCITEGIC>MOL_PROPERTY
Angle
SciTegic.value.DoubleValue
2.230

@<SCITEGIC>MOL_PROPERTY
Pdih
SciTegic.value.DoubleValue
12.956

@<SCITEGIC>MOL_PROPERTY
Idih
SciTegic.value.DoubleValue
0.000

@<SCITEGIC>MOL_PROPERTY
Tether
SciTegic.value.DoubleValue
0.000

@<TRIPOS>MOLECULE
guest-s20_confgen4.mol2 : confsearch ligand conformer 880
          17          16           1
SMALL
USER_CHARGES
 
@<TRIPOS>ATOM
       1    C1      22.210325   20.916999   23.037512 C.2        1 MOL1         0.6132
       2    O1      22.446632   21.494184   21.994436 O.co2      1 MOL1        -0.6749
       3    O2      23.051914   20.320653   23.680304 O.co2      1 MOL1        -0.6749
       4    C2      20.786727   20.967131   23.583804 C.3        1 MOL1        -0.1955
       5    H1      20.346721   21.926745   23.288330 H          1 MOL1         0.0733
       6    H2      20.847630   20.987711   24.678147 H          1 MOL1         0.0733
       7    C3      19.874089   19.830795   23.144816 C.2        1 MOL1        -0.1395
       8    H3      18.862922   19.885849   23.546134 H          1 MOL1         0.0816
       9    C4      20.211102   18.818469   22.336972 C.2        1 MOL1        -0.1394
      10    H4      21.215064   18.740320   21.921415 H          1 MOL1         0.0816
      11    C5      19.264251   17.710728   21.931605 C.3        1 MOL1        -0.1826
      12    H5      19.755066   16.737003   22.063821 H          1 MOL1         0.0736
      13    H6      18.376566   17.706593   22.579024 H          1 MOL1         0.0736
      14    C6      18.823692   17.868706   20.463277 C.3        1 MOL1        -0.2882
      15    H7      18.138024   17.061639   20.174204 H          1 MOL1         0.0749
      16    H8      18.306877   18.825620   20.312240 H          1 MOL1         0.0749
      17    H9      19.689805   17.837928   19.789215 H          1 MOL1         0.0749
@<TRIPOS>BOND
    1     1     2    1
    2     1     3    2
    3     1     4    1
    4     4     5    1
    5     4     6    1
    6     4     7    1
    7     7     8    1
    8     7     9    2
    9     9    10    1
   10     9    11    1
   11    11    12    1
   12    11    13    1
   13    11    14    1
   14    14    15    1
   15    14    16    1
   16    14    17    1
@<TRIPOS>SUBSTRUCTURE
       1 MOL1            1 RESIDUE      1      MOL     
@<SCITEGIC>MOL_PROPERTY
VConf Rank
SciTegic.value.IntegerValue
880

@<SCITEGIC>MOL_PROPERTY
Conf_Id
SciTegic.value.IntegerValue
39

@<SCITEGIC>MOL_PROPERTY
Delta U+W
SciTegic.value.DoubleValue
-0.422

@<SCITEGIC>MOL_PROPERTY
U+W
SciTegic.value.DoubleValue
-49.849

@<SCITEGIC>MOL_PROPERTY
Grad RMS
SciTegic.value.DoubleValue
0.000000

@<SCITEGIC>MOL_PROPERTY
U
SciTegic.value.DoubleValue
14.465

@<SCITEGIC>MOL_PROPERTY
W
SciTegic.value.DoubleValue
-64.314

@<SCITEGIC>MOL_PROPERTY
W(PB)
SciTegic.value.DoubleValue
-66.406

@<SCITEGIC>MOL_PROPERTY
W(SA)
SciTegic.value.DoubleValue
2.093

@<SCITEGIC>MOL_PROPERTY
Valence
SciTegic.value.DoubleValue
14.072

@<SCITEGIC>MOL_PROPERTY
Coulomb
SciTegic.value.DoubleValue
-0.199

@<SCITEGIC>MOL_PROPERTY
VdW
SciTegic.value.DoubleValue
0.592

@<SCITEGIC>MOL_PROPERTY
VdW6
SciTegic.value.DoubleValue
-5.019

@<SCITEGIC>MOL_PROPERTY
VdW12
SciTegic.value.DoubleValue
5.611

@<SCITEGIC>MOL_PROPERTY
Bond
SciTegic.value.DoubleValue
0.085

@<SCITEGIC>MOL_PROPERTY
Angle
SciTegic.value.DoubleValue
2.748

@<SCITEGIC>MOL_PROPERTY
Pdih
SciTegic.value.DoubleValue
11.238

@<SCITEGIC>MOL_PROPERTY
Idih
SciTegic.value.DoubleValue
0.001

@<SCITEGIC>MOL_PROPERTY
Tether
SciTegic.value.DoubleValue
0.000

@<TRIPOS>MOLECULE
guest-s20_confgen4.mol2 : confsearch ligand conformer 881
          17          16           1
SMALL
USER_CHARGES
 
@<TRIPOS>ATOM
       1    C1      21.690511   17.331160   24.040049 C.2        1 MOL1         0.6132
       2    O1      21.600248   16.141703   23.807660 O.co2      1 MOL1        -0.6749
       3    O2      21.688080   17.798760   25.161727 O.co2      1 MOL1        -0.6749
       4    C2      21.819014   18.285462   22.860049 C.3        1 MOL1        -0.1955
       5    H1      22.495911   17.826454   22.130234 H          1 MOL1         0.0733
       6    H2      22.302956   19.204135   23.212868 H          1 MOL1         0.0733
       7    C3      20.482309   18.589899   22.210985 C.2        1 MOL1        -0.1395
       8    H3      20.014224   17.752027   21.695166 H          1 MOL1         0.0816
       9    C4      19.884601   19.784750   22.247086 C.2        1 MOL1        -0.1394
      10    H4      20.351811   20.621365   22.765594 H          1 MOL1         0.0816
      11    C5      18.549906   20.085480   21.602514 C.3        1 MOL1        -0.1826
      12    H5      18.034261   19.153320   21.333428 H          1 MOL1         0.0736
      13    H6      17.901913   20.608717   22.318659 H          1 MOL1         0.0736
      14    C6      18.726974   20.952847   20.341014 C.3        1 MOL1        -0.2882
      15    H7      19.351408   20.438431   19.598680 H          1 MOL1         0.0749
      16    H8      17.755169   21.168273   19.878119 H          1 MOL1         0.0749
      17    H9      19.206417   21.909327   20.587409 H          1 MOL1         0.0749
@<TRIPOS>BOND
    1     1     2    1
    2     1     3    2
    3     1     4    1
    4     4     5    1
    5     4     6    1
    6     4     7    1
    7     7     8    1
    8     7     9    2
    9     9    10    1
   10     9    11    1
   11    11    12    1
   12    11    13    1
   13    11    14    1
   14    14    15    1
   15    14    16    1
   16    14    17    1
@<TRIPOS>SUBSTRUCTURE
       1 MOL1            1 RESIDUE      1      MOL     
@<SCITEGIC>MOL_PROPERTY
VConf Rank
SciTegic.value.IntegerValue
881

@<SCITEGIC>MOL_PROPERTY
Conf_Id
SciTegic.value.IntegerValue
38

@<SCITEGIC>MOL_PROPERTY
Delta U+W
SciTegic.value.DoubleValue
0.000

@<SCITEGIC>MOL_PROPERTY
U+W
SciTegic.value.DoubleValue
-49.427

@<SCITEGIC>MOL_PROPERTY
Grad RMS
SciTegic.value.DoubleValue
0.000000

@<SCITEGIC>MOL_PROPERTY
U
SciTegic.value.DoubleValue
13.666

@<SCITEGIC>MOL_PROPERTY
W
SciTegic.value.DoubleValue
-63.093

@<SCITEGIC>MOL_PROPERTY
W(PB)
SciTegic.value.DoubleValue
-65.225

@<SCITEGIC>MOL_PROPERTY
W(SA)
SciTegic.value.DoubleValue
2.132

@<SCITEGIC>MOL_PROPERTY
Valence
SciTegic.value.DoubleValue
15.226

@<SCITEGIC>MOL_PROPERTY
Coulomb
SciTegic.value.DoubleValue
-1.822

@<SCITEGIC>MOL_PROPERTY
VdW
SciTegic.value.DoubleValue
0.261

@<SCITEGIC>MOL_PROPERTY
VdW6
SciTegic.value.DoubleValue
-4.165

@<SCITEGIC>MOL_PROPERTY
VdW12
SciTegic.value.DoubleValue
4.426

@<SCITEGIC>MOL_PROPERTY
Bond
SciTegic.value.DoubleValue
0.044

@<SCITEGIC>MOL_PROPERTY
Angle
SciTegic.value.DoubleValue
2.229

@<SCITEGIC>MOL_PROPERTY
Pdih
SciTegic.value.DoubleValue
12.953

@<SCITEGIC>MOL_PROPERTY
Idih
SciTegic.value.DoubleValue
0.000

@<SCITEGIC>MOL_PROPERTY
Tether
SciTegic.value.DoubleValue
0.000

@<TRIPOS>MOLECULE
guest-s20_confgen4.mol2 : confsearch ligand conformer 882
          17          16           1
SMALL
USER_CHARGES
 
@<TRIPOS>ATOM
       1    C1      19.310775   21.155026   19.685590 C.2        1 MOL1         0.6132
       2    O1      19.686706   22.285221   19.926738 O.co2      1 MOL1        -0.6749
       3    O2      18.270497   20.901117   19.110863 O.co2      1 MOL1        -0.6749
       4    C2      20.192392   19.992183   20.121655 C.3        1 MOL1        -0.1955
       5    H1      21.221507   20.358847   20.217155 H          1 MOL1         0.0733
       6    H2      20.190178   19.249498   19.315478 H          1 MOL1         0.0733
       7    C3      19.719042   19.357723   21.415542 C.2        1 MOL1        -0.1395
       8    H3      18.768155   18.829331   21.353761 H          1 MOL1         0.0816
       9    C4      20.387353   19.420348   22.571252 C.2        1 MOL1        -0.1394
      10    H4      21.336576   19.951586   22.633075 H          1 MOL1         0.0816
      11    C5      19.911873   18.790458   23.861400 C.3        1 MOL1        -0.1826
      12    H5      19.983159   19.520769   24.678771 H          1 MOL1         0.0736
      13    H6      18.853232   18.506882   23.783404 H          1 MOL1         0.0736
      14    C6      20.749139   17.544742   24.211027 C.3        1 MOL1        -0.2882
      15    H7      21.808448   17.806331   24.332940 H          1 MOL1         0.0749
      16    H8      20.399948   17.092499   25.148378 H          1 MOL1         0.0749
      17    H9      20.672545   16.788541   23.418629 H          1 MOL1         0.0749
@<TRIPOS>BOND
    1     1     2    1
    2     1     3    2
    3     1     4    1
    4     4     5    1
    5     4     6    1
    6     4     7    1
    7     7     8    1
    8     7     9    2
    9     9    10    1
   10     9    11    1
   11    11    12    1
   12    11    13    1
   13    11    14    1
   14    14    15    1
   15    14    16    1
   16    14    17    1
@<TRIPOS>SUBSTRUCTURE
       1 MOL1            1 RESIDUE      1      MOL     
@<SCITEGIC>MOL_PROPERTY
VConf Rank
SciTegic.value.IntegerValue
882

@<SCITEGIC>MOL_PROPERTY
Conf_Id
SciTegic.value.IntegerValue
35

@<SCITEGIC>MOL_PROPERTY
Delta U+W
SciTegic.value.DoubleValue
-0.102

@<SCITEGIC>MOL_PROPERTY
U+W
SciTegic.value.DoubleValue
-49.529

@<SCITEGIC>MOL_PROPERTY
Grad RMS
SciTegic.value.DoubleValue
0.000000

@<SCITEGIC>MOL_PROPERTY
U
SciTegic.value.DoubleValue
13.666

@<SCITEGIC>MOL_PROPERTY
W
SciTegic.value.DoubleValue
-63.195

@<SCITEGIC>MOL_PROPERTY
W(PB)
SciTegic.value.DoubleValue
-65.299

@<SCITEGIC>MOL_PROPERTY
W(SA)
SciTegic.value.DoubleValue
2.103

@<SCITEGIC>MOL_PROPERTY
Valence
SciTegic.value.DoubleValue
15.226

@<SCITEGIC>MOL_PROPERTY
Coulomb
SciTegic.value.DoubleValue
-1.822

@<SCITEGIC>MOL_PROPERTY
VdW
SciTegic.value.DoubleValue
0.261

@<SCITEGIC>MOL_PROPERTY
VdW6
SciTegic.value.DoubleValue
-4.165

@<SCITEGIC>MOL_PROPERTY
VdW12
SciTegic.value.DoubleValue
4.426

@<SCITEGIC>MOL_PROPERTY
Bond
SciTegic.value.DoubleValue
0.044

@<SCITEGIC>MOL_PROPERTY
Angle
SciTegic.value.DoubleValue
2.229

@<SCITEGIC>MOL_PROPERTY
Pdih
SciTegic.value.DoubleValue
12.953

@<SCITEGIC>MOL_PROPERTY
Idih
SciTegic.value.DoubleValue
0.000

@<SCITEGIC>MOL_PROPERTY
Tether
SciTegic.value.DoubleValue
0.000

@<TRIPOS>MOLECULE
guest-s20_confgen4.mol2 : confsearch ligand conformer 883
          17          16           1
SMALL
USER_CHARGES
 
@<TRIPOS>ATOM
       1    C1      17.353304   19.252421   22.873313 C.2        1 MOL1         0.6132
       2    O1      17.186446   20.017625   23.802610 O.co2      1 MOL1        -0.6749
       3    O2      16.663716   19.250037   21.872658 O.co2      1 MOL1        -0.6749
       4    C2      18.482737   18.235635   22.974416 C.3        1 MOL1        -0.1955
       5    H1      18.242352   17.389800   22.319158 H          1 MOL1         0.0733
       6    H2      18.496606   17.851731   24.001030 H          1 MOL1         0.0733
       7    C3      19.833062   18.831126   22.623107 C.2        1 MOL1        -0.1395
       8    H3      20.201798   19.570488   23.331956 H          1 MOL1         0.0816
       9    C4      20.535615   18.498160   21.533031 C.2        1 MOL1        -0.1394
      10    H4      20.132202   17.757050   20.843757 H          1 MOL1         0.0816
      11    C5      21.887257   19.055319   21.119237 C.3        1 MOL1        -0.1826
      12    H5      22.599855   18.225396   21.019545 H          1 MOL1         0.0736
      13    H6      21.800417   19.491872   20.115045 H          1 MOL1         0.0736
      14    C6      22.477723   20.113007   22.077713 C.3        1 MOL1        -0.2882
      15    H7      22.629548   19.694308   23.081228 H          1 MOL1         0.0749
      16    H8      23.450168   20.465393   21.710010 H          1 MOL1         0.0749
      17    H9      21.814059   20.983754   22.160405 H          1 MOL1         0.0749
@<TRIPOS>BOND
    1     1     2    1
    2     1     3    2
    3     1     4    1
    4     4     5    1
    5     4     6    1
    6     4     7    1
    7     7     8    1
    8     7     9    2
    9     9    10    1
   10     9    11    1
   11    11    12    1
   12    11    13    1
   13    11    14    1
   14    14    15    1
   15    14    16    1
   16    14    17    1
@<TRIPOS>SUBSTRUCTURE
       1 MOL1            1 RESIDUE      1      MOL     
@<SCITEGIC>MOL_PROPERTY
VConf Rank
SciTegic.value.IntegerValue
883

@<SCITEGIC>MOL_PROPERTY
Conf_Id
SciTegic.value.IntegerValue
19

@<SCITEGIC>MOL_PROPERTY
Delta U+W
SciTegic.value.DoubleValue
-0.496

@<SCITEGIC>MOL_PROPERTY
U+W
SciTegic.value.DoubleValue
-49.923

@<SCITEGIC>MOL_PROPERTY
Grad RMS
SciTegic.value.DoubleValue
0.000000

@<SCITEGIC>MOL_PROPERTY
U
SciTegic.value.DoubleValue
13.863

@<SCITEGIC>MOL_PROPERTY
W
SciTegic.value.DoubleValue
-63.786

@<SCITEGIC>MOL_PROPERTY
W(PB)
SciTegic.value.DoubleValue
-65.856

@<SCITEGIC>MOL_PROPERTY
W(SA)
SciTegic.value.DoubleValue
2.070

@<SCITEGIC>MOL_PROPERTY
Valence
SciTegic.value.DoubleValue
14.117

@<SCITEGIC>MOL_PROPERTY
Coulomb
SciTegic.value.DoubleValue
-1.228

@<SCITEGIC>MOL_PROPERTY
VdW
SciTegic.value.DoubleValue
0.974

@<SCITEGIC>MOL_PROPERTY
VdW6
SciTegic.value.DoubleValue
-4.885

@<SCITEGIC>MOL_PROPERTY
VdW12
SciTegic.value.DoubleValue
5.859

@<SCITEGIC>MOL_PROPERTY
Bond
SciTegic.value.DoubleValue
0.094

@<SCITEGIC>MOL_PROPERTY
Angle
SciTegic.value.DoubleValue
2.818

@<SCITEGIC>MOL_PROPERTY
Pdih
SciTegic.value.DoubleValue
11.205

@<SCITEGIC>MOL_PROPERTY
Idih
SciTegic.value.DoubleValue
0.000

@<SCITEGIC>MOL_PROPERTY
Tether
SciTegic.value.DoubleValue
0.000

@<TRIPOS>MOLECULE
guest-s20_confgen4.mol2 : confsearch ligand conformer 884
          17          16           1
SMALL
USER_CHARGES
 
@<TRIPOS>ATOM
       1    C1      17.378073   18.263336   21.710503 C.2        1 MOL1         0.6132
       2    O1      17.056010   17.769408   22.773105 O.co2      1 MOL1        -0.6749
       3    O2      16.687298   19.056100   21.101113 O.co2      1 MOL1        -0.6749
       4    C2      18.714950   17.860242   21.102142 C.3        1 MOL1        -0.1955
       5    H1      18.562997   17.715746   20.026263 H          1 MOL1         0.0733
       6    H2      19.002433   16.887561   21.519154 H          1 MOL1         0.0733
       7    C3      19.797509   18.895527   21.340917 C.2        1 MOL1        -0.1395
       8    H3      19.655321   19.844552   20.824826 H          1 MOL1         0.0816
       9    C4      20.861583   18.702356   22.126186 C.2        1 MOL1        -0.1394
      10    H4      21.000581   17.755018   22.646081 H          1 MOL1         0.0816
      11    C5      21.938406   19.737073   22.365248 C.3        1 MOL1        -0.1826
      12    H5      22.928343   19.278968   22.236071 H          1 MOL1         0.0736
      13    H6      21.865882   20.545492   21.624703 H          1 MOL1         0.0736
      14    C6      21.828704   20.332602   23.782393 C.3        1 MOL1        -0.2882
      15    H7      21.936811   19.550517   24.545337 H          1 MOL1         0.0749
      16    H8      22.612068   21.083069   23.950343 H          1 MOL1         0.0749
      17    H9      20.854608   20.818442   23.926536 H          1 MOL1         0.0749
@<TRIPOS>BOND
    1     1     2    1
    2     1     3    2
    3     1     4    1
    4     4     5    1
    5     4     6    1
    6     4     7    1
    7     7     8    1
    8     7     9    2
    9     9    10    1
   10     9    11    1
   11    11    12    1
   12    11    13    1
   13    11    14    1
   14    14    15    1
   15    14    16    1
   16    14    17    1
@<TRIPOS>SUBSTRUCTURE
       1 MOL1            1 RESIDUE      1      MOL     
@<SCITEGIC>MOL_PROPERTY
VConf Rank
SciTegic.value.IntegerValue
884

@<SCITEGIC>MOL_PROPERTY
Conf_Id
SciTegic.value.IntegerValue
7

@<SCITEGIC>MOL_PROPERTY
Delta U+W
SciTegic.value.DoubleValue
-0.041

@<SCITEGIC>MOL_PROPERTY
U+W
SciTegic.value.DoubleValue
-49.468

@<SCITEGIC>MOL_PROPERTY
Grad RMS
SciTegic.value.DoubleValue
0.000000

@<SCITEGIC>MOL_PROPERTY
U
SciTegic.value.DoubleValue
14.121

@<SCITEGIC>MOL_PROPERTY
W
SciTegic.value.DoubleValue
-63.589

@<SCITEGIC>MOL_PROPERTY
W(PB)
SciTegic.value.DoubleValue
-65.660

@<SCITEGIC>MOL_PROPERTY
W(SA)
SciTegic.value.DoubleValue
2.071

@<SCITEGIC>MOL_PROPERTY
Valence
SciTegic.value.DoubleValue
15.230

@<SCITEGIC>MOL_PROPERTY
Coulomb
SciTegic.value.DoubleValue
-1.333

@<SCITEGIC>MOL_PROPERTY
VdW
SciTegic.value.DoubleValue
0.224

@<SCITEGIC>MOL_PROPERTY
VdW6
SciTegic.value.DoubleValue
-4.212

@<SCITEGIC>MOL_PROPERTY
VdW12
SciTegic.value.DoubleValue
4.436

@<SCITEGIC>MOL_PROPERTY
Bond
SciTegic.value.DoubleValue
0.044

@<SCITEGIC>MOL_PROPERTY
Angle
SciTegic.value.DoubleValue
2.230

@<SCITEGIC>MOL_PROPERTY
Pdih
SciTegic.value.DoubleValue
12.956

@<SCITEGIC>MOL_PROPERTY
Idih
SciTegic.value.DoubleValue
0.000

@<SCITEGIC>MOL_PROPERTY
Tether
SciTegic.value.DoubleValue
0.000

@<TRIPOS>MOLECULE
guest-s20_confgen4.mol2 : confsearch ligand conformer 885
          17          16           1
SMALL
USER_CHARGES
 
@<TRIPOS>ATOM
       1    C1      18.537086   17.779635   20.574897 C.2        1 MOL1         0.6132
       2    O1      18.129493   18.641769   19.821515 O.co2      1 MOL1        -0.6749
       3    O2      17.808567   17.020173   21.182811 O.co2      1 MOL1        -0.6749
       4    C2      20.045162   17.624006   20.745381 C.3        1 MOL1        -0.1955
       5    H1      20.521034   17.899593   19.797032 H          1 MOL1         0.0733
       6    H2      20.258350   16.558632   20.891157 H          1 MOL1         0.0733
       7    C3      20.664657   18.428209   21.879559 C.2        1 MOL1        -0.1395
       8    H3      21.741647   18.302472   21.983621 H          1 MOL1         0.0816
       9    C4      20.009597   19.241717   22.716276 C.2        1 MOL1        -0.1394
      10    H4      18.932997   19.385910   22.633363 H          1 MOL1         0.0816
      11    C5      20.673966   20.019085   23.830840 C.3        1 MOL1        -0.1826
      12    H5      20.107318   19.888137   24.762657 H          1 MOL1         0.0736
      13    H6      21.685087   19.633113   24.020087 H          1 MOL1         0.0736
      14    C6      20.756907   21.518965   23.486576 C.3        1 MOL1        -0.2882
      15    H7      21.238472   22.078243   24.299203 H          1 MOL1         0.0749
      16    H8      21.341693   21.676879   22.570780 H          1 MOL1         0.0749
      17    H9      19.755374   21.940532   23.329501 H          1 MOL1         0.0749
@<TRIPOS>BOND
    1     1     2    1
    2     1     3    2
    3     1     4    1
    4     4     5    1
    5     4     6    1
    6     4     7    1
    7     7     8    1
    8     7     9    2
    9     9    10    1
   10     9    11    1
   11    11    12    1
   12    11    13    1
   13    11    14    1
   14    14    15    1
   15    14    16    1
   16    14    17    1
@<TRIPOS>SUBSTRUCTURE
       1 MOL1            1 RESIDUE      1      MOL     
@<SCITEGIC>MOL_PROPERTY
VConf Rank
SciTegic.value.IntegerValue
885

@<SCITEGIC>MOL_PROPERTY
Conf_Id
SciTegic.value.IntegerValue
39

@<SCITEGIC>MOL_PROPERTY
Delta U+W
SciTegic.value.DoubleValue
-0.422

@<SCITEGIC>MOL_PROPERTY
U+W
SciTegic.value.DoubleValue
-49.849

@<SCITEGIC>MOL_PROPERTY
Grad RMS
SciTegic.value.DoubleValue
0.000000

@<SCITEGIC>MOL_PROPERTY
U
SciTegic.value.DoubleValue
14.465

@<SCITEGIC>MOL_PROPERTY
W
SciTegic.value.DoubleValue
-64.314

@<SCITEGIC>MOL_PROPERTY
W(PB)
SciTegic.value.DoubleValue
-66.406

@<SCITEGIC>MOL_PROPERTY
W(SA)
SciTegic.value.DoubleValue
2.093

@<SCITEGIC>MOL_PROPERTY
Valence
SciTegic.value.DoubleValue
14.072

@<SCITEGIC>MOL_PROPERTY
Coulomb
SciTegic.value.DoubleValue
-0.199

@<SCITEGIC>MOL_PROPERTY
VdW
SciTegic.value.DoubleValue
0.592

@<SCITEGIC>MOL_PROPERTY
VdW6
SciTegic.value.DoubleValue
-5.019

@<SCITEGIC>MOL_PROPERTY
VdW12
SciTegic.value.DoubleValue
5.611

@<SCITEGIC>MOL_PROPERTY
Bond
SciTegic.value.DoubleValue
0.085

@<SCITEGIC>MOL_PROPERTY
Angle
SciTegic.value.DoubleValue
2.748

@<SCITEGIC>MOL_PROPERTY
Pdih
SciTegic.value.DoubleValue
11.238

@<SCITEGIC>MOL_PROPERTY
Idih
SciTegic.value.DoubleValue
0.001

@<SCITEGIC>MOL_PROPERTY
Tether
SciTegic.value.DoubleValue
0.000

@<TRIPOS>MOLECULE
guest-s20_confgen4.mol2 : confsearch ligand conformer 886
          17          16           1
SMALL
USER_CHARGES
 
@<TRIPOS>ATOM
       1    C1      23.066285   18.645379   21.168548 C.2        1 MOL1         0.6132
       2    O1      23.911329   19.473337   21.446662 O.co2      1 MOL1        -0.6749
       3    O2      23.029841   18.052337   20.108458 O.co2      1 MOL1        -0.6749
       4    C2      21.998976   18.331540   22.208722 C.3        1 MOL1        -0.1955
       5    H1      22.487617   18.293937   23.189194 H          1 MOL1         0.0733
       6    H2      21.607720   17.327196   22.006601 H          1 MOL1         0.0733
       7    C3      20.881909   19.357558   22.222566 C.2        1 MOL1        -0.1395
       8    H3      21.166022   20.349692   22.572065 H          1 MOL1         0.0816
       9    C4      19.626329   19.106114   21.839783 C.2        1 MOL1        -0.1394
      10    H4      19.343613   18.114603   21.487592 H          1 MOL1         0.0816
      11    C5      18.514640   20.131469   21.850698 C.3        1 MOL1        -0.1826
      12    H5      18.926432   21.143687   21.964987 H          1 MOL1         0.0736
      13    H6      17.984449   20.113632   20.888869 H          1 MOL1         0.0736
      14    C6      17.517139   19.854752   22.992398 C.3        1 MOL1        -0.2882
      15    H7      18.020343   19.892904   23.967556 H          1 MOL1         0.0749
      16    H8      16.712532   20.601536   22.994824 H          1 MOL1         0.0749
      17    H9      17.060537   18.862435   22.881716 H          1 MOL1         0.0749
@<TRIPOS>BOND
    1     1     2    1
    2     1     3    2
    3     1     4    1
    4     4     5    1
    5     4     6    1
    6     4     7    1
    7     7     8    1
    8     7     9    2
    9     9    10    1
   10     9    11    1
   11    11    12    1
   12    11    13    1
   13    11    14    1
   14    14    15    1
   15    14    16    1
   16    14    17    1
@<TRIPOS>SUBSTRUCTURE
       1 MOL1            1 RESIDUE      1      MOL     
@<SCITEGIC>MOL_PROPERTY
VConf Rank
SciTegic.value.IntegerValue
886

@<SCITEGIC>MOL_PROPERTY
Conf_Id
SciTegic.value.IntegerValue
38

@<SCITEGIC>MOL_PROPERTY
Delta U+W
SciTegic.value.DoubleValue
0.000

@<SCITEGIC>MOL_PROPERTY
U+W
SciTegic.value.DoubleValue
-49.427

@<SCITEGIC>MOL_PROPERTY
Grad RMS
SciTegic.value.DoubleValue
0.000000

@<SCITEGIC>MOL_PROPERTY
U
SciTegic.value.DoubleValue
13.666

@<SCITEGIC>MOL_PROPERTY
W
SciTegic.value.DoubleValue
-63.093

@<SCITEGIC>MOL_PROPERTY
W(PB)
SciTegic.value.DoubleValue
-65.225

@<SCITEGIC>MOL_PROPERTY
W(SA)
SciTegic.value.DoubleValue
2.132

@<SCITEGIC>MOL_PROPERTY
Valence
SciTegic.value.DoubleValue
15.226

@<SCITEGIC>MOL_PROPERTY
Coulomb
SciTegic.value.DoubleValue
-1.822

@<SCITEGIC>MOL_PROPERTY
VdW
SciTegic.value.DoubleValue
0.261

@<SCITEGIC>MOL_PROPERTY
VdW6
SciTegic.value.DoubleValue
-4.165

@<SCITEGIC>MOL_PROPERTY
VdW12
SciTegic.value.DoubleValue
4.426

@<SCITEGIC>MOL_PROPERTY
Bond
SciTegic.value.DoubleValue
0.044

@<SCITEGIC>MOL_PROPERTY
Angle
SciTegic.value.DoubleValue
2.229

@<SCITEGIC>MOL_PROPERTY
Pdih
SciTegic.value.DoubleValue
12.953

@<SCITEGIC>MOL_PROPERTY
Idih
SciTegic.value.DoubleValue
0.000

@<SCITEGIC>MOL_PROPERTY
Tether
SciTegic.value.DoubleValue
0.000

@<TRIPOS>MOLECULE
guest-s20_confgen4.mol2 : confsearch ligand conformer 887
          17          16           1
SMALL
USER_CHARGES
 
@<TRIPOS>ATOM
       1    C1      22.797673   17.782397   21.428920 C.2        1 MOL1         0.6132
       2    O1      23.430169   18.451209   20.635536 O.co2      1 MOL1        -0.6749
       3    O2      22.759758   16.567937   21.404226 O.co2      1 MOL1        -0.6749
       4    C2      22.013479   18.503162   22.517563 C.3        1 MOL1        -0.1955
       5    H1      22.467891   19.489203   22.672069 H          1 MOL1         0.0733
       6    H2      22.141393   17.941522   23.450143 H          1 MOL1         0.0733
       7    C3      20.539218   18.630173   22.184147 C.2        1 MOL1        -0.1395
       8    H3      19.982589   17.693563   22.172893 H          1 MOL1         0.0816
       9    C4      19.927123   19.787244   21.914418 C.2        1 MOL1        -0.1394
      10    H4      20.485004   20.723065   21.922726 H          1 MOL1         0.0816
      11    C5      18.457808   19.911518   21.578274 C.3        1 MOL1        -0.1826
      12    H5      18.333992   20.534170   20.681888 H          1 MOL1         0.0736
      13    H6      18.033559   18.926621   21.339088 H          1 MOL1         0.0736
      14    C6      17.672589   20.534424   22.748948 C.3        1 MOL1        -0.2882
      15    H7      18.051347   21.537567   22.984904 H          1 MOL1         0.0749
      16    H8      16.607332   20.622694   22.498904 H          1 MOL1         0.0749
      17    H9      17.760604   19.914635   23.651010 H          1 MOL1         0.0749
@<TRIPOS>BOND
    1     1     2    1
    2     1     3    2
    3     1     4    1
    4     4     5    1
    5     4     6    1
    6     4     7    1
    7     7     8    1
    8     7     9    2
    9     9    10    1
   10     9    11    1
   11    11    12    1
   12    11    13    1
   13    11    14    1
   14    14    15    1
   15    14    16    1
   16    14    17    1
@<TRIPOS>SUBSTRUCTURE
       1 MOL1            1 RESIDUE      1      MOL     
@<SCITEGIC>MOL_PROPERTY
VConf Rank
SciTegic.value.IntegerValue
887

@<SCITEGIC>MOL_PROPERTY
Conf_Id
SciTegic.value.IntegerValue
35

@<SCITEGIC>MOL_PROPERTY
Delta U+W
SciTegic.value.DoubleValue
-0.102

@<SCITEGIC>MOL_PROPERTY
U+W
SciTegic.value.DoubleValue
-49.529

@<SCITEGIC>MOL_PROPERTY
Grad RMS
SciTegic.value.DoubleValue
0.000000

@<SCITEGIC>MOL_PROPERTY
U
SciTegic.value.DoubleValue
13.666

@<SCITEGIC>MOL_PROPERTY
W
SciTegic.value.DoubleValue
-63.195

@<SCITEGIC>MOL_PROPERTY
W(PB)
SciTegic.value.DoubleValue
-65.299

@<SCITEGIC>MOL_PROPERTY
W(SA)
SciTegic.value.DoubleValue
2.103

@<SCITEGIC>MOL_PROPERTY
Valence
SciTegic.value.DoubleValue
15.226

@<SCITEGIC>MOL_PROPERTY
Coulomb
SciTegic.value.DoubleValue
-1.822

@<SCITEGIC>MOL_PROPERTY
VdW
SciTegic.value.DoubleValue
0.261

@<SCITEGIC>MOL_PROPERTY
VdW6
SciTegic.value.DoubleValue
-4.165

@<SCITEGIC>MOL_PROPERTY
VdW12
SciTegic.value.DoubleValue
4.426

@<SCITEGIC>MOL_PROPERTY
Bond
SciTegic.value.DoubleValue
0.044

@<SCITEGIC>MOL_PROPERTY
Angle
SciTegic.value.DoubleValue
2.229

@<SCITEGIC>MOL_PROPERTY
Pdih
SciTegic.value.DoubleValue
12.953

@<SCITEGIC>MOL_PROPERTY
Idih
SciTegic.value.DoubleValue
0.000

@<SCITEGIC>MOL_PROPERTY
Tether
SciTegic.value.DoubleValue
0.000

@<TRIPOS>MOLECULE
guest-s20_confgen4.mol2 : confsearch ligand conformer 888
          17          16           1
SMALL
USER_CHARGES
 
@<TRIPOS>ATOM
       1    C1      21.889301   16.687952   22.543261 C.2        1 MOL1         0.6132
       2    O1      22.816572   16.712751   21.758070 O.co2      1 MOL1        -0.6749
       3    O2      22.009713   16.393996   23.716265 O.co2      1 MOL1        -0.6749
       4    C2      20.499987   17.035336   22.024778 C.3        1 MOL1        -0.1955
       5    H1      19.760441   16.567054   22.685361 H          1 MOL1         0.0733
       6    H2      20.385890   16.573012   21.037485 H          1 MOL1         0.0733
       7    C3      20.274147   18.532330   21.927760 C.2        1 MOL1        -0.1395
       8    H3      20.872448   19.033789   21.169034 H          1 MOL1         0.0816
       9    C4      19.418904   19.210640   22.703109 C.2        1 MOL1        -0.1394
      10    H4      18.840128   18.675114   23.454982 H          1 MOL1         0.0816
      11    C5      19.146650   20.704910   22.662778 C.3        1 MOL1        -0.1826
      12    H5      18.075622   20.867611   22.481304 H          1 MOL1         0.0736
      13    H6      19.345601   21.130263   23.655761 H          1 MOL1         0.0736
      14    C6      19.960143   21.487731   21.608526 C.3        1 MOL1        -0.2882
      15    H7      19.744613   21.124432   20.595135 H          1 MOL1         0.0749
      16    H8      19.708308   22.555627   21.643272 H          1 MOL1         0.0749
      17    H9      21.038397   21.390574   21.791337 H          1 MOL1         0.0749
@<TRIPOS>BOND
    1     1     2    1
    2     1     3    2
    3     1     4    1
    4     4     5    1
    5     4     6    1
    6     4     7    1
    7     7     8    1
    8     7     9    2
    9     9    10    1
   10     9    11    1
   11    11    12    1
   12    11    13    1
   13    11    14    1
   14    14    15    1
   15    14    16    1
   16    14    17    1
@<TRIPOS>SUBSTRUCTURE
       1 MOL1            1 RESIDUE      1      MOL     
@<SCITEGIC>MOL_PROPERTY
VConf Rank
SciTegic.value.IntegerValue
888

@<SCITEGIC>MOL_PROPERTY
Conf_Id
SciTegic.value.IntegerValue
19

@<SCITEGIC>MOL_PROPERTY
Delta U+W
SciTegic.value.DoubleValue
-0.496

@<SCITEGIC>MOL_PROPERTY
U+W
SciTegic.value.DoubleValue
-49.923

@<SCITEGIC>MOL_PROPERTY
Grad RMS
SciTegic.value.DoubleValue
0.000000

@<SCITEGIC>MOL_PROPERTY
U
SciTegic.value.DoubleValue
13.863

@<SCITEGIC>MOL_PROPERTY
W
SciTegic.value.DoubleValue
-63.786

@<SCITEGIC>MOL_PROPERTY
W(PB)
SciTegic.value.DoubleValue
-65.856

@<SCITEGIC>MOL_PROPERTY
W(SA)
SciTegic.value.DoubleValue
2.070

@<SCITEGIC>MOL_PROPERTY
Valence
SciTegic.value.DoubleValue
14.117

@<SCITEGIC>MOL_PROPERTY
Coulomb
SciTegic.value.DoubleValue
-1.228

@<SCITEGIC>MOL_PROPERTY
VdW
SciTegic.value.DoubleValue
0.974

@<SCITEGIC>MOL_PROPERTY
VdW6
SciTegic.value.DoubleValue
-4.885

@<SCITEGIC>MOL_PROPERTY
VdW12
SciTegic.value.DoubleValue
5.859

@<SCITEGIC>MOL_PROPERTY
Bond
SciTegic.value.DoubleValue
0.094

@<SCITEGIC>MOL_PROPERTY
Angle
SciTegic.value.DoubleValue
2.818

@<SCITEGIC>MOL_PROPERTY
Pdih
SciTegic.value.DoubleValue
11.205

@<SCITEGIC>MOL_PROPERTY
Idih
SciTegic.value.DoubleValue
0.000

@<SCITEGIC>MOL_PROPERTY
Tether
SciTegic.value.DoubleValue
0.000

@<TRIPOS>MOLECULE
guest-s20_confgen4.mol2 : confsearch ligand conformer 889
          17          16           1
SMALL
USER_CHARGES
 
@<TRIPOS>ATOM
       1    C1      22.318144   17.114048   21.826868 C.2        1 MOL1         0.6132
       2    O1      23.271568   17.684106   22.319645 O.co2      1 MOL1        -0.6749
       3    O2      22.043393   15.950820   22.046901 O.co2      1 MOL1        -0.6749
       4    C2      21.423591   17.894796   20.872911 C.3        1 MOL1        -0.1955
       5    H1      21.179038   17.237781   20.030290 H          1 MOL1         0.0733
       6    H2      22.002769   18.733549   20.468312 H          1 MOL1         0.0733
       7    C3      20.151338   18.383617   21.538636 C.2        1 MOL1        -0.1395
       8    H3      19.449076   17.602893   21.829348 H          1 MOL1         0.0816
       9    C4      19.874866   19.669116   21.777950 C.2        1 MOL1        -0.1394
      10    H4      20.579766   20.449008   21.491692 H          1 MOL1         0.0816
      11    C5      18.606934   20.154214   22.444558 C.3        1 MOL1        -0.1826
      12    H5      18.173786   20.978795   21.862346 H          1 MOL1         0.0736
      13    H6      17.854073   19.354268   22.466806 H          1 MOL1         0.0736
      14    C6      18.885887   20.631817   23.882985 C.3        1 MOL1        -0.2882
      15    H7      19.607600   21.459181   23.887931 H          1 MOL1         0.0749
      16    H8      17.962483   20.982276   24.362121 H          1 MOL1         0.0749
      17    H9      19.297264   19.815722   24.491621 H          1 MOL1         0.0749
@<TRIPOS>BOND
    1     1     2    1
    2     1     3    2
    3     1     4    1
    4     4     5    1
    5     4     6    1
    6     4     7    1
    7     7     8    1
    8     7     9    2
    9     9    10    1
   10     9    11    1
   11    11    12    1
   12    11    13    1
   13    11    14    1
   14    14    15    1
   15    14    16    1
   16    14    17    1
@<TRIPOS>SUBSTRUCTURE
       1 MOL1            1 RESIDUE      1      MOL     
@<SCITEGIC>MOL_PROPERTY
VConf Rank
SciTegic.value.IntegerValue
889

@<SCITEGIC>MOL_PROPERTY
Conf_Id
SciTegic.value.IntegerValue
7

@<SCITEGIC>MOL_PROPERTY
Delta U+W
SciTegic.value.DoubleValue
-0.041

@<SCITEGIC>MOL_PROPERTY
U+W
SciTegic.value.DoubleValue
-49.468

@<SCITEGIC>MOL_PROPERTY
Grad RMS
SciTegic.value.DoubleValue
0.000000

@<SCITEGIC>MOL_PROPERTY
U
SciTegic.value.DoubleValue
14.121

@<SCITEGIC>MOL_PROPERTY
W
SciTegic.value.DoubleValue
-63.589

@<SCITEGIC>MOL_PROPERTY
W(PB)
SciTegic.value.DoubleValue
-65.660

@<SCITEGIC>MOL_PROPERTY
W(SA)
SciTegic.value.DoubleValue
2.071

@<SCITEGIC>MOL_PROPERTY
Valence
SciTegic.value.DoubleValue
15.230

@<SCITEGIC>MOL_PROPERTY
Coulomb
SciTegic.value.DoubleValue
-1.333

@<SCITEGIC>MOL_PROPERTY
VdW
SciTegic.value.DoubleValue
0.224

@<SCITEGIC>MOL_PROPERTY
VdW6
SciTegic.value.DoubleValue
-4.212

@<SCITEGIC>MOL_PROPERTY
VdW12
SciTegic.value.DoubleValue
4.436

@<SCITEGIC>MOL_PROPERTY
Bond
SciTegic.value.DoubleValue
0.044

@<SCITEGIC>MOL_PROPERTY
Angle
SciTegic.value.DoubleValue
2.230

@<SCITEGIC>MOL_PROPERTY
Pdih
SciTegic.value.DoubleValue
12.956

@<SCITEGIC>MOL_PROPERTY
Idih
SciTegic.value.DoubleValue
0.000

@<SCITEGIC>MOL_PROPERTY
Tether
SciTegic.value.DoubleValue
0.000

@<TRIPOS>MOLECULE
guest-s20_confgen4.mol2 : confsearch ligand conformer 890
          17          16           1
SMALL
USER_CHARGES
 
@<TRIPOS>ATOM
       1    C1      19.191433   18.556526   19.769556 C.2        1 MOL1         0.6132
       2    O1      18.424432   19.471037   19.540706 O.co2      1 MOL1        -0.6749
       3    O2      18.873202   17.384701   19.718195 O.co2      1 MOL1        -0.6749
       4    C2      20.638565   18.896758   20.112525 C.3        1 MOL1        -0.1955
       5    H1      20.904706   19.814471   19.575180 H          1 MOL1         0.0733
       6    H2      21.276451   18.108202   19.696589 H          1 MOL1         0.0733
       7    C3      20.939752   19.067961   21.594703 C.2        1 MOL1        -0.1395
       8    H3      21.978161   19.310293   21.817250 H          1 MOL1         0.0816
       9    C4      20.058975   18.949215   22.595267 C.2        1 MOL1        -0.1394
      10    H4      19.014601   18.708535   22.400102 H          1 MOL1         0.0816
      11    C5      20.410870   19.128294   24.055418 C.3        1 MOL1        -0.1826
      12    H5      20.001992   18.293150   24.640117 H          1 MOL1         0.0736
      13    H6      21.500519   19.106568   24.194508 H          1 MOL1         0.0736
      14    C6      19.853747   20.457953   24.600083 C.3        1 MOL1        -0.2882
      15    H7      20.110803   20.581969   25.660083 H          1 MOL1         0.0749
      16    H8      20.269054   21.310426   24.046546 H          1 MOL1         0.0749
      17    H9      18.760145   20.491012   24.508426 H          1 MOL1         0.0749
@<TRIPOS>BOND
    1     1     2    1
    2     1     3    2
    3     1     4    1
    4     4     5    1
    5     4     6    1
    6     4     7    1
    7     7     8    1
    8     7     9    2
    9     9    10    1
   10     9    11    1
   11    11    12    1
   12    11    13    1
   13    11    14    1
   14    14    15    1
   15    14    16    1
   16    14    17    1
@<TRIPOS>SUBSTRUCTURE
       1 MOL1            1 RESIDUE      1      MOL     
@<SCITEGIC>MOL_PROPERTY
VConf Rank
SciTegic.value.IntegerValue
890

@<SCITEGIC>MOL_PROPERTY
Conf_Id
SciTegic.value.IntegerValue
39

@<SCITEGIC>MOL_PROPERTY
Delta U+W
SciTegic.value.DoubleValue
-0.422

@<SCITEGIC>MOL_PROPERTY
U+W
SciTegic.value.DoubleValue
-49.849

@<SCITEGIC>MOL_PROPERTY
Grad RMS
SciTegic.value.DoubleValue
0.000000

@<SCITEGIC>MOL_PROPERTY
U
SciTegic.value.DoubleValue
14.465

@<SCITEGIC>MOL_PROPERTY
W
SciTegic.value.DoubleValue
-64.314

@<SCITEGIC>MOL_PROPERTY
W(PB)
SciTegic.value.DoubleValue
-66.406

@<SCITEGIC>MOL_PROPERTY
W(SA)
SciTegic.value.DoubleValue
2.093

@<SCITEGIC>MOL_PROPERTY
Valence
SciTegic.value.DoubleValue
14.072

@<SCITEGIC>MOL_PROPERTY
Coulomb
SciTegic.value.DoubleValue
-0.199

@<SCITEGIC>MOL_PROPERTY
VdW
SciTegic.value.DoubleValue
0.592

@<SCITEGIC>MOL_PROPERTY
VdW6
SciTegic.value.DoubleValue
-5.019

@<SCITEGIC>MOL_PROPERTY
VdW12
SciTegic.value.DoubleValue
5.611

@<SCITEGIC>MOL_PROPERTY
Bond
SciTegic.value.DoubleValue
0.085

@<SCITEGIC>MOL_PROPERTY
Angle
SciTegic.value.DoubleValue
2.748

@<SCITEGIC>MOL_PROPERTY
Pdih
SciTegic.value.DoubleValue
11.238

@<SCITEGIC>MOL_PROPERTY
Idih
SciTegic.value.DoubleValue
0.001

@<SCITEGIC>MOL_PROPERTY
Tether
SciTegic.value.DoubleValue
0.000

@<TRIPOS>MOLECULE
guest-s20_confgen4.mol2 : confsearch ligand conformer 891
          17          16           1
SMALL
USER_CHARGES
 
@<TRIPOS>ATOM
       1    C1      20.570342   16.949475   24.203569 C.2        1 MOL1         0.6132
       2    O1      20.217880   17.171034   25.345341 O.co2      1 MOL1        -0.6749
       3    O2      21.590525   16.353658   23.918878 O.co2      1 MOL1        -0.6749
       4    C2      19.680872   17.441462   23.069375 C.3        1 MOL1        -0.1955
       5    H1      18.639191   17.257493   23.356717 H          1 MOL1         0.0733
       6    H2      19.882657   16.826885   22.183814 H          1 MOL1         0.0733
       7    C3      19.885592   18.913775   22.767501 C.2        1 MOL1        -0.1395
       8    H3      19.553131   19.598899   23.546780 H          1 MOL1         0.0816
       9    C4      20.432593   19.380538   21.640936 C.2        1 MOL1        -0.1394
      10    H4      20.767543   18.694770   20.863381 H          1 MOL1         0.0816
      11    C5      20.639388   20.848853   21.343265 C.3        1 MOL1        -0.1826
      12    H5      20.521813   21.446698   22.257584 H          1 MOL1         0.0736
      13    H6      21.665670   21.014179   20.988374 H          1 MOL1         0.0736
      14    C6      19.641497   21.343972   20.278310 C.3        1 MOL1        -0.2882
      15    H7      18.607080   21.212275   20.622168 H          1 MOL1         0.0749
      16    H8      19.796830   22.409763   20.066064 H          1 MOL1         0.0749
      17    H9      19.763110   20.788380   19.339184 H          1 MOL1         0.0749
@<TRIPOS>BOND
    1     1     2    1
    2     1     3    2
    3     1     4    1
    4     4     5    1
    5     4     6    1
    6     4     7    1
    7     7     8    1
    8     7     9    2
    9     9    10    1
   10     9    11    1
   11    11    12    1
   12    11    13    1
   13    11    14    1
   14    14    15    1
   15    14    16    1
   16    14    17    1
@<TRIPOS>SUBSTRUCTURE
       1 MOL1            1 RESIDUE      1      MOL     
@<SCITEGIC>MOL_PROPERTY
VConf Rank
SciTegic.value.IntegerValue
891

@<SCITEGIC>MOL_PROPERTY
Conf_Id
SciTegic.value.IntegerValue
38

@<SCITEGIC>MOL_PROPERTY
Delta U+W
SciTegic.value.DoubleValue
0.000

@<SCITEGIC>MOL_PROPERTY
U+W
SciTegic.value.DoubleValue
-49.427

@<SCITEGIC>MOL_PROPERTY
Grad RMS
SciTegic.value.DoubleValue
0.000000

@<SCITEGIC>MOL_PROPERTY
U
SciTegic.value.DoubleValue
13.666

@<SCITEGIC>MOL_PROPERTY
W
SciTegic.value.DoubleValue
-63.093

@<SCITEGIC>MOL_PROPERTY
W(PB)
SciTegic.value.DoubleValue
-65.225

@<SCITEGIC>MOL_PROPERTY
W(SA)
SciTegic.value.DoubleValue
2.132

@<SCITEGIC>MOL_PROPERTY
Valence
SciTegic.value.DoubleValue
15.226

@<SCITEGIC>MOL_PROPERTY
Coulomb
SciTegic.value.DoubleValue
-1.822

@<SCITEGIC>MOL_PROPERTY
VdW
SciTegic.value.DoubleValue
0.261

@<SCITEGIC>MOL_PROPERTY
VdW6
SciTegic.value.DoubleValue
-4.165

@<SCITEGIC>MOL_PROPERTY
VdW12
SciTegic.value.DoubleValue
4.426

@<SCITEGIC>MOL_PROPERTY
Bond
SciTegic.value.DoubleValue
0.044

@<SCITEGIC>MOL_PROPERTY
Angle
SciTegic.value.DoubleValue
2.229

@<SCITEGIC>MOL_PROPERTY
Pdih
SciTegic.value.DoubleValue
12.953

@<SCITEGIC>MOL_PROPERTY
Idih
SciTegic.value.DoubleValue
0.000

@<SCITEGIC>MOL_PROPERTY
Tether
SciTegic.value.DoubleValue
0.000

@<TRIPOS>MOLECULE
guest-s20_confgen4.mol2 : confsearch ligand conformer 892
          17          16           1
SMALL
USER_CHARGES
 
@<TRIPOS>ATOM
       1    C1      21.551776   21.921460   21.196381 C.2        1 MOL1         0.6132
       2    O1      22.303033   22.283306   22.080406 O.co2      1 MOL1        -0.6749
       3    O2      20.908988   22.687207   20.505430 O.co2      1 MOL1        -0.6749
       4    C2      21.410761   20.427700   20.934843 C.3        1 MOL1        -0.1955
       5    H1      22.314490   19.927950   21.303845 H          1 MOL1         0.0733
       6    H2      21.382722   20.278920   19.849216 H          1 MOL1         0.0733
       7    C3      20.166071   19.841184   21.573193 C.2        1 MOL1        -0.1395
       8    H3      19.221930   20.173596   21.142727 H          1 MOL1         0.0816
       9    C4      20.180748   18.978085   22.593523 C.2        1 MOL1        -0.1394
      10    H4      21.125110   18.648562   23.025562 H          1 MOL1         0.0816
      11    C5      18.938489   18.397334   23.231365 C.3        1 MOL1        -0.1826
      12    H5      19.006067   18.487489   24.323994 H          1 MOL1         0.0736
      13    H6      18.048019   18.962236   22.922872 H          1 MOL1         0.0736
      14    C6      18.760335   16.915270   22.848211 C.3        1 MOL1        -0.2882
      15    H7      19.620642   16.318917   23.179367 H          1 MOL1         0.0749
      16    H8      17.857805   16.499230   23.314510 H          1 MOL1         0.0749
      17    H9      18.664539   16.802657   21.760212 H          1 MOL1         0.0749
@<TRIPOS>BOND
    1     1     2    1
    2     1     3    2
    3     1     4    1
    4     4     5    1
    5     4     6    1
    6     4     7    1
    7     7     8    1
    8     7     9    2
    9     9    10    1
   10     9    11    1
   11    11    12    1
   12    11    13    1
   13    11    14    1
   14    14    15    1
   15    14    16    1
   16    14    17    1
@<TRIPOS>SUBSTRUCTURE
       1 MOL1            1 RESIDUE      1      MOL     
@<SCITEGIC>MOL_PROPERTY
VConf Rank
SciTegic.value.IntegerValue
892

@<SCITEGIC>MOL_PROPERTY
Conf_Id
SciTegic.value.IntegerValue
35

@<SCITEGIC>MOL_PROPERTY
Delta U+W
SciTegic.value.DoubleValue
-0.102

@<SCITEGIC>MOL_PROPERTY
U+W
SciTegic.value.DoubleValue
-49.529

@<SCITEGIC>MOL_PROPERTY
Grad RMS
SciTegic.value.DoubleValue
0.000000

@<SCITEGIC>MOL_PROPERTY
U
SciTegic.value.DoubleValue
13.666

@<SCITEGIC>MOL_PROPERTY
W
SciTegic.value.DoubleValue
-63.195

@<SCITEGIC>MOL_PROPERTY
W(PB)
SciTegic.value.DoubleValue
-65.299

@<SCITEGIC>MOL_PROPERTY
W(SA)
SciTegic.value.DoubleValue
2.103

@<SCITEGIC>MOL_PROPERTY
Valence
SciTegic.value.DoubleValue
15.226

@<SCITEGIC>MOL_PROPERTY
Coulomb
SciTegic.value.DoubleValue
-1.822

@<SCITEGIC>MOL_PROPERTY
VdW
SciTegic.value.DoubleValue
0.261

@<SCITEGIC>MOL_PROPERTY
VdW6
SciTegic.value.DoubleValue
-4.165

@<SCITEGIC>MOL_PROPERTY
VdW12
SciTegic.value.DoubleValue
4.426

@<SCITEGIC>MOL_PROPERTY
Bond
SciTegic.value.DoubleValue
0.044

@<SCITEGIC>MOL_PROPERTY
Angle
SciTegic.value.DoubleValue
2.229

@<SCITEGIC>MOL_PROPERTY
Pdih
SciTegic.value.DoubleValue
12.953

@<SCITEGIC>MOL_PROPERTY
Idih
SciTegic.value.DoubleValue
0.000

@<SCITEGIC>MOL_PROPERTY
Tether
SciTegic.value.DoubleValue
0.000

@<TRIPOS>MOLECULE
guest-s20_confgen4.mol2 : confsearch ligand conformer 893
          17          16           1
SMALL
USER_CHARGES
 
@<TRIPOS>ATOM
       1    C1      20.478962   17.656946   24.764843 C.2        1 MOL1         0.6132
       2    O1      20.863063   16.521721   24.563095 O.co2      1 MOL1        -0.6749
       3    O2      20.931742   18.374983   25.634476 O.co2      1 MOL1        -0.6749
       4    C2      19.362785   18.204281   23.884919 C.3        1 MOL1        -0.1955
       5    H1      18.854858   19.005986   24.434341 H          1 MOL1         0.0733
       6    H2      18.629654   17.402929   23.737054 H          1 MOL1         0.0733
       7    C3      19.870626   18.699113   22.543783 C.2        1 MOL1        -0.1395
       8    H3      20.244580   17.918543   21.883512 H          1 MOL1         0.0816
       9    C4      19.876442   19.986495   22.175917 C.2        1 MOL1        -0.1394
      10    H4      19.498041   20.740410   22.865488 H          1 MOL1         0.0816
      11    C5      20.371790   20.550693   20.854970 C.3        1 MOL1        -0.1826
      12    H5      19.554130   21.105131   20.374827 H          1 MOL1         0.0736
      13    H6      21.154366   21.294694   21.056364 H          1 MOL1         0.0736
      14    C6      20.919260   19.501612   19.862129 C.3        1 MOL1        -0.2882
      15    H7      20.145199   18.770231   19.595081 H          1 MOL1         0.0749
      16    H8      21.256742   19.986620   18.936979 H          1 MOL1         0.0749
      17    H9      21.774624   18.962733   20.290442 H          1 MOL1         0.0749
@<TRIPOS>BOND
    1     1     2    1
    2     1     3    2
    3     1     4    1
    4     4     5    1
    5     4     6    1
    6     4     7    1
    7     7     8    1
    8     7     9    2
    9     9    10    1
   10     9    11    1
   11    11    12    1
   12    11    13    1
   13    11    14    1
   14    14    15    1
   15    14    16    1
   16    14    17    1
@<TRIPOS>SUBSTRUCTURE
       1 MOL1            1 RESIDUE      1      MOL     
@<SCITEGIC>MOL_PROPERTY
VConf Rank
SciTegic.value.IntegerValue
893

@<SCITEGIC>MOL_PROPERTY
Conf_Id
SciTegic.value.IntegerValue
19

@<SCITEGIC>MOL_PROPERTY
Delta U+W
SciTegic.value.DoubleValue
-0.496

@<SCITEGIC>MOL_PROPERTY
U+W
SciTegic.value.DoubleValue
-49.923

@<SCITEGIC>MOL_PROPERTY
Grad RMS
SciTegic.value.DoubleValue
0.000000

@<SCITEGIC>MOL_PROPERTY
U
SciTegic.value.DoubleValue
13.863

@<SCITEGIC>MOL_PROPERTY
W
SciTegic.value.DoubleValue
-63.786

@<SCITEGIC>MOL_PROPERTY
W(PB)
SciTegic.value.DoubleValue
-65.856

@<SCITEGIC>MOL_PROPERTY
W(SA)
SciTegic.value.DoubleValue
2.070

@<SCITEGIC>MOL_PROPERTY
Valence
SciTegic.value.DoubleValue
14.117

@<SCITEGIC>MOL_PROPERTY
Coulomb
SciTegic.value.DoubleValue
-1.228

@<SCITEGIC>MOL_PROPERTY
VdW
SciTegic.value.DoubleValue
0.974

@<SCITEGIC>MOL_PROPERTY
VdW6
SciTegic.value.DoubleValue
-4.885

@<SCITEGIC>MOL_PROPERTY
VdW12
SciTegic.value.DoubleValue
5.859

@<SCITEGIC>MOL_PROPERTY
Bond
SciTegic.value.DoubleValue
0.094

@<SCITEGIC>MOL_PROPERTY
Angle
SciTegic.value.DoubleValue
2.818

@<SCITEGIC>MOL_PROPERTY
Pdih
SciTegic.value.DoubleValue
11.205

@<SCITEGIC>MOL_PROPERTY
Idih
SciTegic.value.DoubleValue
0.000

@<SCITEGIC>MOL_PROPERTY
Tether
SciTegic.value.DoubleValue
0.000

@<TRIPOS>MOLECULE
guest-s20_confgen4.mol2 : confsearch ligand conformer 894
          17          16           1
SMALL
USER_CHARGES
 
@<TRIPOS>ATOM
       1    C1      17.393164   18.238237   22.754167 C.2        1 MOL1         0.6132
       2    O1      17.069897   18.991241   23.651549 O.co2      1 MOL1        -0.6749
       3    O2      16.696208   18.009228   21.785245 O.co2      1 MOL1        -0.6749
       4    C2      18.739984   17.533753   22.852182 C.3        1 MOL1        -0.1955
       5    H1      18.598138   16.494765   22.533016 H          1 MOL1         0.0733
       6    H2      19.037612   17.507572   23.907353 H          1 MOL1         0.0733
       7    C3      19.806431   18.198628   22.002832 C.2        1 MOL1        -0.1395
       8    H3      19.655151   18.126789   20.926185 H          1 MOL1         0.0816
       9    C4      20.867103   18.843625   22.497979 C.2        1 MOL1        -0.1394
      10    H4      21.015140   18.919584   23.574722 H          1 MOL1         0.0816
      11    C5      21.927819   19.508449   21.649318 C.3        1 MOL1        -0.1826
      12    H5      22.924884   19.211397   22.001659 H          1 MOL1         0.0736
      13    H6      21.849813   19.174765   20.605393 H          1 MOL1         0.0736
      14    C6      21.799293   21.043176   21.704857 C.3        1 MOL1        -0.2882
      15    H7      21.912349   21.408690   22.733956 H          1 MOL1         0.0749
      16    H8      22.571016   21.520458   21.087028 H          1 MOL1         0.0749
      17    H9      20.817575   21.365652   21.333481 H          1 MOL1         0.0749
@<TRIPOS>BOND
    1     1     2    1
    2     1     3    2
    3     1     4    1
    4     4     5    1
    5     4     6    1
    6     4     7    1
    7     7     8    1
    8     7     9    2
    9     9    10    1
   10     9    11    1
   11    11    12    1
   12    11    13    1
   13    11    14    1
   14    14    15    1
   15    14    16    1
   16    14    17    1
@<TRIPOS>SUBSTRUCTURE
       1 MOL1            1 RESIDUE      1      MOL     
@<SCITEGIC>MOL_PROPERTY
VConf Rank
SciTegic.value.IntegerValue
894

@<SCITEGIC>MOL_PROPERTY
Conf_Id
SciTegic.value.IntegerValue
7

@<SCITEGIC>MOL_PROPERTY
Delta U+W
SciTegic.value.DoubleValue
-0.041

@<SCITEGIC>MOL_PROPERTY
U+W
SciTegic.value.DoubleValue
-49.468

@<SCITEGIC>MOL_PROPERTY
Grad RMS
SciTegic.value.DoubleValue
0.000000

@<SCITEGIC>MOL_PROPERTY
U
SciTegic.value.DoubleValue
14.121

@<SCITEGIC>MOL_PROPERTY
W
SciTegic.value.DoubleValue
-63.589

@<SCITEGIC>MOL_PROPERTY
W(PB)
SciTegic.value.DoubleValue
-65.660

@<SCITEGIC>MOL_PROPERTY
W(SA)
SciTegic.value.DoubleValue
2.071

@<SCITEGIC>MOL_PROPERTY
Valence
SciTegic.value.DoubleValue
15.230

@<SCITEGIC>MOL_PROPERTY
Coulomb
SciTegic.value.DoubleValue
-1.333

@<SCITEGIC>MOL_PROPERTY
VdW
SciTegic.value.DoubleValue
0.224

@<SCITEGIC>MOL_PROPERTY
VdW6
SciTegic.value.DoubleValue
-4.212

@<SCITEGIC>MOL_PROPERTY
VdW12
SciTegic.value.DoubleValue
4.436

@<SCITEGIC>MOL_PROPERTY
Bond
SciTegic.value.DoubleValue
0.044

@<SCITEGIC>MOL_PROPERTY
Angle
SciTegic.value.DoubleValue
2.230

@<SCITEGIC>MOL_PROPERTY
Pdih
SciTegic.value.DoubleValue
12.956

@<SCITEGIC>MOL_PROPERTY
Idih
SciTegic.value.DoubleValue
0.000

@<SCITEGIC>MOL_PROPERTY
Tether
SciTegic.value.DoubleValue
0.000

@<TRIPOS>MOLECULE
guest-s20_confgen4.mol2 : confsearch ligand conformer 895
          17          16           1
SMALL
USER_CHARGES
 
@<TRIPOS>ATOM
       1    C1      20.183690   21.322867   20.416593 C.2        1 MOL1         0.6132
       2    O1      19.996621   22.285601   21.134326 O.co2      1 MOL1        -0.6749
       3    O2      19.508437   21.074507   19.437087 O.co2      1 MOL1        -0.6749
       4    C2      21.345890   20.391284   20.746777 C.3        1 MOL1        -0.1955
       5    H1      22.140588   20.993447   21.202435 H          1 MOL1         0.0733
       6    H2      21.755569   20.017458   19.801189 H          1 MOL1         0.0733
       7    C3      21.009625   19.218122   21.656443 C.2        1 MOL1        -0.1395
       8    H3      21.853182   18.565952   21.879222 H          1 MOL1         0.0816
       9    C4      19.807539   18.946607   22.178234 C.2        1 MOL1        -0.1394
      10    H4      18.947766   19.583029   21.972101 H          1 MOL1         0.0816
      11    C5      19.525344   17.763789   23.077815 C.3        1 MOL1        -0.1826
      12    H5      18.623906   17.241003   22.730507 H          1 MOL1         0.0736
      13    H6      20.348781   17.037999   23.029499 H          1 MOL1         0.0736
      14    C6      19.327457   18.213894   24.538392 C.3        1 MOL1        -0.2882
      15    H7      19.121672   17.351941   25.186272 H          1 MOL1         0.0749
      16    H8      20.227026   18.717415   24.916329 H          1 MOL1         0.0749
      17    H9      18.484314   18.912158   24.622035 H          1 MOL1         0.0749
@<TRIPOS>BOND
    1     1     2    1
    2     1     3    2
    3     1     4    1
    4     4     5    1
    5     4     6    1
    6     4     7    1
    7     7     8    1
    8     7     9    2
    9     9    10    1
   10     9    11    1
   11    11    12    1
   12    11    13    1
   13    11    14    1
   14    14    15    1
   15    14    16    1
   16    14    17    1
@<TRIPOS>SUBSTRUCTURE
       1 MOL1            1 RESIDUE      1      MOL     
@<SCITEGIC>MOL_PROPERTY
VConf Rank
SciTegic.value.IntegerValue
895

@<SCITEGIC>MOL_PROPERTY
Conf_Id
SciTegic.value.IntegerValue
39

@<SCITEGIC>MOL_PROPERTY
Delta U+W
SciTegic.value.DoubleValue
-0.422

@<SCITEGIC>MOL_PROPERTY
U+W
SciTegic.value.DoubleValue
-49.849

@<SCITEGIC>MOL_PROPERTY
Grad RMS
SciTegic.value.DoubleValue
0.000000

@<SCITEGIC>MOL_PROPERTY
U
SciTegic.value.DoubleValue
14.465

@<SCITEGIC>MOL_PROPERTY
W
SciTegic.value.DoubleValue
-64.314

@<SCITEGIC>MOL_PROPERTY
W(PB)
SciTegic.value.DoubleValue
-66.406

@<SCITEGIC>MOL_PROPERTY
W(SA)
SciTegic.value.DoubleValue
2.093

@<SCITEGIC>MOL_PROPERTY
Valence
SciTegic.value.DoubleValue
14.072

@<SCITEGIC>MOL_PROPERTY
Coulomb
SciTegic.value.DoubleValue
-0.199

@<SCITEGIC>MOL_PROPERTY
VdW
SciTegic.value.DoubleValue
0.592

@<SCITEGIC>MOL_PROPERTY
VdW6
SciTegic.value.DoubleValue
-5.019

@<SCITEGIC>MOL_PROPERTY
VdW12
SciTegic.value.DoubleValue
5.611

@<SCITEGIC>MOL_PROPERTY
Bond
SciTegic.value.DoubleValue
0.085

@<SCITEGIC>MOL_PROPERTY
Angle
SciTegic.value.DoubleValue
2.748

@<SCITEGIC>MOL_PROPERTY
Pdih
SciTegic.value.DoubleValue
11.238

@<SCITEGIC>MOL_PROPERTY
Idih
SciTegic.value.DoubleValue
0.001

@<SCITEGIC>MOL_PROPERTY
Tether
SciTegic.value.DoubleValue
0.000

@<TRIPOS>MOLECULE
guest-s20_confgen4.mol2 : confsearch ligand conformer 896
          17          16           1
SMALL
USER_CHARGES
 
@<TRIPOS>ATOM
       1    C1      22.583523   19.075142   24.068800 C.2        1 MOL1         0.6132
       2    O1      23.078574   17.974090   24.208692 O.co2      1 MOL1        -0.6749
       3    O2      22.431980   19.864497   24.980267 O.co2      1 MOL1        -0.6749
       4    C2      22.134234   19.488256   22.673421 C.3        1 MOL1        -0.1955
       5    H1      22.893824   19.144937   21.961617 H          1 MOL1         0.0733
       6    H2      22.122980   20.583861   22.626920 H          1 MOL1         0.0733
       7    C3      20.779036   18.914552   22.305936 C.2        1 MOL1        -0.1395
       8    H3      20.751909   17.833264   22.174474 H          1 MOL1         0.0816
       9    C4      19.671716   19.645950   22.147422 C.2        1 MOL1        -0.1394
      10    H4      19.698908   20.726794   22.281947 H          1 MOL1         0.0816
      11    C5      18.320426   19.071714   21.784670 C.3        1 MOL1        -0.1826
      12    H5      18.317114   17.981396   21.920379 H          1 MOL1         0.0736
      13    H6      17.552961   19.475573   22.458785 H          1 MOL1         0.0736
      14    C6      17.950289   19.405278   20.326317 C.3        1 MOL1        -0.2882
      15    H7      18.691067   18.988803   19.631049 H          1 MOL1         0.0749
      16    H8      16.968629   18.986590   20.069157 H          1 MOL1         0.0749
      17    H9      17.908543   20.491411   20.171389 H          1 MOL1         0.0749
@<TRIPOS>BOND
    1     1     2    1
    2     1     3    2
    3     1     4    1
    4     4     5    1
    5     4     6    1
    6     4     7    1
    7     7     8    1
    8     7     9    2
    9     9    10    1
   10     9    11    1
   11    11    12    1
   12    11    13    1
   13    11    14    1
   14    14    15    1
   15    14    16    1
   16    14    17    1
@<TRIPOS>SUBSTRUCTURE
       1 MOL1            1 RESIDUE      1      MOL     
@<SCITEGIC>MOL_PROPERTY
VConf Rank
SciTegic.value.IntegerValue
896

@<SCITEGIC>MOL_PROPERTY
Conf_Id
SciTegic.value.IntegerValue
38

@<SCITEGIC>MOL_PROPERTY
Delta U+W
SciTegic.value.DoubleValue
0.000

@<SCITEGIC>MOL_PROPERTY
U+W
SciTegic.value.DoubleValue
-49.427

@<SCITEGIC>MOL_PROPERTY
Grad RMS
SciTegic.value.DoubleValue
0.000000

@<SCITEGIC>MOL_PROPERTY
U
SciTegic.value.DoubleValue
13.666

@<SCITEGIC>MOL_PROPERTY
W
SciTegic.value.DoubleValue
-63.093

@<SCITEGIC>MOL_PROPERTY
W(PB)
SciTegic.value.DoubleValue
-65.225

@<SCITEGIC>MOL_PROPERTY
W(SA)
SciTegic.value.DoubleValue
2.132

@<SCITEGIC>MOL_PROPERTY
Valence
SciTegic.value.DoubleValue
15.226

@<SCITEGIC>MOL_PROPERTY
Coulomb
SciTegic.value.DoubleValue
-1.822

@<SCITEGIC>MOL_PROPERTY
VdW
SciTegic.value.DoubleValue
0.261

@<SCITEGIC>MOL_PROPERTY
VdW6
SciTegic.value.DoubleValue
-4.165

@<SCITEGIC>MOL_PROPERTY
VdW12
SciTegic.value.DoubleValue
4.426

@<SCITEGIC>MOL_PROPERTY
Bond
SciTegic.value.DoubleValue
0.044

@<SCITEGIC>MOL_PROPERTY
Angle
SciTegic.value.DoubleValue
2.229

@<SCITEGIC>MOL_PROPERTY
Pdih
SciTegic.value.DoubleValue
12.953

@<SCITEGIC>MOL_PROPERTY
Idih
SciTegic.value.DoubleValue
0.000

@<SCITEGIC>MOL_PROPERTY
Tether
SciTegic.value.DoubleValue
0.000

@<TRIPOS>MOLECULE
guest-s20_confgen4.mol2 : confsearch ligand conformer 897
          17          16           1
SMALL
USER_CHARGES
 
@<TRIPOS>ATOM
       1    C1      21.834166   18.189836   24.513071 C.2        1 MOL1         0.6132
       2    O1      23.010783   18.338008   24.247677 O.co2      1 MOL1        -0.6749
       3    O2      21.396665   17.228057   25.113517 O.co2      1 MOL1        -0.6749
       4    C2      20.853472   19.269641   24.075048 C.3        1 MOL1        -0.1955
       5    H1      21.408235   20.207622   23.952283 H          1 MOL1         0.0733
       6    H2      20.138876   19.424339   24.891705 H          1 MOL1         0.0733
       7    C3      20.116763   18.902975   22.800858 C.2        1 MOL1        -0.1395
       8    H3      19.417614   18.072106   22.890572 H          1 MOL1         0.0816
       9    C4      20.284860   19.525747   21.630334 C.2        1 MOL1        -0.1394
      10    H4      20.986485   20.354438   21.540574 H          1 MOL1         0.0816
      11    C5      19.552298   19.156185   20.359863 C.3        1 MOL1        -0.1826
      12    H5      20.267746   19.071434   19.530715 H          1 MOL1         0.0736
      13    H6      19.073117   18.173005   20.464563 H          1 MOL1         0.0736
      14    C6      18.483374   20.209907   20.010392 C.3        1 MOL1        -0.2882
      15    H7      18.940304   21.197150   19.862090 H          1 MOL1         0.0749
      16    H8      17.955720   19.936705   19.087338 H          1 MOL1         0.0749
      17    H9      17.741049   20.293949   20.815060 H          1 MOL1         0.0749
@<TRIPOS>BOND
    1     1     2    1
    2     1     3    2
    3     1     4    1
    4     4     5    1
    5     4     6    1
    6     4     7    1
    7     7     8    1
    8     7     9    2
    9     9    10    1
   10     9    11    1
   11    11    12    1
   12    11    13    1
   13    11    14    1
   14    14    15    1
   15    14    16    1
   16    14    17    1
@<TRIPOS>SUBSTRUCTURE
       1 MOL1            1 RESIDUE      1      MOL     
@<SCITEGIC>MOL_PROPERTY
VConf Rank
SciTegic.value.IntegerValue
897

@<SCITEGIC>MOL_PROPERTY
Conf_Id
SciTegic.value.IntegerValue
35

@<SCITEGIC>MOL_PROPERTY
Delta U+W
SciTegic.value.DoubleValue
-0.102

@<SCITEGIC>MOL_PROPERTY
U+W
SciTegic.value.DoubleValue
-49.529

@<SCITEGIC>MOL_PROPERTY
Grad RMS
SciTegic.value.DoubleValue
0.000000

@<SCITEGIC>MOL_PROPERTY
U
SciTegic.value.DoubleValue
13.666

@<SCITEGIC>MOL_PROPERTY
W
SciTegic.value.DoubleValue
-63.195

@<SCITEGIC>MOL_PROPERTY
W(PB)
SciTegic.value.DoubleValue
-65.299

@<SCITEGIC>MOL_PROPERTY
W(SA)
SciTegic.value.DoubleValue
2.103

@<SCITEGIC>MOL_PROPERTY
Valence
SciTegic.value.DoubleValue
15.226

@<SCITEGIC>MOL_PROPERTY
Coulomb
SciTegic.value.DoubleValue
-1.822

@<SCITEGIC>MOL_PROPERTY
VdW
SciTegic.value.DoubleValue
0.261

@<SCITEGIC>MOL_PROPERTY
VdW6
SciTegic.value.DoubleValue
-4.165

@<SCITEGIC>MOL_PROPERTY
VdW12
SciTegic.value.DoubleValue
4.426

@<SCITEGIC>MOL_PROPERTY
Bond
SciTegic.value.DoubleValue
0.044

@<SCITEGIC>MOL_PROPERTY
Angle
SciTegic.value.DoubleValue
2.229

@<SCITEGIC>MOL_PROPERTY
Pdih
SciTegic.value.DoubleValue
12.953

@<SCITEGIC>MOL_PROPERTY
Idih
SciTegic.value.DoubleValue
0.000

@<SCITEGIC>MOL_PROPERTY
Tether
SciTegic.value.DoubleValue
0.000

@<TRIPOS>MOLECULE
guest-s20_confgen4.mol2 : confsearch ligand conformer 898
          17          16           1
SMALL
USER_CHARGES
 
@<TRIPOS>ATOM
       1    C1      19.133979   16.413143   22.757268 C.2        1 MOL1         0.6132
       2    O1      19.419735   15.656507   21.850176 O.co2      1 MOL1        -0.6749
       3    O2      19.242784   16.124408   23.932701 O.co2      1 MOL1        -0.6749
       4    C2      18.601784   17.794551   22.399254 C.3        1 MOL1        -0.1955
       5    H1      18.009896   18.163880   23.245334 H          1 MOL1         0.0733
       6    H2      17.914290   17.679498   21.553308 H          1 MOL1         0.0733
       7    C3      19.708716   18.768324   22.041663 C.2        1 MOL1        -0.1395
       8    H3      20.233369   18.539605   21.115641 H          1 MOL1         0.0816
       9    C4      20.040402   19.829254   22.788071 C.2        1 MOL1        -0.1394
      10    H4      19.495452   20.023787   23.711256 H          1 MOL1         0.0816
      11    C5      21.136143   20.839639   22.493007 C.3        1 MOL1        -0.1826
      12    H5      20.693092   21.843776   22.449171 H          1 MOL1         0.0736
      13    H6      21.836564   20.862866   23.338815 H          1 MOL1         0.0736
      14    C6      21.927744   20.581802   21.191886 C.3        1 MOL1        -0.2882
      15    H7      21.265523   20.605567   20.316500 H          1 MOL1         0.0749
      16    H8      22.698219   21.350983   21.051322 H          1 MOL1         0.0749
      17    H9      22.429171   19.605532   21.222846 H          1 MOL1         0.0749
@<TRIPOS>BOND
    1     1     2    1
    2     1     3    2
    3     1     4    1
    4     4     5    1
    5     4     6    1
    6     4     7    1
    7     7     8    1
    8     7     9    2
    9     9    10    1
   10     9    11    1
   11    11    12    1
   12    11    13    1
   13    11    14    1
   14    14    15    1
   15    14    16    1
   16    14    17    1
@<TRIPOS>SUBSTRUCTURE
       1 MOL1            1 RESIDUE      1      MOL     
@<SCITEGIC>MOL_PROPERTY
VConf Rank
SciTegic.value.IntegerValue
898

@<SCITEGIC>MOL_PROPERTY
Conf_Id
SciTegic.value.IntegerValue
19

@<SCITEGIC>MOL_PROPERTY
Delta U+W
SciTegic.value.DoubleValue
-0.496

@<SCITEGIC>MOL_PROPERTY
U+W
SciTegic.value.DoubleValue
-49.923

@<SCITEGIC>MOL_PROPERTY
Grad RMS
SciTegic.value.DoubleValue
0.000000

@<SCITEGIC>MOL_PROPERTY
U
SciTegic.value.DoubleValue
13.863

@<SCITEGIC>MOL_PROPERTY
W
SciTegic.value.DoubleValue
-63.786

@<SCITEGIC>MOL_PROPERTY
W(PB)
SciTegic.value.DoubleValue
-65.856

@<SCITEGIC>MOL_PROPERTY
W(SA)
SciTegic.value.DoubleValue
2.070

@<SCITEGIC>MOL_PROPERTY
Valence
SciTegic.value.DoubleValue
14.117

@<SCITEGIC>MOL_PROPERTY
Coulomb
SciTegic.value.DoubleValue
-1.228

@<SCITEGIC>MOL_PROPERTY
VdW
SciTegic.value.DoubleValue
0.974

@<SCITEGIC>MOL_PROPERTY
VdW6
SciTegic.value.DoubleValue
-4.885

@<SCITEGIC>MOL_PROPERTY
VdW12
SciTegic.value.DoubleValue
5.859

@<SCITEGIC>MOL_PROPERTY
Bond
SciTegic.value.DoubleValue
0.094

@<SCITEGIC>MOL_PROPERTY
Angle
SciTegic.value.DoubleValue
2.818

@<SCITEGIC>MOL_PROPERTY
Pdih
SciTegic.value.DoubleValue
11.205

@<SCITEGIC>MOL_PROPERTY
Idih
SciTegic.value.DoubleValue
0.000

@<SCITEGIC>MOL_PROPERTY
Tether
SciTegic.value.DoubleValue
0.000

@<TRIPOS>MOLECULE
guest-s20_confgen4.mol2 : confsearch ligand conformer 899
          17          16           1
SMALL
USER_CHARGES
 
@<TRIPOS>ATOM
       1    C1      17.636158   19.529081   20.781629 C.2        1 MOL1         0.6132
       2    O1      18.013111   20.078537   19.765353 O.co2      1 MOL1        -0.6749
       3    O2      16.830487   18.619283   20.794460 O.co2      1 MOL1        -0.6749
       4    C2      18.194315   20.012390   22.113808 C.3        1 MOL1        -0.1955
       5    H1      17.366245   20.045707   22.831217 H          1 MOL1         0.0733
       6    H2      18.548331   21.042215   21.984244 H          1 MOL1         0.0733
       7    C3      19.302056   19.118596   22.638028 C.2        1 MOL1        -0.1395
       8    H3      18.990150   18.118442   22.937395 H          1 MOL1         0.0816
       9    C4      20.582812   19.488007   22.735066 C.2        1 MOL1        -0.1394
      10    H4      20.895002   20.486495   22.430734 H          1 MOL1         0.0816
      11    C5      21.686348   18.594212   23.255332 C.3        1 MOL1        -0.1826
      12    H5      22.285472   19.138406   23.997913 H          1 MOL1         0.0736
      13    H6      21.262995   17.720862   23.770346 H          1 MOL1         0.0736
      14    C6      22.598787   18.117034   22.108708 C.3        1 MOL1        -0.2882
      15    H7      23.066903   18.969905   21.599881 H          1 MOL1         0.0749
      16    H8      23.397431   17.468542   22.491713 H          1 MOL1         0.0749
      17    H9      22.024975   17.548296   21.365096 H          1 MOL1         0.0749
@<TRIPOS>BOND
    1     1     2    1
    2     1     3    2
    3     1     4    1
    4     4     5    1
    5     4     6    1
    6     4     7    1
    7     7     8    1
    8     7     9    2
    9     9    10    1
   10     9    11    1
   11    11    12    1
   12    11    13    1
   13    11    14    1
   14    14    15    1
   15    14    16    1
   16    14    17    1
@<TRIPOS>SUBSTRUCTURE
       1 MOL1            1 RESIDUE      1      MOL     
@<SCITEGIC>MOL_PROPERTY
VConf Rank
SciTegic.value.IntegerValue
899

@<SCITEGIC>MOL_PROPERTY
Conf_Id
SciTegic.value.IntegerValue
7

@<SCITEGIC>MOL_PROPERTY
Delta U+W
SciTegic.value.DoubleValue
-0.041

@<SCITEGIC>MOL_PROPERTY
U+W
SciTegic.value.DoubleValue
-49.468

@<SCITEGIC>MOL_PROPERTY
Grad RMS
SciTegic.value.DoubleValue
0.000000

@<SCITEGIC>MOL_PROPERTY
U
SciTegic.value.DoubleValue
14.121

@<SCITEGIC>MOL_PROPERTY
W
SciTegic.value.DoubleValue
-63.589

@<SCITEGIC>MOL_PROPERTY
W(PB)
SciTegic.value.DoubleValue
-65.660

@<SCITEGIC>MOL_PROPERTY
W(SA)
SciTegic.value.DoubleValue
2.071

@<SCITEGIC>MOL_PROPERTY
Valence
SciTegic.value.DoubleValue
15.230

@<SCITEGIC>MOL_PROPERTY
Coulomb
SciTegic.value.DoubleValue
-1.333

@<SCITEGIC>MOL_PROPERTY
VdW
SciTegic.value.DoubleValue
0.224

@<SCITEGIC>MOL_PROPERTY
VdW6
SciTegic.value.DoubleValue
-4.212

@<SCITEGIC>MOL_PROPERTY
VdW12
SciTegic.value.DoubleValue
4.436

@<SCITEGIC>MOL_PROPERTY
Bond
SciTegic.value.DoubleValue
0.044

@<SCITEGIC>MOL_PROPERTY
Angle
SciTegic.value.DoubleValue
2.230

@<SCITEGIC>MOL_PROPERTY
Pdih
SciTegic.value.DoubleValue
12.956

@<SCITEGIC>MOL_PROPERTY
Idih
SciTegic.value.DoubleValue
0.000

@<SCITEGIC>MOL_PROPERTY
Tether
SciTegic.value.DoubleValue
0.000

@<TRIPOS>MOLECULE
guest-s20_confgen4.mol2 : confsearch ligand conformer 900
          17          16           1
SMALL
USER_CHARGES
 
@<TRIPOS>ATOM
       1    C1      19.150263   18.683150   19.752315 C.2        1 MOL1         0.6132
       2    O1      19.266166   17.473460   19.737839 O.co2      1 MOL1        -0.6749
       3    O2      19.613340   19.412146   18.897210 O.co2      1 MOL1        -0.6749
       4    C2      18.357105   19.318763   20.890064 C.3        1 MOL1        -0.1955
       5    H1      17.572751   18.613353   21.188315 H          1 MOL1         0.0733
       6    H2      17.836689   20.195618   20.487557 H          1 MOL1         0.0733
       7    C3      19.170022   19.723975   22.111476 C.2        1 MOL1        -0.1395
       8    H3      18.584585   20.175612   22.911370 H          1 MOL1         0.0816
       9    C4      20.490519   19.569270   22.264282 C.2        1 MOL1        -0.1394
      10    H4      21.098939   19.119792   21.480363 H          1 MOL1         0.0816
      11    C5      21.252445   19.991444   23.500882 C.3        1 MOL1        -0.1826
      12    H5      22.143993   20.563076   23.209509 H          1 MOL1         0.0736
      13    H6      20.639315   20.658893   24.121958 H          1 MOL1         0.0736
      14    C6      21.677249   18.766763   24.334390 C.3        1 MOL1        -0.2882
      15    H7      22.230801   19.078853   25.229510 H          1 MOL1         0.0749
      16    H8      20.799330   18.192907   24.659260 H          1 MOL1         0.0749
      17    H9      22.323893   18.099998   23.748956 H          1 MOL1         0.0749
@<TRIPOS>BOND
    1     1     2    1
    2     1     3    2
    3     1     4    1
    4     4     5    1
    5     4     6    1
    6     4     7    1
    7     7     8    1
    8     7     9    2
    9     9    10    1
   10     9    11    1
   11    11    12    1
   12    11    13    1
   13    11    14    1
   14    14    15    1
   15    14    16    1
   16    14    17    1
@<TRIPOS>SUBSTRUCTURE
       1 MOL1            1 RESIDUE      1      MOL     
@<SCITEGIC>MOL_PROPERTY
VConf Rank
SciTegic.value.IntegerValue
900

@<SCITEGIC>MOL_PROPERTY
Conf_Id
SciTegic.value.IntegerValue
39

@<SCITEGIC>MOL_PROPERTY
Delta U+W
SciTegic.value.DoubleValue
-0.422

@<SCITEGIC>MOL_PROPERTY
U+W
SciTegic.value.DoubleValue
-49.849

@<SCITEGIC>MOL_PROPERTY
Grad RMS
SciTegic.value.DoubleValue
0.000000

@<SCITEGIC>MOL_PROPERTY
U
SciTegic.value.DoubleValue
14.465

@<SCITEGIC>MOL_PROPERTY
W
SciTegic.value.DoubleValue
-64.314

@<SCITEGIC>MOL_PROPERTY
W(PB)
SciTegic.value.DoubleValue
-66.406

@<SCITEGIC>MOL_PROPERTY
W(SA)
SciTegic.value.DoubleValue
2.093

@<SCITEGIC>MOL_PROPERTY
Valence
SciTegic.value.DoubleValue
14.072

@<SCITEGIC>MOL_PROPERTY
Coulomb
SciTegic.value.DoubleValue
-0.199

@<SCITEGIC>MOL_PROPERTY
VdW
SciTegic.value.DoubleValue
0.592

@<SCITEGIC>MOL_PROPERTY
VdW6
SciTegic.value.DoubleValue
-5.019

@<SCITEGIC>MOL_PROPERTY
VdW12
SciTegic.value.DoubleValue
5.611

@<SCITEGIC>MOL_PROPERTY
Bond
SciTegic.value.DoubleValue
0.085

@<SCITEGIC>MOL_PROPERTY
Angle
SciTegic.value.DoubleValue
2.748

@<SCITEGIC>MOL_PROPERTY
Pdih
SciTegic.value.DoubleValue
11.238

@<SCITEGIC>MOL_PROPERTY
Idih
SciTegic.value.DoubleValue
0.001

@<SCITEGIC>MOL_PROPERTY
Tether
SciTegic.value.DoubleValue
0.000

@<TRIPOS>MOLECULE
guest-s20_confgen4.mol2 : confsearch ligand conformer 901
          17          16           1
SMALL
USER_CHARGES
 
@<TRIPOS>ATOM
       1    C1      19.422474   18.853251   25.166196 C.2        1 MOL1         0.6132
       2    O1      19.248000   19.858517   25.826469 O.co2      1 MOL1        -0.6749
       3    O2      20.015435   17.874767   25.575810 O.co2      1 MOL1        -0.6749
       4    C2      18.861967   18.817905   23.750503 C.3        1 MOL1        -0.1955
       5    H1      17.869594   19.282951   23.771455 H          1 MOL1         0.0733
       6    H2      18.718680   17.769001   23.464307 H          1 MOL1         0.0733
       7    C3      19.752823   19.536257   22.754967 C.2        1 MOL1        -0.1395
       8    H3      19.814231   20.616785   22.881022 H          1 MOL1         0.0816
       9    C4      20.433410   18.926533   21.779638 C.2        1 MOL1        -0.1394
      10    H4      20.373897   17.845684   21.656010 H          1 MOL1         0.0816
      11    C5      21.324216   19.644033   20.790205 C.3        1 MOL1        -0.1826
      12    H5      21.533428   20.666843   21.132712 H          1 MOL1         0.0736
      13    H6      22.292580   19.129987   20.722667 H          1 MOL1         0.0736
      14    C6      20.672154   19.696801   19.394823 C.3        1 MOL1        -0.2882
      15    H7      19.712870   20.229665   19.432659 H          1 MOL1         0.0749
      16    H8      21.323400   20.217964   18.681132 H          1 MOL1         0.0749
      17    H9      20.486553   18.685166   19.010666 H          1 MOL1         0.0749
@<TRIPOS>BOND
    1     1     2    1
    2     1     3    2
    3     1     4    1
    4     4     5    1
    5     4     6    1
    6     4     7    1
    7     7     8    1
    8     7     9    2
    9     9    10    1
   10     9    11    1
   11    11    12    1
   12    11    13    1
   13    11    14    1
   14    14    15    1
   15    14    16    1
   16    14    17    1
@<TRIPOS>SUBSTRUCTURE
       1 MOL1            1 RESIDUE      1      MOL     
@<SCITEGIC>MOL_PROPERTY
VConf Rank
SciTegic.value.IntegerValue
901

@<SCITEGIC>MOL_PROPERTY
Conf_Id
SciTegic.value.IntegerValue
38

@<SCITEGIC>MOL_PROPERTY
Delta U+W
SciTegic.value.DoubleValue
0.000

@<SCITEGIC>MOL_PROPERTY
U+W
SciTegic.value.DoubleValue
-49.427

@<SCITEGIC>MOL_PROPERTY
Grad RMS
SciTegic.value.DoubleValue
0.000000

@<SCITEGIC>MOL_PROPERTY
U
SciTegic.value.DoubleValue
13.666

@<SCITEGIC>MOL_PROPERTY
W
SciTegic.value.DoubleValue
-63.093

@<SCITEGIC>MOL_PROPERTY
W(PB)
SciTegic.value.DoubleValue
-65.225

@<SCITEGIC>MOL_PROPERTY
W(SA)
SciTegic.value.DoubleValue
2.132

@<SCITEGIC>MOL_PROPERTY
Valence
SciTegic.value.DoubleValue
15.226

@<SCITEGIC>MOL_PROPERTY
Coulomb
SciTegic.value.DoubleValue
-1.822

@<SCITEGIC>MOL_PROPERTY
VdW
SciTegic.value.DoubleValue
0.261

@<SCITEGIC>MOL_PROPERTY
VdW6
SciTegic.value.DoubleValue
-4.165

@<SCITEGIC>MOL_PROPERTY
VdW12
SciTegic.value.DoubleValue
4.426

@<SCITEGIC>MOL_PROPERTY
Bond
SciTegic.value.DoubleValue
0.044

@<SCITEGIC>MOL_PROPERTY
Angle
SciTegic.value.DoubleValue
2.229

@<SCITEGIC>MOL_PROPERTY
Pdih
SciTegic.value.DoubleValue
12.953

@<SCITEGIC>MOL_PROPERTY
Idih
SciTegic.value.DoubleValue
0.000

@<SCITEGIC>MOL_PROPERTY
Tether
SciTegic.value.DoubleValue
0.000

@<TRIPOS>MOLECULE
guest-s20_confgen4.mol2 : confsearch ligand conformer 902
          17          16           1
SMALL
USER_CHARGES
 
@<TRIPOS>ATOM
       1    C1      17.977691   16.922827   22.375748 C.2        1 MOL1         0.6132
       2    O1      18.395287   16.102392   23.169044 O.co2      1 MOL1        -0.6749
       3    O2      17.357624   16.631884   21.371840 O.co2      1 MOL1        -0.6749
       4    C2      18.239855   18.396757   22.655754 C.3        1 MOL1        -0.1955
       5    H1      18.403774   18.517422   23.733349 H          1 MOL1         0.0733
       6    H2      17.328633   18.952405   22.405878 H          1 MOL1         0.0733
       7    C3      19.414117   18.938681   21.863181 C.2        1 MOL1        -0.1395
       8    H3      19.259500   19.000570   20.786396 H          1 MOL1         0.0816
       9    C4      20.573917   19.321552   22.405861 C.2        1 MOL1        -0.1394
      10    H4      20.728994   19.256414   23.482323 H          1 MOL1         0.0816
      11    C5      21.745163   19.857976   21.613553 C.3        1 MOL1        -0.1826
      12    H5      22.666400   19.344197   21.919963 H          1 MOL1         0.0736
      13    H6      21.611007   19.652738   20.542526 H          1 MOL1         0.0736
      14    C6      21.908572   21.375689   21.825464 C.3        1 MOL1        -0.2882
      15    H7      22.082727   21.606820   22.884557 H          1 MOL1         0.0749
      16    H8      22.760324   21.759006   21.248687 H          1 MOL1         0.0749
      17    H9      21.007941   21.913771   21.501534 H          1 MOL1         0.0749
@<TRIPOS>BOND
    1     1     2    1
    2     1     3    2
    3     1     4    1
    4     4     5    1
    5     4     6    1
    6     4     7    1
    7     7     8    1
    8     7     9    2
    9     9    10    1
   10     9    11    1
   11    11    12    1
   12    11    13    1
   13    11    14    1
   14    14    15    1
   15    14    16    1
   16    14    17    1
@<TRIPOS>SUBSTRUCTURE
       1 MOL1            1 RESIDUE      1      MOL     
@<SCITEGIC>MOL_PROPERTY
VConf Rank
SciTegic.value.IntegerValue
902

@<SCITEGIC>MOL_PROPERTY
Conf_Id
SciTegic.value.IntegerValue
35

@<SCITEGIC>MOL_PROPERTY
Delta U+W
SciTegic.value.DoubleValue
-0.102

@<SCITEGIC>MOL_PROPERTY
U+W
SciTegic.value.DoubleValue
-49.529

@<SCITEGIC>MOL_PROPERTY
Grad RMS
SciTegic.value.DoubleValue
0.000000

@<SCITEGIC>MOL_PROPERTY
U
SciTegic.value.DoubleValue
13.666

@<SCITEGIC>MOL_PROPERTY
W
SciTegic.value.DoubleValue
-63.195

@<SCITEGIC>MOL_PROPERTY
W(PB)
SciTegic.value.DoubleValue
-65.299

@<SCITEGIC>MOL_PROPERTY
W(SA)
SciTegic.value.DoubleValue
2.103

@<SCITEGIC>MOL_PROPERTY
Valence
SciTegic.value.DoubleValue
15.226

@<SCITEGIC>MOL_PROPERTY
Coulomb
SciTegic.value.DoubleValue
-1.822

@<SCITEGIC>MOL_PROPERTY
VdW
SciTegic.value.DoubleValue
0.261

@<SCITEGIC>MOL_PROPERTY
VdW6
SciTegic.value.DoubleValue
-4.165

@<SCITEGIC>MOL_PROPERTY
VdW12
SciTegic.value.DoubleValue
4.426

@<SCITEGIC>MOL_PROPERTY
Bond
SciTegic.value.DoubleValue
0.044

@<SCITEGIC>MOL_PROPERTY
Angle
SciTegic.value.DoubleValue
2.229

@<SCITEGIC>MOL_PROPERTY
Pdih
SciTegic.value.DoubleValue
12.953

@<SCITEGIC>MOL_PROPERTY
Idih
SciTegic.value.DoubleValue
0.000

@<SCITEGIC>MOL_PROPERTY
Tether
SciTegic.value.DoubleValue
0.000

@<TRIPOS>MOLECULE
guest-s20_confgen4.mol2 : confsearch ligand conformer 903
          17          16           1
SMALL
USER_CHARGES
 
@<TRIPOS>ATOM
       1    C1      19.630351   17.966562   19.543976 C.2        1 MOL1         0.6132
       2    O1      20.088508   16.843934   19.461699 O.co2      1 MOL1        -0.6749
       3    O2      18.511651   18.264551   19.174434 O.co2      1 MOL1        -0.6749
       4    C2      20.511214   19.060052   20.133936 C.3        1 MOL1        -0.1955
       5    H1      20.157584   20.026684   19.755577 H          1 MOL1         0.0733
       6    H2      21.526813   18.916792   19.747226 H          1 MOL1         0.0733
       7    C3      20.524145   19.039774   21.650784 C.2        1 MOL1        -0.1395
       8    H3      21.010568   18.170214   22.089357 H          1 MOL1         0.0816
       9    C4      19.983855   19.996968   22.415361 C.2        1 MOL1        -0.1394
      10    H4      19.501327   20.850615   21.940452 H          1 MOL1         0.0816
      11    C5      19.957533   20.038589   23.933967 C.3        1 MOL1        -0.1826
      12    H5      20.440290   20.964825   24.273875 H          1 MOL1         0.0736
      13    H6      18.914295   20.108958   24.270454 H          1 MOL1         0.0736
      14    C6      20.630368   18.835502   24.631035 C.3        1 MOL1        -0.2882
      15    H7      21.691867   18.765880   24.359418 H          1 MOL1         0.0749
      16    H8      20.568832   18.939145   25.722135 H          1 MOL1         0.0749
      17    H9      20.137664   17.894078   24.354534 H          1 MOL1         0.0749
@<TRIPOS>BOND
    1     1     2    1
    2     1     3    2
    3     1     4    1
    4     4     5    1
    5     4     6    1
    6     4     7    1
    7     7     8    1
    8     7     9    2
    9     9    10    1
   10     9    11    1
   11    11    12    1
   12    11    13    1
   13    11    14    1
   14    14    15    1
   15    14    16    1
   16    14    17    1
@<TRIPOS>SUBSTRUCTURE
       1 MOL1            1 RESIDUE      1      MOL     
@<SCITEGIC>MOL_PROPERTY
VConf Rank
SciTegic.value.IntegerValue
903

@<SCITEGIC>MOL_PROPERTY
Conf_Id
SciTegic.value.IntegerValue
19

@<SCITEGIC>MOL_PROPERTY
Delta U+W
SciTegic.value.DoubleValue
-0.496

@<SCITEGIC>MOL_PROPERTY
U+W
SciTegic.value.DoubleValue
-49.923

@<SCITEGIC>MOL_PROPERTY
Grad RMS
SciTegic.value.DoubleValue
0.000000

@<SCITEGIC>MOL_PROPERTY
U
SciTegic.value.DoubleValue
13.863

@<SCITEGIC>MOL_PROPERTY
W
SciTegic.value.DoubleValue
-63.786

@<SCITEGIC>MOL_PROPERTY
W(PB)
SciTegic.value.DoubleValue
-65.856

@<SCITEGIC>MOL_PROPERTY
W(SA)
SciTegic.value.DoubleValue
2.070

@<SCITEGIC>MOL_PROPERTY
Valence
SciTegic.value.DoubleValue
14.117

@<SCITEGIC>MOL_PROPERTY
Coulomb
SciTegic.value.DoubleValue
-1.228

@<SCITEGIC>MOL_PROPERTY
VdW
SciTegic.value.DoubleValue
0.974

@<SCITEGIC>MOL_PROPERTY
VdW6
SciTegic.value.DoubleValue
-4.885

@<SCITEGIC>MOL_PROPERTY
VdW12
SciTegic.value.DoubleValue
5.859

@<SCITEGIC>MOL_PROPERTY
Bond
SciTegic.value.DoubleValue
0.094

@<SCITEGIC>MOL_PROPERTY
Angle
SciTegic.value.DoubleValue
2.818

@<SCITEGIC>MOL_PROPERTY
Pdih
SciTegic.value.DoubleValue
11.205

@<SCITEGIC>MOL_PROPERTY
Idih
SciTegic.value.DoubleValue
0.000

@<SCITEGIC>MOL_PROPERTY
Tether
SciTegic.value.DoubleValue
0.000

@<TRIPOS>MOLECULE
guest-s20_confgen4.mol2 : confsearch ligand conformer 904
          17          16           1
SMALL
USER_CHARGES
 
@<TRIPOS>ATOM
       1    C1      20.248106   21.998273   22.146075 C.2        1 MOL1         0.6132
       2    O1      19.081043   22.288761   21.971737 O.co2      1 MOL1        -0.6749
       3    O2      20.958578   22.537029   22.971892 O.co2      1 MOL1        -0.6749
       4    C2      20.858761   20.907356   21.276117 C.3        1 MOL1        -0.1955
       5    H1      21.861473   21.237118   20.980633 H          1 MOL1         0.0733
       6    H2      20.263867   20.827087   20.358341 H          1 MOL1         0.0733
       7    C3      20.939092   19.571699   21.990491 C.2        1 MOL1        -0.1395
       8    H3      21.636811   19.532696   22.826484 H          1 MOL1         0.0816
       9    C4      20.218292   18.496820   21.656875 C.2        1 MOL1        -0.1394
      10    H4      19.516987   18.537917   20.824084 H          1 MOL1         0.0816
      11    C5      20.297762   17.166758   22.372384 C.3        1 MOL1        -0.1826
      12    H5      20.402600   16.356320   21.638407 H          1 MOL1         0.0736
      13    H6      21.188669   17.128199   23.014261 H          1 MOL1         0.0736
      14    C6      19.040647   16.923860   23.230087 C.3        1 MOL1        -0.2882
      15    H7      18.136550   16.918518   22.607186 H          1 MOL1         0.0749
      16    H8      19.103764   15.957671   23.747350 H          1 MOL1         0.0749
      17    H9      18.928574   17.709928   23.988517 H          1 MOL1         0.0749
@<TRIPOS>BOND
    1     1     2    1
    2     1     3    2
    3     1     4    1
    4     4     5    1
    5     4     6    1
    6     4     7    1
    7     7     8    1
    8     7     9    2
    9     9    10    1
   10     9    11    1
   11    11    12    1
   12    11    13    1
   13    11    14    1
   14    14    15    1
   15    14    16    1
   16    14    17    1
@<TRIPOS>SUBSTRUCTURE
       1 MOL1            1 RESIDUE      1      MOL     
@<SCITEGIC>MOL_PROPERTY
VConf Rank
SciTegic.value.IntegerValue
904

@<SCITEGIC>MOL_PROPERTY
Conf_Id
SciTegic.value.IntegerValue
7

@<SCITEGIC>MOL_PROPERTY
Delta U+W
SciTegic.value.DoubleValue
-0.041

@<SCITEGIC>MOL_PROPERTY
U+W
SciTegic.value.DoubleValue
-49.468

@<SCITEGIC>MOL_PROPERTY
Grad RMS
SciTegic.value.DoubleValue
0.000000

@<SCITEGIC>MOL_PROPERTY
U
SciTegic.value.DoubleValue
14.121

@<SCITEGIC>MOL_PROPERTY
W
SciTegic.value.DoubleValue
-63.589

@<SCITEGIC>MOL_PROPERTY
W(PB)
SciTegic.value.DoubleValue
-65.660

@<SCITEGIC>MOL_PROPERTY
W(SA)
SciTegic.value.DoubleValue
2.071

@<SCITEGIC>MOL_PROPERTY
Valence
SciTegic.value.DoubleValue
15.230

@<SCITEGIC>MOL_PROPERTY
Coulomb
SciTegic.value.DoubleValue
-1.333

@<SCITEGIC>MOL_PROPERTY
VdW
SciTegic.value.DoubleValue
0.224

@<SCITEGIC>MOL_PROPERTY
VdW6
SciTegic.value.DoubleValue
-4.212

@<SCITEGIC>MOL_PROPERTY
VdW12
SciTegic.value.DoubleValue
4.436

@<SCITEGIC>MOL_PROPERTY
Bond
SciTegic.value.DoubleValue
0.044

@<SCITEGIC>MOL_PROPERTY
Angle
SciTegic.value.DoubleValue
2.230

@<SCITEGIC>MOL_PROPERTY
Pdih
SciTegic.value.DoubleValue
12.956

@<SCITEGIC>MOL_PROPERTY
Idih
SciTegic.value.DoubleValue
0.000

@<SCITEGIC>MOL_PROPERTY
Tether
SciTegic.value.DoubleValue
0.000

@<TRIPOS>MOLECULE
guest-s20_confgen4.mol2 : confsearch ligand conformer 905
          17          16           1
SMALL
USER_CHARGES
 
@<TRIPOS>ATOM
       1    C1      20.867358   20.036966   24.815485 C.2        1 MOL1         0.6132
       2    O1      20.999547   18.954203   25.351343 O.co2      1 MOL1        -0.6749
       3    O2      20.156368   20.920187   25.253089 O.co2      1 MOL1        -0.6749
       4    C2      21.657847   20.312487   23.540028 C.3        1 MOL1        -0.1955
       5    H1      22.601939   19.758901   23.603288 H          1 MOL1         0.0733
       6    H2      21.930660   21.374223   23.536912 H          1 MOL1         0.0733
       7    C3      20.948452   19.964104   22.239157 C.2        1 MOL1        -0.1395
       8    H3      21.530209   20.168693   21.341244 H          1 MOL1         0.0816
       9    C4      19.719310   19.446659   22.127549 C.2        1 MOL1        -0.1394
      10    H4      19.116936   19.231782   23.009425 H          1 MOL1         0.0816
      11    C5      19.057931   19.119125   20.807231 C.3        1 MOL1        -0.1826
      12    H5      18.038035   19.526701   20.792638 H          1 MOL1         0.0736
      13    H6      19.598889   19.593993   19.977160 H          1 MOL1         0.0736
      14    C6      19.005821   17.596207   20.576918 C.3        1 MOL1        -0.2882
      15    H7      18.523787   17.364328   19.618307 H          1 MOL1         0.0749
      16    H8      20.017386   17.169470   20.561911 H          1 MOL1         0.0749
      17    H9      18.436933   17.099043   21.373569 H          1 MOL1         0.0749
@<TRIPOS>BOND
    1     1     2    1
    2     1     3    2
    3     1     4    1
    4     4     5    1
    5     4     6    1
    6     4     7    1
    7     7     8    1
    8     7     9    2
    9     9    10    1
   10     9    11    1
   11    11    12    1
   12    11    13    1
   13    11    14    1
   14    14    15    1
   15    14    16    1
   16    14    17    1
@<TRIPOS>SUBSTRUCTURE
       1 MOL1            1 RESIDUE      1      MOL     
@<SCITEGIC>MOL_PROPERTY
VConf Rank
SciTegic.value.IntegerValue
905

@<SCITEGIC>MOL_PROPERTY
Conf_Id
SciTegic.value.IntegerValue
39

@<SCITEGIC>MOL_PROPERTY
Delta U+W
SciTegic.value.DoubleValue
-0.422

@<SCITEGIC>MOL_PROPERTY
U+W
SciTegic.value.DoubleValue
-49.849

@<SCITEGIC>MOL_PROPERTY
Grad RMS
SciTegic.value.DoubleValue
0.000000

@<SCITEGIC>MOL_PROPERTY
U
SciTegic.value.DoubleValue
14.465

@<SCITEGIC>MOL_PROPERTY
W
SciTegic.value.DoubleValue
-64.314

@<SCITEGIC>MOL_PROPERTY
W(PB)
SciTegic.value.DoubleValue
-66.406

@<SCITEGIC>MOL_PROPERTY
W(SA)
SciTegic.value.DoubleValue
2.093

@<SCITEGIC>MOL_PROPERTY
Valence
SciTegic.value.DoubleValue
14.072

@<SCITEGIC>MOL_PROPERTY
Coulomb
SciTegic.value.DoubleValue
-0.199

@<SCITEGIC>MOL_PROPERTY
VdW
SciTegic.value.DoubleValue
0.592

@<SCITEGIC>MOL_PROPERTY
VdW6
SciTegic.value.DoubleValue
-5.019

@<SCITEGIC>MOL_PROPERTY
VdW12
SciTegic.value.DoubleValue
5.611

@<SCITEGIC>MOL_PROPERTY
Bond
SciTegic.value.DoubleValue
0.085

@<SCITEGIC>MOL_PROPERTY
Angle
SciTegic.value.DoubleValue
2.748

@<SCITEGIC>MOL_PROPERTY
Pdih
SciTegic.value.DoubleValue
11.238

@<SCITEGIC>MOL_PROPERTY
Idih
SciTegic.value.DoubleValue
0.001

@<SCITEGIC>MOL_PROPERTY
Tether
SciTegic.value.DoubleValue
0.000

@<TRIPOS>MOLECULE
guest-s20_confgen4.mol2 : confsearch ligand conformer 906
          17          16           1
SMALL
USER_CHARGES
 
@<TRIPOS>ATOM
       1    C1      19.997407   16.986202   24.289863 C.2        1 MOL1         0.6132
       2    O1      19.952068   15.843783   23.877814 O.co2      1 MOL1        -0.6749
       3    O2      19.360835   17.381171   25.246730 O.co2      1 MOL1        -0.6749
       4    C2      20.906237   17.973605   23.569679 C.3        1 MOL1        -0.1955
       5    H1      21.838637   17.452503   23.323524 H          1 MOL1         0.0733
       6    H2      21.163237   18.777236   24.270228 H          1 MOL1         0.0733
       7    C3      20.273691   18.532575   22.309448 C.2        1 MOL1        -0.1395
       8    H3      20.135809   17.815424   21.500817 H          1 MOL1         0.0816
       9    C4      19.895355   19.805663   22.159991 C.2        1 MOL1        -0.1394
      10    H4      20.030794   20.521564   22.970054 H          1 MOL1         0.0816
      11    C5      19.261314   20.360389   20.903968 C.3        1 MOL1        -0.1826
      12    H5      18.927232   19.543816   20.249125 H          1 MOL1         0.0736
      13    H6      18.366226   20.940740   21.165777 H          1 MOL1         0.0736
      14    C6      20.249486   21.258949   20.135093 C.3        1 MOL1        -0.2882
      15    H7      21.142698   20.692715   19.839879 H          1 MOL1         0.0749
      16    H8      19.783598   21.658989   19.225147 H          1 MOL1         0.0749
      17    H9      20.571087   22.106784   20.754105 H          1 MOL1         0.0749
@<TRIPOS>BOND
    1     1     2    1
    2     1     3    2
    3     1     4    1
    4     4     5    1
    5     4     6    1
    6     4     7    1
    7     7     8    1
    8     7     9    2
    9     9    10    1
   10     9    11    1
   11    11    12    1
   12    11    13    1
   13    11    14    1
   14    14    15    1
   15    14    16    1
   16    14    17    1
@<TRIPOS>SUBSTRUCTURE
       1 MOL1            1 RESIDUE      1      MOL     
@<SCITEGIC>MOL_PROPERTY
VConf Rank
SciTegic.value.IntegerValue
906

@<SCITEGIC>MOL_PROPERTY
Conf_Id
SciTegic.value.IntegerValue
38

@<SCITEGIC>MOL_PROPERTY
Delta U+W
SciTegic.value.DoubleValue
0.000

@<SCITEGIC>MOL_PROPERTY
U+W
SciTegic.value.DoubleValue
-49.427

@<SCITEGIC>MOL_PROPERTY
Grad RMS
SciTegic.value.DoubleValue
0.000000

@<SCITEGIC>MOL_PROPERTY
U
SciTegic.value.DoubleValue
13.666

@<SCITEGIC>MOL_PROPERTY
W
SciTegic.value.DoubleValue
-63.093

@<SCITEGIC>MOL_PROPERTY
W(PB)
SciTegic.value.DoubleValue
-65.225

@<SCITEGIC>MOL_PROPERTY
W(SA)
SciTegic.value.DoubleValue
2.132

@<SCITEGIC>MOL_PROPERTY
Valence
SciTegic.value.DoubleValue
15.226

@<SCITEGIC>MOL_PROPERTY
Coulomb
SciTegic.value.DoubleValue
-1.822

@<SCITEGIC>MOL_PROPERTY
VdW
SciTegic.value.DoubleValue
0.261

@<SCITEGIC>MOL_PROPERTY
VdW6
SciTegic.value.DoubleValue
-4.165

@<SCITEGIC>MOL_PROPERTY
VdW12
SciTegic.value.DoubleValue
4.426

@<SCITEGIC>MOL_PROPERTY
Bond
SciTegic.value.DoubleValue
0.044

@<SCITEGIC>MOL_PROPERTY
Angle
SciTegic.value.DoubleValue
2.229

@<SCITEGIC>MOL_PROPERTY
Pdih
SciTegic.value.DoubleValue
12.953

@<SCITEGIC>MOL_PROPERTY
Idih
SciTegic.value.DoubleValue
0.000

@<SCITEGIC>MOL_PROPERTY
Tether
SciTegic.value.DoubleValue
0.000

@<TRIPOS>MOLECULE
guest-s20_confgen4.mol2 : confsearch ligand conformer 907
          17          16           1
SMALL
USER_CHARGES
 
@<TRIPOS>ATOM
       1    C1      20.506563   21.179359   19.618007 C.2        1 MOL1         0.6132
       2    O1      21.586579   20.943343   19.113348 O.co2      1 MOL1        -0.6749
       3    O2      20.035728   22.296272   19.706216 O.co2      1 MOL1        -0.6749
       4    C2      19.694813   20.012767   20.165481 C.3        1 MOL1        -0.1955
       5    H1      20.019000   19.098879   19.653278 H          1 MOL1         0.0733
       6    H2      18.645844   20.177779   19.893558 H          1 MOL1         0.0733
       7    C3      19.826422   19.868764   21.669704 C.2        1 MOL1        -0.1395
       8    H3      19.377336   20.670804   22.254730 H          1 MOL1         0.0816
       9    C4      20.442978   18.849441   22.275566 C.2        1 MOL1        -0.1394
      10    H4      20.894596   18.049403   21.689869 H          1 MOL1         0.0816
      11    C5      20.576694   18.709532   23.775521 C.3        1 MOL1        -0.1826
      12    H5      21.618061   18.475051   24.034573 H          1 MOL1         0.0736
      13    H6      20.333997   19.658518   24.273258 H          1 MOL1         0.0736
      14    C6      19.651387   17.600485   24.313000 C.3        1 MOL1        -0.2882
      15    H7      19.897518   16.631201   23.859860 H          1 MOL1         0.0749
      16    H8      19.753326   17.503190   25.401681 H          1 MOL1         0.0749
      17    H9      18.600683   17.826317   24.088009 H          1 MOL1         0.0749
@<TRIPOS>BOND
    1     1     2    1
    2     1     3    2
    3     1     4    1
    4     4     5    1
    5     4     6    1
    6     4     7    1
    7     7     8    1
    8     7     9    2
    9     9    10    1
   10     9    11    1
   11    11    12    1
   12    11    13    1
   13    11    14    1
   14    14    15    1
   15    14    16    1
   16    14    17    1
@<TRIPOS>SUBSTRUCTURE
       1 MOL1            1 RESIDUE      1      MOL     
@<SCITEGIC>MOL_PROPERTY
VConf Rank
SciTegic.value.IntegerValue
907

@<SCITEGIC>MOL_PROPERTY
Conf_Id
SciTegic.value.IntegerValue
35

@<SCITEGIC>MOL_PROPERTY
Delta U+W
SciTegic.value.DoubleValue
-0.102

@<SCITEGIC>MOL_PROPERTY
U+W
SciTegic.value.DoubleValue
-49.529

@<SCITEGIC>MOL_PROPERTY
Grad RMS
SciTegic.value.DoubleValue
0.000000

@<SCITEGIC>MOL_PROPERTY
U
SciTegic.value.DoubleValue
13.666

@<SCITEGIC>MOL_PROPERTY
W
SciTegic.value.DoubleValue
-63.195

@<SCITEGIC>MOL_PROPERTY
W(PB)
SciTegic.value.DoubleValue
-65.299

@<SCITEGIC>MOL_PROPERTY
W(SA)
SciTegic.value.DoubleValue
2.103

@<SCITEGIC>MOL_PROPERTY
Valence
SciTegic.value.DoubleValue
15.226

@<SCITEGIC>MOL_PROPERTY
Coulomb
SciTegic.value.DoubleValue
-1.822

@<SCITEGIC>MOL_PROPERTY
VdW
SciTegic.value.DoubleValue
0.261

@<SCITEGIC>MOL_PROPERTY
VdW6
SciTegic.value.DoubleValue
-4.165

@<SCITEGIC>MOL_PROPERTY
VdW12
SciTegic.value.DoubleValue
4.426

@<SCITEGIC>MOL_PROPERTY
Bond
SciTegic.value.DoubleValue
0.044

@<SCITEGIC>MOL_PROPERTY
Angle
SciTegic.value.DoubleValue
2.229

@<SCITEGIC>MOL_PROPERTY
Pdih
SciTegic.value.DoubleValue
12.953

@<SCITEGIC>MOL_PROPERTY
Idih
SciTegic.value.DoubleValue
0.000

@<SCITEGIC>MOL_PROPERTY
Tether
SciTegic.value.DoubleValue
0.000

@<TRIPOS>MOLECULE
guest-s20_confgen4.mol2 : confsearch ligand conformer 908
          17          16           1
SMALL
USER_CHARGES
 
@<TRIPOS>ATOM
       1    C1      20.266769   22.046764   22.325222 C.2        1 MOL1         0.6132
       2    O1      19.764611   22.424720   23.365394 O.co2      1 MOL1        -0.6749
       3    O2      21.305187   22.493436   21.879104 O.co2      1 MOL1        -0.6749
       4    C2      19.549075   20.960780   21.534497 C.3        1 MOL1        -0.1955
       5    H1      19.856852   21.040617   20.484981 H          1 MOL1         0.0733
       6    H2      18.474710   21.175155   21.570477 H          1 MOL1         0.0733
       7    C3      19.821018   19.570947   22.078388 C.2        1 MOL1        -0.1395
       8    H3      19.397412   19.377244   23.062322 H          1 MOL1         0.0816
       9    C4      20.526685   18.638409   21.426378 C.2        1 MOL1        -0.1394
      10    H4      20.939110   18.870289   20.444939 H          1 MOL1         0.0816
      11    C5      20.839527   17.232918   21.911470 C.3        1 MOL1        -0.1826
      12    H5      20.460076   16.509403   21.177270 H          1 MOL1         0.0736
      13    H6      21.929176   17.095115   21.925513 H          1 MOL1         0.0736
      14    C6      20.270580   16.881958   23.304005 C.3        1 MOL1        -0.2882
      15    H7      19.175233   16.956438   23.312325 H          1 MOL1         0.0749
      16    H8      20.539621   15.854624   23.581910 H          1 MOL1         0.0749
      17    H9      20.671221   17.554304   24.074023 H          1 MOL1         0.0749
@<TRIPOS>BOND
    1     1     2    1
    2     1     3    2
    3     1     4    1
    4     4     5    1
    5     4     6    1
    6     4     7    1
    7     7     8    1
    8     7     9    2
    9     9    10    1
   10     9    11    1
   11    11    12    1
   12    11    13    1
   13    11    14    1
   14    14    15    1
   15    14    16    1
   16    14    17    1
@<TRIPOS>SUBSTRUCTURE
       1 MOL1            1 RESIDUE      1      MOL     
@<SCITEGIC>MOL_PROPERTY
VConf Rank
SciTegic.value.IntegerValue
908

@<SCITEGIC>MOL_PROPERTY
Conf_Id
SciTegic.value.IntegerValue
19

@<SCITEGIC>MOL_PROPERTY
Delta U+W
SciTegic.value.DoubleValue
-0.496

@<SCITEGIC>MOL_PROPERTY
U+W
SciTegic.value.DoubleValue
-49.923

@<SCITEGIC>MOL_PROPERTY
Grad RMS
SciTegic.value.DoubleValue
0.000000

@<SCITEGIC>MOL_PROPERTY
U
SciTegic.value.DoubleValue
13.863

@<SCITEGIC>MOL_PROPERTY
W
SciTegic.value.DoubleValue
-63.786

@<SCITEGIC>MOL_PROPERTY
W(PB)
SciTegic.value.DoubleValue
-65.856

@<SCITEGIC>MOL_PROPERTY
W(SA)
SciTegic.value.DoubleValue
2.070

@<SCITEGIC>MOL_PROPERTY
Valence
SciTegic.value.DoubleValue
14.117

@<SCITEGIC>MOL_PROPERTY
Coulomb
SciTegic.value.DoubleValue
-1.228

@<SCITEGIC>MOL_PROPERTY
VdW
SciTegic.value.DoubleValue
0.974

@<SCITEGIC>MOL_PROPERTY
VdW6
SciTegic.value.DoubleValue
-4.885

@<SCITEGIC>MOL_PROPERTY
VdW12
SciTegic.value.DoubleValue
5.859

@<SCITEGIC>MOL_PROPERTY
Bond
SciTegic.value.DoubleValue
0.094

@<SCITEGIC>MOL_PROPERTY
Angle
SciTegic.value.DoubleValue
2.818

@<SCITEGIC>MOL_PROPERTY
Pdih
SciTegic.value.DoubleValue
11.205

@<SCITEGIC>MOL_PROPERTY
Idih
SciTegic.value.DoubleValue
0.000

@<SCITEGIC>MOL_PROPERTY
Tether
SciTegic.value.DoubleValue
0.000

@<TRIPOS>MOLECULE
guest-s20_confgen4.mol2 : confsearch ligand conformer 909
          17          16           1
SMALL
USER_CHARGES
 
@<TRIPOS>ATOM
       1    C1      19.746189   18.851632   25.110958 C.2        1 MOL1         0.6132
       2    O1      18.947375   17.939426   25.192129 O.co2      1 MOL1        -0.6749
       3    O2      20.738598   18.939744   25.806920 O.co2      1 MOL1        -0.6749
       4    C2      19.485907   19.951066   24.089526 C.3        1 MOL1        -0.1955
       5    H1      19.718441   20.911090   24.564675 H          1 MOL1         0.0733
       6    H2      18.413798   19.958448   23.858916 H          1 MOL1         0.0733
       7    C3      20.311996   19.780129   22.828922 C.2        1 MOL1        -0.1395
       8    H3      21.385769   19.915860   22.954637 H          1 MOL1         0.0816
       9    C4      19.801435   19.477029   21.631561 C.2        1 MOL1        -0.1394
      10    H4      18.728181   19.336346   21.507492 H          1 MOL1         0.0816
      11    C5      20.627255   19.304143   20.376385 C.3        1 MOL1        -0.1826
      12    H5      20.177197   19.877042   19.554341 H          1 MOL1         0.0736
      13    H6      21.639265   19.705808   20.523728 H          1 MOL1         0.0736
      14    C6      20.721585   17.818874   19.976299 C.3        1 MOL1        -0.2882
      15    H7      19.724637   17.400806   19.784623 H          1 MOL1         0.0749
      16    H8      21.322208   17.699132   19.065266 H          1 MOL1         0.0749
      17    H9      21.191743   17.229433   20.774542 H          1 MOL1         0.0749
@<TRIPOS>BOND
    1     1     2    1
    2     1     3    2
    3     1     4    1
    4     4     5    1
    5     4     6    1
    6     4     7    1
    7     7     8    1
    8     7     9    2
    9     9    10    1
   10     9    11    1
   11    11    12    1
   12    11    13    1
   13    11    14    1
   14    14    15    1
   15    14    16    1
   16    14    17    1
@<TRIPOS>SUBSTRUCTURE
       1 MOL1            1 RESIDUE      1      MOL     
@<SCITEGIC>MOL_PROPERTY
VConf Rank
SciTegic.value.IntegerValue
909

@<SCITEGIC>MOL_PROPERTY
Conf_Id
SciTegic.value.IntegerValue
7

@<SCITEGIC>MOL_PROPERTY
Delta U+W
SciTegic.value.DoubleValue
-0.041

@<SCITEGIC>MOL_PROPERTY
U+W
SciTegic.value.DoubleValue
-49.468

@<SCITEGIC>MOL_PROPERTY
Grad RMS
SciTegic.value.DoubleValue
0.000000

@<SCITEGIC>MOL_PROPERTY
U
SciTegic.value.DoubleValue
14.121

@<SCITEGIC>MOL_PROPERTY
W
SciTegic.value.DoubleValue
-63.589

@<SCITEGIC>MOL_PROPERTY
W(PB)
SciTegic.value.DoubleValue
-65.660

@<SCITEGIC>MOL_PROPERTY
W(SA)
SciTegic.value.DoubleValue
2.071

@<SCITEGIC>MOL_PROPERTY
Valence
SciTegic.value.DoubleValue
15.230

@<SCITEGIC>MOL_PROPERTY
Coulomb
SciTegic.value.DoubleValue
-1.333

@<SCITEGIC>MOL_PROPERTY
VdW
SciTegic.value.DoubleValue
0.224

@<SCITEGIC>MOL_PROPERTY
VdW6
SciTegic.value.DoubleValue
-4.212

@<SCITEGIC>MOL_PROPERTY
VdW12
SciTegic.value.DoubleValue
4.436

@<SCITEGIC>MOL_PROPERTY
Bond
SciTegic.value.DoubleValue
0.044

@<SCITEGIC>MOL_PROPERTY
Angle
SciTegic.value.DoubleValue
2.230

@<SCITEGIC>MOL_PROPERTY
Pdih
SciTegic.value.DoubleValue
12.956

@<SCITEGIC>MOL_PROPERTY
Idih
SciTegic.value.DoubleValue
0.000

@<SCITEGIC>MOL_PROPERTY
Tether
SciTegic.value.DoubleValue
0.000

@<TRIPOS>MOLECULE
guest-s20_confgen4.mol2 : confsearch ligand conformer 910
          17          16           1
SMALL
USER_CHARGES
 
@<TRIPOS>ATOM
       1    C1      22.686557   20.032402   22.982436 C.2        1 MOL1         0.6132
       2    O1      23.204613   20.156150   21.890055 O.co2      1 MOL1        -0.6749
       3    O2      23.142004   19.333190   23.866038 O.co2      1 MOL1        -0.6749
       4    C2      21.411086   20.818669   23.269724 C.3        1 MOL1        -0.1955
       5    H1      21.460272   21.757215   22.705382 H          1 MOL1         0.0733
       6    H2      21.423058   21.102627   24.328471 H          1 MOL1         0.0733
       7    C3      20.108983   20.098446   22.949280 C.2        1 MOL1        -0.1395
       8    H3      19.211083   20.677340   23.161887 H          1 MOL1         0.0816
       9    C4      19.996293   18.863323   22.446519 C.2        1 MOL1        -0.1394
      10    H4      20.878116   18.263616   22.224094 H          1 MOL1         0.0816
      11    C5      18.674798   18.191225   22.146726 C.3        1 MOL1        -0.1826
      12    H5      18.672416   17.175612   22.565109 H          1 MOL1         0.0736
      13    H6      17.849200   18.732546   22.628922 H          1 MOL1         0.0736
      14    C6      18.420941   18.121804   20.628248 C.3        1 MOL1        -0.2882
      15    H7      17.461579   17.632050   20.416528 H          1 MOL1         0.0749
      16    H8      18.393473   19.128720   20.191259 H          1 MOL1         0.0749
      17    H9      19.212934   17.552136   20.124577 H          1 MOL1         0.0749
@<TRIPOS>BOND
    1     1     2    1
    2     1     3    2
    3     1     4    1
    4     4     5    1
    5     4     6    1
    6     4     7    1
    7     7     8    1
    8     7     9    2
    9     9    10    1
   10     9    11    1
   11    11    12    1
   12    11    13    1
   13    11    14    1
   14    14    15    1
   15    14    16    1
   16    14    17    1
@<TRIPOS>SUBSTRUCTURE
       1 MOL1            1 RESIDUE      1      MOL     
@<SCITEGIC>MOL_PROPERTY
VConf Rank
SciTegic.value.IntegerValue
910

@<SCITEGIC>MOL_PROPERTY
Conf_Id
SciTegic.value.IntegerValue
39

@<SCITEGIC>MOL_PROPERTY
Delta U+W
SciTegic.value.DoubleValue
-0.422

@<SCITEGIC>MOL_PROPERTY
U+W
SciTegic.value.DoubleValue
-49.849

@<SCITEGIC>MOL_PROPERTY
Grad RMS
SciTegic.value.DoubleValue
0.000000

@<SCITEGIC>MOL_PROPERTY
U
SciTegic.value.DoubleValue
14.465

@<SCITEGIC>MOL_PROPERTY
W
SciTegic.value.DoubleValue
-64.314

@<SCITEGIC>MOL_PROPERTY
W(PB)
SciTegic.value.DoubleValue
-66.406

@<SCITEGIC>MOL_PROPERTY
W(SA)
SciTegic.value.DoubleValue
2.093

@<SCITEGIC>MOL_PROPERTY
Valence
SciTegic.value.DoubleValue
14.072

@<SCITEGIC>MOL_PROPERTY
Coulomb
SciTegic.value.DoubleValue
-0.199

@<SCITEGIC>MOL_PROPERTY
VdW
SciTegic.value.DoubleValue
0.592

@<SCITEGIC>MOL_PROPERTY
VdW6
SciTegic.value.DoubleValue
-5.019

@<SCITEGIC>MOL_PROPERTY
VdW12
SciTegic.value.DoubleValue
5.611

@<SCITEGIC>MOL_PROPERTY
Bond
SciTegic.value.DoubleValue
0.085

@<SCITEGIC>MOL_PROPERTY
Angle
SciTegic.value.DoubleValue
2.748

@<SCITEGIC>MOL_PROPERTY
Pdih
SciTegic.value.DoubleValue
11.238

@<SCITEGIC>MOL_PROPERTY
Idih
SciTegic.value.DoubleValue
0.001

@<SCITEGIC>MOL_PROPERTY
Tether
SciTegic.value.DoubleValue
0.000

@<TRIPOS>MOLECULE
guest-s20_confgen4.mol2 : confsearch ligand conformer 911
          17          16           1
SMALL
USER_CHARGES
 
@<TRIPOS>ATOM
       1    C1      21.966847   21.802297   21.690752 C.2        1 MOL1         0.6132
       2    O1      22.092643   22.545656   22.643933 O.co2      1 MOL1        -0.6749
       3    O2      21.858247   22.191641   20.544700 O.co2      1 MOL1        -0.6749
       4    C2      21.950068   20.301287   21.948223 C.3        1 MOL1        -0.1955
       5    H1      22.712596   20.082665   22.704704 H          1 MOL1         0.0733
       6    H2      22.256881   19.791689   21.026912 H          1 MOL1         0.0733
       7    C3      20.594687   19.807499   22.417118 C.2        1 MOL1        -0.1395
       8    H3      20.292688   20.147956   23.407111 H          1 MOL1         0.0816
       9    C4      19.795060   19.013138   21.698915 C.2        1 MOL1        -0.1394
      10    H4      20.096363   18.675489   20.707819 H          1 MOL1         0.0816
      11    C5      18.442216   18.524821   22.166546 C.3        1 MOL1        -0.1826
      12    H5      18.104806   19.103260   23.037628 H          1 MOL1         0.0736
      13    H6      17.697098   18.683210   21.375188 H          1 MOL1         0.0736
      14    C6      18.490285   17.029172   22.535035 C.3        1 MOL1        -0.2882
      15    H7      19.211217   16.849816   23.343545 H          1 MOL1         0.0749
      16    H8      17.505752   16.680479   22.872961 H          1 MOL1         0.0749
      17    H9      18.788259   16.422036   21.670150 H          1 MOL1         0.0749
@<TRIPOS>BOND
    1     1     2    1
    2     1     3    2
    3     1     4    1
    4     4     5    1
    5     4     6    1
    6     4     7    1
    7     7     8    1
    8     7     9    2
    9     9    10    1
   10     9    11    1
   11    11    12    1
   12    11    13    1
   13    11    14    1
   14    14    15    1
   15    14    16    1
   16    14    17    1
@<TRIPOS>SUBSTRUCTURE
       1 MOL1            1 RESIDUE      1      MOL     
@<SCITEGIC>MOL_PROPERTY
VConf Rank
SciTegic.value.IntegerValue
911

@<SCITEGIC>MOL_PROPERTY
Conf_Id
SciTegic.value.IntegerValue
38

@<SCITEGIC>MOL_PROPERTY
Delta U+W
SciTegic.value.DoubleValue
0.000

@<SCITEGIC>MOL_PROPERTY
U+W
SciTegic.value.DoubleValue
-49.427

@<SCITEGIC>MOL_PROPERTY
Grad RMS
SciTegic.value.DoubleValue
0.000000

@<SCITEGIC>MOL_PROPERTY
U
SciTegic.value.DoubleValue
13.666

@<SCITEGIC>MOL_PROPERTY
W
SciTegic.value.DoubleValue
-63.093

@<SCITEGIC>MOL_PROPERTY
W(PB)
SciTegic.value.DoubleValue
-65.225

@<SCITEGIC>MOL_PROPERTY
W(SA)
SciTegic.value.DoubleValue
2.132

@<SCITEGIC>MOL_PROPERTY
Valence
SciTegic.value.DoubleValue
15.226

@<SCITEGIC>MOL_PROPERTY
Coulomb
SciTegic.value.DoubleValue
-1.822

@<SCITEGIC>MOL_PROPERTY
VdW
SciTegic.value.DoubleValue
0.261

@<SCITEGIC>MOL_PROPERTY
VdW6
SciTegic.value.DoubleValue
-4.165

@<SCITEGIC>MOL_PROPERTY
VdW12
SciTegic.value.DoubleValue
4.426

@<SCITEGIC>MOL_PROPERTY
Bond
SciTegic.value.DoubleValue
0.044

@<SCITEGIC>MOL_PROPERTY
Angle
SciTegic.value.DoubleValue
2.229

@<SCITEGIC>MOL_PROPERTY
Pdih
SciTegic.value.DoubleValue
12.953

@<SCITEGIC>MOL_PROPERTY
Idih
SciTegic.value.DoubleValue
0.000

@<SCITEGIC>MOL_PROPERTY
Tether
SciTegic.value.DoubleValue
0.000

@<TRIPOS>MOLECULE
guest-s20_confgen4.mol2 : confsearch ligand conformer 912
          17          16           1
SMALL
USER_CHARGES
 
@<TRIPOS>ATOM
       1    C1      20.949832   20.846211   24.708633 C.2        1 MOL1         0.6132
       2    O1      21.260180   20.049323   25.572039 O.co2      1 MOL1        -0.6749
       3    O2      20.361388   21.885497   24.933536 O.co2      1 MOL1        -0.6749
       4    C2      21.322432   20.529819   23.266181 C.3        1 MOL1        -0.1955
       5    H1      22.171873   19.836274   23.275454 H          1 MOL1         0.0733
       6    H2      21.671461   21.457998   22.799094 H          1 MOL1         0.0733
       7    C3      20.160247   19.955504   22.478631 C.2        1 MOL1        -0.1395
       8    H3      19.340020   20.647197   22.288925 H          1 MOL1         0.0816
       9    C4      20.104054   18.696797   22.032842 C.2        1 MOL1        -0.1394
      10    H4      20.923186   18.004762   22.225640 H          1 MOL1         0.0816
      11    C5      18.942612   18.124727   21.251108 C.3        1 MOL1        -0.1826
      12    H5      18.643900   17.160222   21.683584 H          1 MOL1         0.0736
      13    H6      18.068339   18.786406   21.322146 H          1 MOL1         0.0736
      14    C6      19.315411   17.929567   19.768545 C.3        1 MOL1        -0.2882
      15    H7      20.164170   17.240795   19.665450 H          1 MOL1         0.0749
      16    H8      18.469051   17.513613   19.206634 H          1 MOL1         0.0749
      17    H9      19.593369   18.886392   19.307216 H          1 MOL1         0.0749
@<TRIPOS>BOND
    1     1     2    1
    2     1     3    2
    3     1     4    1
    4     4     5    1
    5     4     6    1
    6     4     7    1
    7     7     8    1
    8     7     9    2
    9     9    10    1
   10     9    11    1
   11    11    12    1
   12    11    13    1
   13    11    14    1
   14    14    15    1
   15    14    16    1
   16    14    17    1
@<TRIPOS>SUBSTRUCTURE
       1 MOL1            1 RESIDUE      1      MOL     
@<SCITEGIC>MOL_PROPERTY
VConf Rank
SciTegic.value.IntegerValue
912

@<SCITEGIC>MOL_PROPERTY
Conf_Id
SciTegic.value.IntegerValue
35

@<SCITEGIC>MOL_PROPERTY
Delta U+W
SciTegic.value.DoubleValue
-0.102

@<SCITEGIC>MOL_PROPERTY
U+W
SciTegic.value.DoubleValue
-49.529

@<SCITEGIC>MOL_PROPERTY
Grad RMS
SciTegic.value.DoubleValue
0.000000

@<SCITEGIC>MOL_PROPERTY
U
SciTegic.value.DoubleValue
13.666

@<SCITEGIC>MOL_PROPERTY
W
SciTegic.value.DoubleValue
-63.195

@<SCITEGIC>MOL_PROPERTY
W(PB)
SciTegic.value.DoubleValue
-65.299

@<SCITEGIC>MOL_PROPERTY
W(SA)
SciTegic.value.DoubleValue
2.103

@<SCITEGIC>MOL_PROPERTY
Valence
SciTegic.value.DoubleValue
15.226

@<SCITEGIC>MOL_PROPERTY
Coulomb
SciTegic.value.DoubleValue
-1.822

@<SCITEGIC>MOL_PROPERTY
VdW
SciTegic.value.DoubleValue
0.261

@<SCITEGIC>MOL_PROPERTY
VdW6
SciTegic.value.DoubleValue
-4.165

@<SCITEGIC>MOL_PROPERTY
VdW12
SciTegic.value.DoubleValue
4.426

@<SCITEGIC>MOL_PROPERTY
Bond
SciTegic.value.DoubleValue
0.044

@<SCITEGIC>MOL_PROPERTY
Angle
SciTegic.value.DoubleValue
2.229

@<SCITEGIC>MOL_PROPERTY
Pdih
SciTegic.value.DoubleValue
12.953

@<SCITEGIC>MOL_PROPERTY
Idih
SciTegic.value.DoubleValue
0.000

@<SCITEGIC>MOL_PROPERTY
Tether
SciTegic.value.DoubleValue
0.000

@<TRIPOS>MOLECULE
guest-s20_confgen4.mol2 : confsearch ligand conformer 913
          17          16           1
SMALL
USER_CHARGES
 
@<TRIPOS>ATOM
       1    C1      18.650434   17.552429   24.163511 C.2        1 MOL1         0.6132
       2    O1      18.223140   18.293208   25.027014 O.co2      1 MOL1        -0.6749
       3    O2      17.979499   16.698163   23.618603 O.co2      1 MOL1        -0.6749
       4    C2      20.109016   17.697978   23.749933 C.3        1 MOL1        -0.1955
       5    H1      20.442016   16.743230   23.325488 H          1 MOL1         0.0733
       6    H2      20.699028   17.868063   24.657935 H          1 MOL1         0.0733
       7    C3      20.323560   18.835264   22.769140 C.2        1 MOL1        -0.1395
       8    H3      20.161031   19.828900   23.183099 H          1 MOL1         0.0816
       9    C4      20.678733   18.661605   21.489919 C.2        1 MOL1        -0.1394
      10    H4      20.828237   17.651516   21.109848 H          1 MOL1         0.0816
      11    C5      20.906222   19.750825   20.455299 C.3        1 MOL1        -0.1826
      12    H5      21.926391   19.658692   20.058723 H          1 MOL1         0.0736
      13    H6      20.240101   19.574466   19.599904 H          1 MOL1         0.0736
      14    C6      20.694251   21.192241   20.968541 C.3        1 MOL1        -0.2882
      15    H7      21.383553   21.422871   21.791386 H          1 MOL1         0.0749
      16    H8      20.875838   21.917551   20.164812 H          1 MOL1         0.0749
      17    H9      19.665814   21.336117   21.325063 H          1 MOL1         0.0749
@<TRIPOS>BOND
    1     1     2    1
    2     1     3    2
    3     1     4    1
    4     4     5    1
    5     4     6    1
    6     4     7    1
    7     7     8    1
    8     7     9    2
    9     9    10    1
   10     9    11    1
   11    11    12    1
   12    11    13    1
   13    11    14    1
   14    14    15    1
   15    14    16    1
   16    14    17    1
@<TRIPOS>SUBSTRUCTURE
       1 MOL1            1 RESIDUE      1      MOL     
@<SCITEGIC>MOL_PROPERTY
VConf Rank
SciTegic.value.IntegerValue
913

@<SCITEGIC>MOL_PROPERTY
Conf_Id
SciTegic.value.IntegerValue
19

@<SCITEGIC>MOL_PROPERTY
Delta U+W
SciTegic.value.DoubleValue
-0.496

@<SCITEGIC>MOL_PROPERTY
U+W
SciTegic.value.DoubleValue
-49.923

@<SCITEGIC>MOL_PROPERTY
Grad RMS
SciTegic.value.DoubleValue
0.000000

@<SCITEGIC>MOL_PROPERTY
U
SciTegic.value.DoubleValue
13.863

@<SCITEGIC>MOL_PROPERTY
W
SciTegic.value.DoubleValue
-63.786

@<SCITEGIC>MOL_PROPERTY
W(PB)
SciTegic.value.DoubleValue
-65.856

@<SCITEGIC>MOL_PROPERTY
W(SA)
SciTegic.value.DoubleValue
2.070

@<SCITEGIC>MOL_PROPERTY
Valence
SciTegic.value.DoubleValue
14.117

@<SCITEGIC>MOL_PROPERTY
Coulomb
SciTegic.value.DoubleValue
-1.228

@<SCITEGIC>MOL_PROPERTY
VdW
SciTegic.value.DoubleValue
0.974

@<SCITEGIC>MOL_PROPERTY
VdW6
SciTegic.value.DoubleValue
-4.885

@<SCITEGIC>MOL_PROPERTY
VdW12
SciTegic.value.DoubleValue
5.859

@<SCITEGIC>MOL_PROPERTY
Bond
SciTegic.value.DoubleValue
0.094

@<SCITEGIC>MOL_PROPERTY
Angle
SciTegic.value.DoubleValue
2.818

@<SCITEGIC>MOL_PROPERTY
Pdih
SciTegic.value.DoubleValue
11.205

@<SCITEGIC>MOL_PROPERTY
Idih
SciTegic.value.DoubleValue
0.000

@<SCITEGIC>MOL_PROPERTY
Tether
SciTegic.value.DoubleValue
0.000

@<TRIPOS>MOLECULE
guest-s20_confgen4.mol2 : confsearch ligand conformer 914
          17          16           1
SMALL
USER_CHARGES
 
@<TRIPOS>ATOM
       1    C1      20.836366   16.909622   20.336779 C.2        1 MOL1         0.6132
       2    O1      19.742244   16.473482   20.037630 O.co2      1 MOL1        -0.6749
       3    O2      21.707956   17.152126   19.525284 O.co2      1 MOL1        -0.6749
       4    C2      21.137781   17.156430   21.809213 C.3        1 MOL1        -0.1955
       5    H1      22.158290   16.807503   22.004907 H          1 MOL1         0.0733
       6    H2      20.464395   16.530437   22.406990 H          1 MOL1         0.0733
       7    C3      21.004544   18.618019   22.192319 C.2        1 MOL1        -0.1395
       8    H3      21.747179   19.283440   21.753088 H          1 MOL1         0.0816
       9    C4      20.055115   19.099205   23.000563 C.2        1 MOL1        -0.1394
      10    H4      19.309674   18.434139   23.435378 H          1 MOL1         0.0816
      11    C5      19.922269   20.557454   23.378977 C.3        1 MOL1        -0.1826
      12    H5      19.798563   20.648727   24.466584 H          1 MOL1         0.0736
      13    H6      20.837238   21.107105   23.118355 H          1 MOL1         0.0736
      14    C6      18.718211   21.205988   22.668596 C.3        1 MOL1        -0.2882
      15    H7      17.783042   20.699839   22.941905 H          1 MOL1         0.0749
      16    H8      18.626757   22.264074   22.946367 H          1 MOL1         0.0749
      17    H9      18.831952   21.148418   21.577986 H          1 MOL1         0.0749
@<TRIPOS>BOND
    1     1     2    1
    2     1     3    2
    3     1     4    1
    4     4     5    1
    5     4     6    1
    6     4     7    1
    7     7     8    1
    8     7     9    2
    9     9    10    1
   10     9    11    1
   11    11    12    1
   12    11    13    1
   13    11    14    1
   14    14    15    1
   15    14    16    1
   16    14    17    1
@<TRIPOS>SUBSTRUCTURE
       1 MOL1            1 RESIDUE      1      MOL     
@<SCITEGIC>MOL_PROPERTY
VConf Rank
SciTegic.value.IntegerValue
914

@<SCITEGIC>MOL_PROPERTY
Conf_Id
SciTegic.value.IntegerValue
7

@<SCITEGIC>MOL_PROPERTY
Delta U+W
SciTegic.value.DoubleValue
-0.041

@<SCITEGIC>MOL_PROPERTY
U+W
SciTegic.value.DoubleValue
-49.468

@<SCITEGIC>MOL_PROPERTY
Grad RMS
SciTegic.value.DoubleValue
0.000000

@<SCITEGIC>MOL_PROPERTY
U
SciTegic.value.DoubleValue
14.121

@<SCITEGIC>MOL_PROPERTY
W
SciTegic.value.DoubleValue
-63.589

@<SCITEGIC>MOL_PROPERTY
W(PB)
SciTegic.value.DoubleValue
-65.660

@<SCITEGIC>MOL_PROPERTY
W(SA)
SciTegic.value.DoubleValue
2.071

@<SCITEGIC>MOL_PROPERTY
Valence
SciTegic.value.DoubleValue
15.230

@<SCITEGIC>MOL_PROPERTY
Coulomb
SciTegic.value.DoubleValue
-1.333

@<SCITEGIC>MOL_PROPERTY
VdW
SciTegic.value.DoubleValue
0.224

@<SCITEGIC>MOL_PROPERTY
VdW6
SciTegic.value.DoubleValue
-4.212

@<SCITEGIC>MOL_PROPERTY
VdW12
SciTegic.value.DoubleValue
4.436

@<SCITEGIC>MOL_PROPERTY
Bond
SciTegic.value.DoubleValue
0.044

@<SCITEGIC>MOL_PROPERTY
Angle
SciTegic.value.DoubleValue
2.230

@<SCITEGIC>MOL_PROPERTY
Pdih
SciTegic.value.DoubleValue
12.956

@<SCITEGIC>MOL_PROPERTY
Idih
SciTegic.value.DoubleValue
0.000

@<SCITEGIC>MOL_PROPERTY
Tether
SciTegic.value.DoubleValue
0.000

@<TRIPOS>MOLECULE
guest-s20_confgen4.mol2 : confsearch ligand conformer 915
          17          16           1
SMALL
USER_CHARGES
 
@<TRIPOS>ATOM
       1    C1      20.204769   22.014824   22.586090 C.2        1 MOL1         0.6132
       2    O1      20.907935   22.112515   23.572501 O.co2      1 MOL1        -0.6749
       3    O2      19.101862   22.517290   22.495490 O.co2      1 MOL1        -0.6749
       4    C2      20.746940   21.243551   21.386605 C.3        1 MOL1        -0.1955
       5    H1      21.835141   21.374628   21.366440 H          1 MOL1         0.0733
       6    H2      20.368341   21.726265   20.478106 H          1 MOL1         0.0733
       7    C3      20.411268   19.759264   21.353551 C.2        1 MOL1        -0.1395
       8    H3      20.807684   19.227970   20.489186 H          1 MOL1         0.0816
       9    C4      19.698851   19.093247   22.270000 C.2        1 MOL1        -0.1394
      10    H4      19.291938   19.600375   23.144058 H          1 MOL1         0.0816
      11    C5      19.391558   17.614404   22.189160 C.3        1 MOL1        -0.1826
      12    H5      18.322100   17.447529   22.376062 H          1 MOL1         0.0736
      13    H6      19.598333   17.232623   21.179882 H          1 MOL1         0.0736
      14    C6      20.222463   16.819438   23.215154 C.3        1 MOL1        -0.2882
      15    H7      19.994474   15.747421   23.153021 H          1 MOL1         0.0749
      16    H8      21.297085   16.950642   23.031940 H          1 MOL1         0.0749
      17    H9      20.006665   17.155085   24.238008 H          1 MOL1         0.0749
@<TRIPOS>BOND
    1     1     2    1
    2     1     3    2
    3     1     4    1
    4     4     5    1
    5     4     6    1
    6     4     7    1
    7     7     8    1
    8     7     9    2
    9     9    10    1
   10     9    11    1
   11    11    12    1
   12    11    13    1
   13    11    14    1
   14    14    15    1
   15    14    16    1
   16    14    17    1
@<TRIPOS>SUBSTRUCTURE
       1 MOL1            1 RESIDUE      1      MOL     
@<SCITEGIC>MOL_PROPERTY
VConf Rank
SciTegic.value.IntegerValue
915

@<SCITEGIC>MOL_PROPERTY
Conf_Id
SciTegic.value.IntegerValue
39

@<SCITEGIC>MOL_PROPERTY
Delta U+W
SciTegic.value.DoubleValue
-0.422

@<SCITEGIC>MOL_PROPERTY
U+W
SciTegic.value.DoubleValue
-49.849

@<SCITEGIC>MOL_PROPERTY
Grad RMS
SciTegic.value.DoubleValue
0.000000

@<SCITEGIC>MOL_PROPERTY
U
SciTegic.value.DoubleValue
14.465

@<SCITEGIC>MOL_PROPERTY
W
SciTegic.value.DoubleValue
-64.314

@<SCITEGIC>MOL_PROPERTY
W(PB)
SciTegic.value.DoubleValue
-66.406

@<SCITEGIC>MOL_PROPERTY
W(SA)
SciTegic.value.DoubleValue
2.093

@<SCITEGIC>MOL_PROPERTY
Valence
SciTegic.value.DoubleValue
14.072

@<SCITEGIC>MOL_PROPERTY
Coulomb
SciTegic.value.DoubleValue
-0.199

@<SCITEGIC>MOL_PROPERTY
VdW
SciTegic.value.DoubleValue
0.592

@<SCITEGIC>MOL_PROPERTY
VdW6
SciTegic.value.DoubleValue
-5.019

@<SCITEGIC>MOL_PROPERTY
VdW12
SciTegic.value.DoubleValue
5.611

@<SCITEGIC>MOL_PROPERTY
Bond
SciTegic.value.DoubleValue
0.085

@<SCITEGIC>MOL_PROPERTY
Angle
SciTegic.value.DoubleValue
2.748

@<SCITEGIC>MOL_PROPERTY
Pdih
SciTegic.value.DoubleValue
11.238

@<SCITEGIC>MOL_PROPERTY
Idih
SciTegic.value.DoubleValue
0.001

@<SCITEGIC>MOL_PROPERTY
Tether
SciTegic.value.DoubleValue
0.000

@<TRIPOS>MOLECULE
guest-s20_confgen4.mol2 : confsearch ligand conformer 916
          17          16           1
SMALL
USER_CHARGES
 
@<TRIPOS>ATOM
       1    C1      21.338370   21.605602   23.856940 C.2        1 MOL1         0.6132
       2    O1      22.551104   21.675360   23.893934 O.co2      1 MOL1        -0.6749
       3    O2      20.624568   21.796624   24.821728 O.co2      1 MOL1        -0.6749
       4    C2      20.679077   21.265448   22.526815 C.3        1 MOL1        -0.1955
       5    H1      21.211315   21.811987   21.739715 H          1 MOL1         0.0733
       6    H2      19.651798   21.648858   22.545088 H          1 MOL1         0.0733
       7    C3      20.698915   19.777610   22.232380 C.2        1 MOL1        -0.1395
       8    H3      21.684567   19.354551   22.040774 H          1 MOL1         0.0816
       9    C4      19.610017   19.003243   22.202656 C.2        1 MOL1        -0.1394
      10    H4      18.625053   19.426358   22.397280 H          1 MOL1         0.0816
      11    C5      19.632134   17.519093   21.912599 C.3        1 MOL1        -0.1826
      12    H5      20.656612   17.128595   21.984548 H          1 MOL1         0.0736
      13    H6      19.037659   16.985192   22.666313 H          1 MOL1         0.0736
      14    C6      19.069952   17.220629   20.509056 C.3        1 MOL1        -0.2882
      15    H7      19.664903   17.724044   19.735616 H          1 MOL1         0.0749
      16    H8      19.087963   16.142226   20.304588 H          1 MOL1         0.0749
      17    H9      18.031705   17.566688   20.421215 H          1 MOL1         0.0749
@<TRIPOS>BOND
    1     1     2    1
    2     1     3    2
    3     1     4    1
    4     4     5    1
    5     4     6    1
    6     4     7    1
    7     7     8    1
    8     7     9    2
    9     9    10    1
   10     9    11    1
   11    11    12    1
   12    11    13    1
   13    11    14    1
   14    14    15    1
   15    14    16    1
   16    14    17    1
@<TRIPOS>SUBSTRUCTURE
       1 MOL1            1 RESIDUE      1      MOL     
@<SCITEGIC>MOL_PROPERTY
VConf Rank
SciTegic.value.IntegerValue
916

@<SCITEGIC>MOL_PROPERTY
Conf_Id
SciTegic.value.IntegerValue
38

@<SCITEGIC>MOL_PROPERTY
Delta U+W
SciTegic.value.DoubleValue
0.000

@<SCITEGIC>MOL_PROPERTY
U+W
SciTegic.value.DoubleValue
-49.427

@<SCITEGIC>MOL_PROPERTY
Grad RMS
SciTegic.value.DoubleValue
0.000000

@<SCITEGIC>MOL_PROPERTY
U
SciTegic.value.DoubleValue
13.666

@<SCITEGIC>MOL_PROPERTY
W
SciTegic.value.DoubleValue
-63.093

@<SCITEGIC>MOL_PROPERTY
W(PB)
SciTegic.value.DoubleValue
-65.225

@<SCITEGIC>MOL_PROPERTY
W(SA)
SciTegic.value.DoubleValue
2.132

@<SCITEGIC>MOL_PROPERTY
Valence
SciTegic.value.DoubleValue
15.226

@<SCITEGIC>MOL_PROPERTY
Coulomb
SciTegic.value.DoubleValue
-1.822

@<SCITEGIC>MOL_PROPERTY
VdW
SciTegic.value.DoubleValue
0.261

@<SCITEGIC>MOL_PROPERTY
VdW6
SciTegic.value.DoubleValue
-4.165

@<SCITEGIC>MOL_PROPERTY
VdW12
SciTegic.value.DoubleValue
4.426

@<SCITEGIC>MOL_PROPERTY
Bond
SciTegic.value.DoubleValue
0.044

@<SCITEGIC>MOL_PROPERTY
Angle
SciTegic.value.DoubleValue
2.229

@<SCITEGIC>MOL_PROPERTY
Pdih
SciTegic.value.DoubleValue
12.953

@<SCITEGIC>MOL_PROPERTY
Idih
SciTegic.value.DoubleValue
0.000

@<SCITEGIC>MOL_PROPERTY
Tether
SciTegic.value.DoubleValue
0.000

@<TRIPOS>MOLECULE
guest-s20_confgen4.mol2 : confsearch ligand conformer 917
          17          16           1
SMALL
USER_CHARGES
 
@<TRIPOS>ATOM
       1    C1      18.654585   17.343982   24.170713 C.2        1 MOL1         0.6132
       2    O1      18.320983   17.986360   25.146867 O.co2      1 MOL1        -0.6749
       3    O2      19.068910   16.202858   24.226666 O.co2      1 MOL1        -0.6749
       4    C2      18.543050   18.000920   22.801188 C.3        1 MOL1        -0.1955
       5    H1      17.794778   18.800163   22.863950 H          1 MOL1         0.0733
       6    H2      18.154496   17.252216   22.101206 H          1 MOL1         0.0733
       7    C3      19.871847   18.538013   22.304628 C.2        1 MOL1        -0.1395
       8    H3      20.618531   17.781794   22.064217 H          1 MOL1         0.0816
       9    C4      20.150100   19.837216   22.160142 C.2        1 MOL1        -0.1394
      10    H4      19.404075   20.592968   22.403750 H          1 MOL1         0.0816
      11    C5      21.477025   20.371069   21.668621 C.3        1 MOL1        -0.1826
      12    H5      21.825892   21.169677   22.337239 H          1 MOL1         0.0736
      13    H6      22.241680   19.582464   21.693610 H          1 MOL1         0.0736
      14    C6      21.356159   20.918984   20.233268 C.3        1 MOL1        -0.2882
      15    H7      20.624676   21.736393   20.186311 H          1 MOL1         0.0749
      16    H8      22.321840   21.305541   19.882384 H          1 MOL1         0.0749
      17    H9      21.032899   20.130488   19.540897 H          1 MOL1         0.0749
@<TRIPOS>BOND
    1     1     2    1
    2     1     3    2
    3     1     4    1
    4     4     5    1
    5     4     6    1
    6     4     7    1
    7     7     8    1
    8     7     9    2
    9     9    10    1
   10     9    11    1
   11    11    12    1
   12    11    13    1
   13    11    14    1
   14    14    15    1
   15    14    16    1
   16    14    17    1
@<TRIPOS>SUBSTRUCTURE
       1 MOL1            1 RESIDUE      1      MOL     
@<SCITEGIC>MOL_PROPERTY
VConf Rank
SciTegic.value.IntegerValue
917

@<SCITEGIC>MOL_PROPERTY
Conf_Id
SciTegic.value.IntegerValue
35

@<SCITEGIC>MOL_PROPERTY
Delta U+W
SciTegic.value.DoubleValue
-0.102

@<SCITEGIC>MOL_PROPERTY
U+W
SciTegic.value.DoubleValue
-49.529

@<SCITEGIC>MOL_PROPERTY
Grad RMS
SciTegic.value.DoubleValue
0.000000

@<SCITEGIC>MOL_PROPERTY
U
SciTegic.value.DoubleValue
13.666

@<SCITEGIC>MOL_PROPERTY
W
SciTegic.value.DoubleValue
-63.195

@<SCITEGIC>MOL_PROPERTY
W(PB)
SciTegic.value.DoubleValue
-65.299

@<SCITEGIC>MOL_PROPERTY
W(SA)
SciTegic.value.DoubleValue
2.103

@<SCITEGIC>MOL_PROPERTY
Valence
SciTegic.value.DoubleValue
15.226

@<SCITEGIC>MOL_PROPERTY
Coulomb
SciTegic.value.DoubleValue
-1.822

@<SCITEGIC>MOL_PROPERTY
VdW
SciTegic.value.DoubleValue
0.261

@<SCITEGIC>MOL_PROPERTY
VdW6
SciTegic.value.DoubleValue
-4.165

@<SCITEGIC>MOL_PROPERTY
VdW12
SciTegic.value.DoubleValue
4.426

@<SCITEGIC>MOL_PROPERTY
Bond
SciTegic.value.DoubleValue
0.044

@<SCITEGIC>MOL_PROPERTY
Angle
SciTegic.value.DoubleValue
2.229

@<SCITEGIC>MOL_PROPERTY
Pdih
SciTegic.value.DoubleValue
12.953

@<SCITEGIC>MOL_PROPERTY
Idih
SciTegic.value.DoubleValue
0.000

@<SCITEGIC>MOL_PROPERTY
Tether
SciTegic.value.DoubleValue
0.000

@<TRIPOS>MOLECULE
guest-s20_confgen4.mol2 : confsearch ligand conformer 918
          17          16           1
SMALL
USER_CHARGES
 
@<TRIPOS>ATOM
       1    C1      20.051253   17.688447   19.617511 C.2        1 MOL1         0.6132
       2    O1      20.846792   18.166286   18.832809 O.co2      1 MOL1        -0.6749
       3    O2      19.896846   16.493225   19.773884 O.co2      1 MOL1        -0.6749
       4    C2      19.195498   18.641116   20.442009 C.3        1 MOL1        -0.1955
       5    H1      18.285715   18.109395   20.745576 H          1 MOL1         0.0733
       6    H2      18.882995   19.462509   19.786902 H          1 MOL1         0.0733
       7    C3      19.934742   19.189527   21.647899 C.2        1 MOL1        -0.1395
       8    H3      20.758953   19.859529   21.409437 H          1 MOL1         0.0816
       9    C4      19.625092   18.887356   22.914990 C.2        1 MOL1        -0.1394
      10    H4      18.795977   18.209300   23.114724 H          1 MOL1         0.0816
      11    C5      20.322567   19.395385   24.165600 C.3        1 MOL1        -0.1826
      12    H5      19.585712   19.900232   24.804881 H          1 MOL1         0.0736
      13    H6      20.679301   18.535645   24.748788 H          1 MOL1         0.0736
      14    C6      21.506116   20.354058   23.908332 C.3        1 MOL1        -0.2882
      15    H7      21.175303   21.253661   23.372907 H          1 MOL1         0.0749
      16    H8      21.955470   20.674087   24.857380 H          1 MOL1         0.0749
      17    H9      22.288534   19.863364   23.314589 H          1 MOL1         0.0749
@<TRIPOS>BOND
    1     1     2    1
    2     1     3    2
    3     1     4    1
    4     4     5    1
    5     4     6    1
    6     4     7    1
    7     7     8    1
    8     7     9    2
    9     9    10    1
   10     9    11    1
   11    11    12    1
   12    11    13    1
   13    11    14    1
   14    14    15    1
   15    14    16    1
   16    14    17    1
@<TRIPOS>SUBSTRUCTURE
       1 MOL1            1 RESIDUE      1      MOL     
@<SCITEGIC>MOL_PROPERTY
VConf Rank
SciTegic.value.IntegerValue
918

@<SCITEGIC>MOL_PROPERTY
Conf_Id
SciTegic.value.IntegerValue
19

@<SCITEGIC>MOL_PROPERTY
Delta U+W
SciTegic.value.DoubleValue
-0.496

@<SCITEGIC>MOL_PROPERTY
U+W
SciTegic.value.DoubleValue
-49.923

@<SCITEGIC>MOL_PROPERTY
Grad RMS
SciTegic.value.DoubleValue
0.000000

@<SCITEGIC>MOL_PROPERTY
U
SciTegic.value.DoubleValue
13.863

@<SCITEGIC>MOL_PROPERTY
W
SciTegic.value.DoubleValue
-63.786

@<SCITEGIC>MOL_PROPERTY
W(PB)
SciTegic.value.DoubleValue
-65.856

@<SCITEGIC>MOL_PROPERTY
W(SA)
SciTegic.value.DoubleValue
2.070

@<SCITEGIC>MOL_PROPERTY
Valence
SciTegic.value.DoubleValue
14.117

@<SCITEGIC>MOL_PROPERTY
Coulomb
SciTegic.value.DoubleValue
-1.228

@<SCITEGIC>MOL_PROPERTY
VdW
SciTegic.value.DoubleValue
0.974

@<SCITEGIC>MOL_PROPERTY
VdW6
SciTegic.value.DoubleValue
-4.885

@<SCITEGIC>MOL_PROPERTY
VdW12
SciTegic.value.DoubleValue
5.859

@<SCITEGIC>MOL_PROPERTY
Bond
SciTegic.value.DoubleValue
0.094

@<SCITEGIC>MOL_PROPERTY
Angle
SciTegic.value.DoubleValue
2.818

@<SCITEGIC>MOL_PROPERTY
Pdih
SciTegic.value.DoubleValue
11.205

@<SCITEGIC>MOL_PROPERTY
Idih
SciTegic.value.DoubleValue
0.000

@<SCITEGIC>MOL_PROPERTY
Tether
SciTegic.value.DoubleValue
0.000

@<TRIPOS>MOLECULE
guest-s20_confgen4.mol2 : confsearch ligand conformer 919
          17          16           1
SMALL
USER_CHARGES
 
@<TRIPOS>ATOM
       1    C1      18.984541   16.384595   21.963729 C.2        1 MOL1         0.6132
       2    O1      19.547024   15.946521   20.979596 O.co2      1 MOL1        -0.6749
       3    O2      18.846839   15.755937   22.994665 O.co2      1 MOL1        -0.6749
       4    C2      18.410686   17.794030   21.900408 C.3        1 MOL1        -0.1955
       5    H1      17.427931   17.777278   22.385585 H          1 MOL1         0.0733
       6    H2      18.244264   18.049820   20.847066 H          1 MOL1         0.0733
       7    C3      19.306425   18.816636   22.573232 C.2        1 MOL1        -0.1395
       8    H3      19.394594   18.717598   23.654728 H          1 MOL1         0.0816
       9    C4      19.965132   19.781243   21.923727 C.2        1 MOL1        -0.1394
      10    H4      19.880671   19.876615   20.841678 H          1 MOL1         0.0816
      11    C5      20.860141   20.798133   22.596206 C.3        1 MOL1        -0.1826
      12    H5      20.610586   21.806198   22.238365 H          1 MOL1         0.0736
      13    H6      20.693199   20.798600   23.682179 H          1 MOL1         0.0736
      14    C6      22.345358   20.503873   22.308920 C.3        1 MOL1        -0.2882
      15    H7      22.549424   20.535417   21.230593 H          1 MOL1         0.0749
      16    H8      22.990290   21.244413   22.799564 H          1 MOL1         0.0749
      17    H9      22.624472   19.509102   22.680681 H          1 MOL1         0.0749
@<TRIPOS>BOND
    1     1     2    1
    2     1     3    2
    3     1     4    1
    4     4     5    1
    5     4     6    1
    6     4     7    1
    7     7     8    1
    8     7     9    2
    9     9    10    1
   10     9    11    1
   11    11    12    1
   12    11    13    1
   13    11    14    1
   14    14    15    1
   15    14    16    1
   16    14    17    1
@<TRIPOS>SUBSTRUCTURE
       1 MOL1            1 RESIDUE      1      MOL     
@<SCITEGIC>MOL_PROPERTY
VConf Rank
SciTegic.value.IntegerValue
919

@<SCITEGIC>MOL_PROPERTY
Conf_Id
SciTegic.value.IntegerValue
7

@<SCITEGIC>MOL_PROPERTY
Delta U+W
SciTegic.value.DoubleValue
-0.041

@<SCITEGIC>MOL_PROPERTY
U+W
SciTegic.value.DoubleValue
-49.468

@<SCITEGIC>MOL_PROPERTY
Grad RMS
SciTegic.value.DoubleValue
0.000000

@<SCITEGIC>MOL_PROPERTY
U
SciTegic.value.DoubleValue
14.121

@<SCITEGIC>MOL_PROPERTY
W
SciTegic.value.DoubleValue
-63.589

@<SCITEGIC>MOL_PROPERTY
W(PB)
SciTegic.value.DoubleValue
-65.660

@<SCITEGIC>MOL_PROPERTY
W(SA)
SciTegic.value.DoubleValue
2.071

@<SCITEGIC>MOL_PROPERTY
Valence
SciTegic.value.DoubleValue
15.230

@<SCITEGIC>MOL_PROPERTY
Coulomb
SciTegic.value.DoubleValue
-1.333

@<SCITEGIC>MOL_PROPERTY
VdW
SciTegic.value.DoubleValue
0.224

@<SCITEGIC>MOL_PROPERTY
VdW6
SciTegic.value.DoubleValue
-4.212

@<SCITEGIC>MOL_PROPERTY
VdW12
SciTegic.value.DoubleValue
4.436

@<SCITEGIC>MOL_PROPERTY
Bond
SciTegic.value.DoubleValue
0.044

@<SCITEGIC>MOL_PROPERTY
Angle
SciTegic.value.DoubleValue
2.230

@<SCITEGIC>MOL_PROPERTY
Pdih
SciTegic.value.DoubleValue
12.956

@<SCITEGIC>MOL_PROPERTY
Idih
SciTegic.value.DoubleValue
0.000

@<SCITEGIC>MOL_PROPERTY
Tether
SciTegic.value.DoubleValue
0.000

@<TRIPOS>MOLECULE
guest-s20_confgen4.mol2 : confsearch ligand conformer 920
          17          16           1
SMALL
USER_CHARGES
 
@<TRIPOS>ATOM
       1    C1      19.523593   20.232117   19.748470 C.2        1 MOL1         0.6132
       2    O1      20.582685   20.738293   19.433666 O.co2      1 MOL1        -0.6749
       3    O2      18.463255   20.825673   19.727057 O.co2      1 MOL1        -0.6749
       4    C2      19.520724   18.764820   20.166331 C.3        1 MOL1        -0.1955
       5    H1      20.314464   18.254651   19.608233 H          1 MOL1         0.0733
       6    H2      18.578643   18.320347   19.824793 H          1 MOL1         0.0733
       7    C3      19.696853   18.505465   21.655825 C.2        1 MOL1        -0.1395
       8    H3      19.691719   17.451849   21.932255 H          1 MOL1         0.0816
       9    C4      19.852292   19.437409   22.603618 C.2        1 MOL1        -0.1394
      10    H4      19.862019   20.497765   22.354050 H          1 MOL1         0.0816
      11    C5      20.022484   19.125928   24.073977 C.3        1 MOL1        -0.1826
      12    H5      19.346059   19.756343   24.666891 H          1 MOL1         0.0736
      13    H6      19.744484   18.083444   24.281575 H          1 MOL1         0.0736
      14    C6      21.476189   19.365650   24.525987 C.3        1 MOL1        -0.2882
      15    H7      21.593555   19.139454   25.593751 H          1 MOL1         0.0749
      16    H8      22.169590   18.726313   23.963815 H          1 MOL1         0.0749
      17    H9      21.768798   20.411551   24.364961 H          1 MOL1         0.0749
@<TRIPOS>BOND
    1     1     2    1
    2     1     3    2
    3     1     4    1
    4     4     5    1
    5     4     6    1
    6     4     7    1
    7     7     8    1
    8     7     9    2
    9     9    10    1
   10     9    11    1
   11    11    12    1
   12    11    13    1
   13    11    14    1
   14    14    15    1
   15    14    16    1
   16    14    17    1
@<TRIPOS>SUBSTRUCTURE
       1 MOL1            1 RESIDUE      1      MOL     
@<SCITEGIC>MOL_PROPERTY
VConf Rank
SciTegic.value.IntegerValue
920

@<SCITEGIC>MOL_PROPERTY
Conf_Id
SciTegic.value.IntegerValue
39

@<SCITEGIC>MOL_PROPERTY
Delta U+W
SciTegic.value.DoubleValue
-0.422

@<SCITEGIC>MOL_PROPERTY
U+W
SciTegic.value.DoubleValue
-49.849

@<SCITEGIC>MOL_PROPERTY
Grad RMS
SciTegic.value.DoubleValue
0.000000

@<SCITEGIC>MOL_PROPERTY
U
SciTegic.value.DoubleValue
14.465

@<SCITEGIC>MOL_PROPERTY
W
SciTegic.value.DoubleValue
-64.314

@<SCITEGIC>MOL_PROPERTY
W(PB)
SciTegic.value.DoubleValue
-66.406

@<SCITEGIC>MOL_PROPERTY
W(SA)
SciTegic.value.DoubleValue
2.093

@<SCITEGIC>MOL_PROPERTY
Valence
SciTegic.value.DoubleValue
14.072

@<SCITEGIC>MOL_PROPERTY
Coulomb
SciTegic.value.DoubleValue
-0.199

@<SCITEGIC>MOL_PROPERTY
VdW
SciTegic.value.DoubleValue
0.592

@<SCITEGIC>MOL_PROPERTY
VdW6
SciTegic.value.DoubleValue
-5.019

@<SCITEGIC>MOL_PROPERTY
VdW12
SciTegic.value.DoubleValue
5.611

@<SCITEGIC>MOL_PROPERTY
Bond
SciTegic.value.DoubleValue
0.085

@<SCITEGIC>MOL_PROPERTY
Angle
SciTegic.value.DoubleValue
2.748

@<SCITEGIC>MOL_PROPERTY
Pdih
SciTegic.value.DoubleValue
11.238

@<SCITEGIC>MOL_PROPERTY
Idih
SciTegic.value.DoubleValue
0.001

@<SCITEGIC>MOL_PROPERTY
Tether
SciTegic.value.DoubleValue
0.000

@<TRIPOS>MOLECULE
guest-s20_confgen4.mol2 : confsearch ligand conformer 921
          17          16           1
SMALL
USER_CHARGES
 
@<TRIPOS>ATOM
       1    C1      22.116304   19.881351   24.475815 C.2        1 MOL1         0.6132
       2    O1      22.441420   18.936513   25.167582 O.co2      1 MOL1        -0.6749
       3    O2      21.885764   20.989749   24.917543 O.co2      1 MOL1        -0.6749
       4    C2      21.997164   19.663595   22.973153 C.3        1 MOL1        -0.1955
       5    H1      22.834038   19.029066   22.659267 H          1 MOL1         0.0733
       6    H2      22.124579   20.632195   22.474936 H          1 MOL1         0.0733
       7    C3      20.680454   19.020106   22.582078 C.2        1 MOL1        -0.1395
       8    H3      20.551740   17.988668   22.908834 H          1 MOL1         0.0816
       9    C4      19.718924   19.638080   21.889404 C.2        1 MOL1        -0.1394
      10    H4      19.847056   20.670436   21.565547 H          1 MOL1         0.0816
      11    C5      18.405043   18.996056   21.503602 C.3        1 MOL1        -0.1826
      12    H5      18.246824   18.071008   22.074980 H          1 MOL1         0.0736
      13    H6      17.574933   19.669150   21.757366 H          1 MOL1         0.0736
      14    C6      18.365774   18.677515   19.996270 C.3        1 MOL1        -0.2882
      15    H7      19.172489   17.984564   19.723085 H          1 MOL1         0.0749
      16    H8      17.409880   18.212474   19.722245 H          1 MOL1         0.0749
      17    H9      18.483327   19.591584   19.399539 H          1 MOL1         0.0749
@<TRIPOS>BOND
    1     1     2    1
    2     1     3    2
    3     1     4    1
    4     4     5    1
    5     4     6    1
    6     4     7    1
    7     7     8    1
    8     7     9    2
    9     9    10    1
   10     9    11    1
   11    11    12    1
   12    11    13    1
   13    11    14    1
   14    14    15    1
   15    14    16    1
   16    14    17    1
@<TRIPOS>SUBSTRUCTURE
       1 MOL1            1 RESIDUE      1      MOL     
@<SCITEGIC>MOL_PROPERTY
VConf Rank
SciTegic.value.IntegerValue
921

@<SCITEGIC>MOL_PROPERTY
Conf_Id
SciTegic.value.IntegerValue
38

@<SCITEGIC>MOL_PROPERTY
Delta U+W
SciTegic.value.DoubleValue
0.000

@<SCITEGIC>MOL_PROPERTY
U+W
SciTegic.value.DoubleValue
-49.427

@<SCITEGIC>MOL_PROPERTY
Grad RMS
SciTegic.value.DoubleValue
0.000000

@<SCITEGIC>MOL_PROPERTY
U
SciTegic.value.DoubleValue
13.666

@<SCITEGIC>MOL_PROPERTY
W
SciTegic.value.DoubleValue
-63.093

@<SCITEGIC>MOL_PROPERTY
W(PB)
SciTegic.value.DoubleValue
-65.225

@<SCITEGIC>MOL_PROPERTY
W(SA)
SciTegic.value.DoubleValue
2.132

@<SCITEGIC>MOL_PROPERTY
Valence
SciTegic.value.DoubleValue
15.226

@<SCITEGIC>MOL_PROPERTY
Coulomb
SciTegic.value.DoubleValue
-1.822

@<SCITEGIC>MOL_PROPERTY
VdW
SciTegic.value.DoubleValue
0.261

@<SCITEGIC>MOL_PROPERTY
VdW6
SciTegic.value.DoubleValue
-4.165

@<SCITEGIC>MOL_PROPERTY
VdW12
SciTegic.value.DoubleValue
4.426

@<SCITEGIC>MOL_PROPERTY
Bond
SciTegic.value.DoubleValue
0.044

@<SCITEGIC>MOL_PROPERTY
Angle
SciTegic.value.DoubleValue
2.229

@<SCITEGIC>MOL_PROPERTY
Pdih
SciTegic.value.DoubleValue
12.953

@<SCITEGIC>MOL_PROPERTY
Idih
SciTegic.value.DoubleValue
0.000

@<SCITEGIC>MOL_PROPERTY
Tether
SciTegic.value.DoubleValue
0.000

@<TRIPOS>MOLECULE
guest-s20_confgen4.mol2 : confsearch ligand conformer 922
          17          16           1
SMALL
USER_CHARGES
 
@<TRIPOS>ATOM
       1    C1      22.530352   19.151125   20.098044 C.2        1 MOL1         0.6132
       2    O1      23.476922   18.630133   20.654273 O.co2      1 MOL1        -0.6749
       3    O2      22.635781   20.076094   19.316841 O.co2      1 MOL1        -0.6749
       4    C2      21.135606   18.613637   20.390264 C.3        1 MOL1        -0.1955
       5    H1      21.232736   17.577644   20.736565 H          1 MOL1         0.0733
       6    H2      20.582706   18.584938   19.444228 H          1 MOL1         0.0733
       7    C3      20.388403   19.458178   21.404750 C.2        1 MOL1        -0.1395
       8    H3      20.112593   20.456358   21.065976 H          1 MOL1         0.0816
       9    C4      20.073113   19.047960   22.637042 C.2        1 MOL1        -0.1394
      10    H4      20.352011   18.050855   22.976244 H          1 MOL1         0.0816
      11    C5      19.331478   19.892907   23.648657 C.3        1 MOL1        -0.1826
      12    H5      19.854676   19.859979   24.613909 H          1 MOL1         0.0736
      13    H6      19.317000   20.945411   23.333626 H          1 MOL1         0.0736
      14    C6      17.884404   19.395283   23.831428 C.3        1 MOL1        -0.2882
      15    H7      17.869277   18.355468   24.183542 H          1 MOL1         0.0749
      16    H8      17.351577   20.011751   24.567057 H          1 MOL1         0.0749
      17    H9      17.332889   19.443383   22.883210 H          1 MOL1         0.0749
@<TRIPOS>BOND
    1     1     2    1
    2     1     3    2
    3     1     4    1
    4     4     5    1
    5     4     6    1
    6     4     7    1
    7     7     8    1
    8     7     9    2
    9     9    10    1
   10     9    11    1
   11    11    12    1
   12    11    13    1
   13    11    14    1
   14    14    15    1
   15    14    16    1
   16    14    17    1
@<TRIPOS>SUBSTRUCTURE
       1 MOL1            1 RESIDUE      1      MOL     
@<SCITEGIC>MOL_PROPERTY
VConf Rank
SciTegic.value.IntegerValue
922

@<SCITEGIC>MOL_PROPERTY
Conf_Id
SciTegic.value.IntegerValue
35

@<SCITEGIC>MOL_PROPERTY
Delta U+W
SciTegic.value.DoubleValue
-0.102

@<SCITEGIC>MOL_PROPERTY
U+W
SciTegic.value.DoubleValue
-49.529

@<SCITEGIC>MOL_PROPERTY
Grad RMS
SciTegic.value.DoubleValue
0.000000

@<SCITEGIC>MOL_PROPERTY
U
SciTegic.value.DoubleValue
13.666

@<SCITEGIC>MOL_PROPERTY
W
SciTegic.value.DoubleValue
-63.195

@<SCITEGIC>MOL_PROPERTY
W(PB)
SciTegic.value.DoubleValue
-65.299

@<SCITEGIC>MOL_PROPERTY
W(SA)
SciTegic.value.DoubleValue
2.103

@<SCITEGIC>MOL_PROPERTY
Valence
SciTegic.value.DoubleValue
15.226

@<SCITEGIC>MOL_PROPERTY
Coulomb
SciTegic.value.DoubleValue
-1.822

@<SCITEGIC>MOL_PROPERTY
VdW
SciTegic.value.DoubleValue
0.261

@<SCITEGIC>MOL_PROPERTY
VdW6
SciTegic.value.DoubleValue
-4.165

@<SCITEGIC>MOL_PROPERTY
VdW12
SciTegic.value.DoubleValue
4.426

@<SCITEGIC>MOL_PROPERTY
Bond
SciTegic.value.DoubleValue
0.044

@<SCITEGIC>MOL_PROPERTY
Angle
SciTegic.value.DoubleValue
2.229

@<SCITEGIC>MOL_PROPERTY
Pdih
SciTegic.value.DoubleValue
12.953

@<SCITEGIC>MOL_PROPERTY
Idih
SciTegic.value.DoubleValue
0.000

@<SCITEGIC>MOL_PROPERTY
Tether
SciTegic.value.DoubleValue
0.000

@<TRIPOS>MOLECULE
guest-s20_confgen4.mol2 : confsearch ligand conformer 923
          17          16           1
SMALL
USER_CHARGES
 
@<TRIPOS>ATOM
       1    C1      22.778490   20.563943   22.371462 C.2        1 MOL1         0.6132
       2    O1      23.352656   20.275835   23.403110 O.co2      1 MOL1        -0.6749
       3    O2      23.328821   20.620850   21.289452 O.co2      1 MOL1        -0.6749
       4    C2      21.290215   20.879748   22.442178 C.3        1 MOL1        -0.1955
       5    H1      21.032364   21.510769   21.583161 H          1 MOL1         0.0733
       6    H2      21.117727   21.479377   23.343401 H          1 MOL1         0.0733
       7    C3      20.432430   19.628993   22.477118 C.2        1 MOL1        -0.1395
       8    H3      20.527434   19.038238   23.386554 H          1 MOL1         0.0816
       9    C4      19.618809   19.253065   21.482426 C.2        1 MOL1        -0.1394
      10    H4      19.553252   19.867734   20.585226 H          1 MOL1         0.0816
      11    C5      18.737679   18.015691   21.449166 C.3        1 MOL1        -0.1826
      12    H5      17.694851   18.324378   21.295127 H          1 MOL1         0.0736
      13    H6      19.000642   17.414592   20.568229 H          1 MOL1         0.0736
      14    C6      18.817714   17.124142   22.708040 C.3        1 MOL1        -0.2882
      15    H7      18.508475   17.678545   23.603814 H          1 MOL1         0.0749
      16    H8      18.156027   16.254181   22.606219 H          1 MOL1         0.0749
      17    H9      19.839278   16.753040   22.863536 H          1 MOL1         0.0749
@<TRIPOS>BOND
    1     1     2    1
    2     1     3    2
    3     1     4    1
    4     4     5    1
    5     4     6    1
    6     4     7    1
    7     7     8    1
    8     7     9    2
    9     9    10    1
   10     9    11    1
   11    11    12    1
   12    11    13    1
   13    11    14    1
   14    14    15    1
   15    14    16    1
   16    14    17    1
@<TRIPOS>SUBSTRUCTURE
       1 MOL1            1 RESIDUE      1      MOL     
@<SCITEGIC>MOL_PROPERTY
VConf Rank
SciTegic.value.IntegerValue
923

@<SCITEGIC>MOL_PROPERTY
Conf_Id
SciTegic.value.IntegerValue
19

@<SCITEGIC>MOL_PROPERTY
Delta U+W
SciTegic.value.DoubleValue
-0.496

@<SCITEGIC>MOL_PROPERTY
U+W
SciTegic.value.DoubleValue
-49.923

@<SCITEGIC>MOL_PROPERTY
Grad RMS
SciTegic.value.DoubleValue
0.000000

@<SCITEGIC>MOL_PROPERTY
U
SciTegic.value.DoubleValue
13.863

@<SCITEGIC>MOL_PROPERTY
W
SciTegic.value.DoubleValue
-63.786

@<SCITEGIC>MOL_PROPERTY
W(PB)
SciTegic.value.DoubleValue
-65.856

@<SCITEGIC>MOL_PROPERTY
W(SA)
SciTegic.value.DoubleValue
2.070

@<SCITEGIC>MOL_PROPERTY
Valence
SciTegic.value.DoubleValue
14.117

@<SCITEGIC>MOL_PROPERTY
Coulomb
SciTegic.value.DoubleValue
-1.228

@<SCITEGIC>MOL_PROPERTY
VdW
SciTegic.value.DoubleValue
0.974

@<SCITEGIC>MOL_PROPERTY
VdW6
SciTegic.value.DoubleValue
-4.885

@<SCITEGIC>MOL_PROPERTY
VdW12
SciTegic.value.DoubleValue
5.859

@<SCITEGIC>MOL_PROPERTY
Bond
SciTegic.value.DoubleValue
0.094

@<SCITEGIC>MOL_PROPERTY
Angle
SciTegic.value.DoubleValue
2.818

@<SCITEGIC>MOL_PROPERTY
Pdih
SciTegic.value.DoubleValue
11.205

@<SCITEGIC>MOL_PROPERTY
Idih
SciTegic.value.DoubleValue
0.000

@<SCITEGIC>MOL_PROPERTY
Tether
SciTegic.value.DoubleValue
0.000

@<TRIPOS>MOLECULE
guest-s20_confgen4.mol2 : confsearch ligand conformer 924
          17          16           1
SMALL
USER_CHARGES
 
@<TRIPOS>ATOM
       1    C1      19.693955   20.439893   19.659800 C.2        1 MOL1         0.6132
       2    O1      19.920474   19.563368   18.849117 O.co2      1 MOL1        -0.6749
       3    O2      18.724040   21.170249   19.606457 O.co2      1 MOL1        -0.6749
       4    C2      20.683660   20.643104   20.799544 C.3        1 MOL1        -0.1955
       5    H1      20.822684   21.722080   20.933586 H          1 MOL1         0.0733
       6    H2      21.651821   20.230648   20.491002 H          1 MOL1         0.0733
       7    C3      20.212978   20.013409   22.096736 C.2        1 MOL1        -0.1395
       8    H3      19.336649   20.477809   22.547951 H          1 MOL1         0.0816
       9    C4      20.796552   18.959353   22.675203 C.2        1 MOL1        -0.1394
      10    H4      21.669703   18.492180   22.220872 H          1 MOL1         0.0816
      11    C5      20.323847   18.331162   23.967202 C.3        1 MOL1        -0.1826
      12    H5      21.177049   18.187892   24.643990 H          1 MOL1         0.0736
      13    H6      19.619909   18.998048   24.483868 H          1 MOL1         0.0736
      14    C6      19.641883   16.974148   23.705613 C.3        1 MOL1        -0.2882
      15    H7      20.336217   16.273296   23.223812 H          1 MOL1         0.0749
      16    H8      19.300453   16.522985   24.646328 H          1 MOL1         0.0749
      17    H9      18.769702   17.096384   23.049839 H          1 MOL1         0.0749
@<TRIPOS>BOND
    1     1     2    1
    2     1     3    2
    3     1     4    1
    4     4     5    1
    5     4     6    1
    6     4     7    1
    7     7     8    1
    8     7     9    2
    9     9    10    1
   10     9    11    1
   11    11    12    1
   12    11    13    1
   13    11    14    1
   14    14    15    1
   15    14    16    1
   16    14    17    1
@<TRIPOS>SUBSTRUCTURE
       1 MOL1            1 RESIDUE      1      MOL     
@<SCITEGIC>MOL_PROPERTY
VConf Rank
SciTegic.value.IntegerValue
924

@<SCITEGIC>MOL_PROPERTY
Conf_Id
SciTegic.value.IntegerValue
7

@<SCITEGIC>MOL_PROPERTY
Delta U+W
SciTegic.value.DoubleValue
-0.041

@<SCITEGIC>MOL_PROPERTY
U+W
SciTegic.value.DoubleValue
-49.468

@<SCITEGIC>MOL_PROPERTY
Grad RMS
SciTegic.value.DoubleValue
0.000000

@<SCITEGIC>MOL_PROPERTY
U
SciTegic.value.DoubleValue
14.121

@<SCITEGIC>MOL_PROPERTY
W
SciTegic.value.DoubleValue
-63.589

@<SCITEGIC>MOL_PROPERTY
W(PB)
SciTegic.value.DoubleValue
-65.660

@<SCITEGIC>MOL_PROPERTY
W(SA)
SciTegic.value.DoubleValue
2.071

@<SCITEGIC>MOL_PROPERTY
Valence
SciTegic.value.DoubleValue
15.230

@<SCITEGIC>MOL_PROPERTY
Coulomb
SciTegic.value.DoubleValue
-1.333

@<SCITEGIC>MOL_PROPERTY
VdW
SciTegic.value.DoubleValue
0.224

@<SCITEGIC>MOL_PROPERTY
VdW6
SciTegic.value.DoubleValue
-4.212

@<SCITEGIC>MOL_PROPERTY
VdW12
SciTegic.value.DoubleValue
4.436

@<SCITEGIC>MOL_PROPERTY
Bond
SciTegic.value.DoubleValue
0.044

@<SCITEGIC>MOL_PROPERTY
Angle
SciTegic.value.DoubleValue
2.230

@<SCITEGIC>MOL_PROPERTY
Pdih
SciTegic.value.DoubleValue
12.956

@<SCITEGIC>MOL_PROPERTY
Idih
SciTegic.value.DoubleValue
0.000

@<SCITEGIC>MOL_PROPERTY
Tether
SciTegic.value.DoubleValue
0.000

@<TRIPOS>MOLECULE
guest-s20_confgen4.mol2 : confsearch ligand conformer 925
          17          16           1
SMALL
USER_CHARGES
 
@<TRIPOS>ATOM
       1    C1      22.209306   18.231422   20.776807 C.2        1 MOL1         0.6132
       2    O1      23.075817   19.058717   20.981097 O.co2      1 MOL1        -0.6749
       3    O2      21.852721   17.893282   19.665236 O.co2      1 MOL1        -0.6749
       4    C2      21.553313   17.560955   21.980022 C.3        1 MOL1        -0.1955
       5    H1      22.301723   17.496270   22.778437 H          1 MOL1         0.0733
       6    H2      21.319270   16.526770   21.701802 H          1 MOL1         0.0733
       7    C3      20.299902   18.242960   22.509837 C.2        1 MOL1        -0.1395
       8    H3      19.847777   17.748081   23.368454 H          1 MOL1         0.0816
       9    C4      19.742793   19.356281   22.018775 C.2        1 MOL1        -0.1394
      10    H4      20.175266   19.871149   21.161680 H          1 MOL1         0.0816
      11    C5      18.492635   19.994230   22.582751 C.3        1 MOL1        -0.1826
      12    H5      17.793049   20.222498   21.767280 H          1 MOL1         0.0736
      13    H6      17.974877   19.297488   23.256271 H          1 MOL1         0.0736
      14    C6      18.828843   21.288673   23.348530 C.3        1 MOL1        -0.2882
      15    H7      17.918085   21.747952   23.754292 H          1 MOL1         0.0749
      16    H8      19.508062   21.080919   24.185844 H          1 MOL1         0.0749
      17    H9      19.313968   22.019425   22.688141 H          1 MOL1         0.0749
@<TRIPOS>BOND
    1     1     2    1
    2     1     3    2
    3     1     4    1
    4     4     5    1
    5     4     6    1
    6     4     7    1
    7     7     8    1
    8     7     9    2
    9     9    10    1
   10     9    11    1
   11    11    12    1
   12    11    13    1
   13    11    14    1
   14    14    15    1
   15    14    16    1
   16    14    17    1
@<TRIPOS>SUBSTRUCTURE
       1 MOL1            1 RESIDUE      1      MOL     
@<SCITEGIC>MOL_PROPERTY
VConf Rank
SciTegic.value.IntegerValue
925

@<SCITEGIC>MOL_PROPERTY
Conf_Id
SciTegic.value.IntegerValue
39

@<SCITEGIC>MOL_PROPERTY
Delta U+W
SciTegic.value.DoubleValue
-0.422

@<SCITEGIC>MOL_PROPERTY
U+W
SciTegic.value.DoubleValue
-49.849

@<SCITEGIC>MOL_PROPERTY
Grad RMS
SciTegic.value.DoubleValue
0.000000

@<SCITEGIC>MOL_PROPERTY
U
SciTegic.value.DoubleValue
14.465

@<SCITEGIC>MOL_PROPERTY
W
SciTegic.value.DoubleValue
-64.314

@<SCITEGIC>MOL_PROPERTY
W(PB)
SciTegic.value.DoubleValue
-66.406

@<SCITEGIC>MOL_PROPERTY
W(SA)
SciTegic.value.DoubleValue
2.093

@<SCITEGIC>MOL_PROPERTY
Valence
SciTegic.value.DoubleValue
14.072

@<SCITEGIC>MOL_PROPERTY
Coulomb
SciTegic.value.DoubleValue
-0.199

@<SCITEGIC>MOL_PROPERTY
VdW
SciTegic.value.DoubleValue
0.592

@<SCITEGIC>MOL_PROPERTY
VdW6
SciTegic.value.DoubleValue
-5.019

@<SCITEGIC>MOL_PROPERTY
VdW12
SciTegic.value.DoubleValue
5.611

@<SCITEGIC>MOL_PROPERTY
Bond
SciTegic.value.DoubleValue
0.085

@<SCITEGIC>MOL_PROPERTY
Angle
SciTegic.value.DoubleValue
2.748

@<SCITEGIC>MOL_PROPERTY
Pdih
SciTegic.value.DoubleValue
11.238

@<SCITEGIC>MOL_PROPERTY
Idih
SciTegic.value.DoubleValue
0.001

@<SCITEGIC>MOL_PROPERTY
Tether
SciTegic.value.DoubleValue
0.000

@<TRIPOS>MOLECULE
guest-s20_confgen4.mol2 : confsearch ligand conformer 926
          17          16           1
SMALL
USER_CHARGES
 
@<TRIPOS>ATOM
       1    C1      21.386534   22.165560   22.254157 C.2        1 MOL1         0.6132
       2    O1      22.555119   22.226641   22.582238 O.co2      1 MOL1        -0.6749
       3    O2      20.541412   22.954589   22.628353 O.co2      1 MOL1        -0.6749
       4    C2      20.961292   21.041363   21.318767 C.3        1 MOL1        -0.1955
       5    H1      21.741182   20.926277   20.557166 H          1 MOL1         0.0733
       6    H2      20.048418   21.354960   20.798230 H          1 MOL1         0.0733
       7    C3      20.747651   19.728565   22.047919 C.2        1 MOL1        -0.1395
       8    H3      21.648484   19.271412   22.456225 H          1 MOL1         0.0816
       9    C4      19.557392   19.141021   22.203811 C.2        1 MOL1        -0.1394
      10    H4      18.656608   19.600197   21.797848 H          1 MOL1         0.0816
      11    C5      19.345761   17.833852   22.934457 C.3        1 MOL1        -0.1826
      12    H5      20.235984   17.574456   23.523895 H          1 MOL1         0.0736
      13    H6      18.515578   17.937234   23.646246 H          1 MOL1         0.0736
      14    C6      19.036932   16.691322   21.947385 C.3        1 MOL1        -0.2882
      15    H7      19.865622   16.552011   21.240656 H          1 MOL1         0.0749
      16    H8      18.883723   15.745638   22.483384 H          1 MOL1         0.0749
      17    H9      18.128022   16.907013   21.370506 H          1 MOL1         0.0749
@<TRIPOS>BOND
    1     1     2    1
    2     1     3    2
    3     1     4    1
    4     4     5    1
    5     4     6    1
    6     4     7    1
    7     7     8    1
    8     7     9    2
    9     9    10    1
   10     9    11    1
   11    11    12    1
   12    11    13    1
   13    11    14    1
   14    14    15    1
   15    14    16    1
   16    14    17    1
@<TRIPOS>SUBSTRUCTURE
       1 MOL1            1 RESIDUE      1      MOL     
@<SCITEGIC>MOL_PROPERTY
VConf Rank
SciTegic.value.IntegerValue
926

@<SCITEGIC>MOL_PROPERTY
Conf_Id
SciTegic.value.IntegerValue
38

@<SCITEGIC>MOL_PROPERTY
Delta U+W
SciTegic.value.DoubleValue
0.000

@<SCITEGIC>MOL_PROPERTY
U+W
SciTegic.value.DoubleValue
-49.427

@<SCITEGIC>MOL_PROPERTY
Grad RMS
SciTegic.value.DoubleValue
0.000000

@<SCITEGIC>MOL_PROPERTY
U
SciTegic.value.DoubleValue
13.666

@<SCITEGIC>MOL_PROPERTY
W
SciTegic.value.DoubleValue
-63.093

@<SCITEGIC>MOL_PROPERTY
W(PB)
SciTegic.value.DoubleValue
-65.225

@<SCITEGIC>MOL_PROPERTY
W(SA)
SciTegic.value.DoubleValue
2.132

@<SCITEGIC>MOL_PROPERTY
Valence
SciTegic.value.DoubleValue
15.226

@<SCITEGIC>MOL_PROPERTY
Coulomb
SciTegic.value.DoubleValue
-1.822

@<SCITEGIC>MOL_PROPERTY
VdW
SciTegic.value.DoubleValue
0.261

@<SCITEGIC>MOL_PROPERTY
VdW6
SciTegic.value.DoubleValue
-4.165

@<SCITEGIC>MOL_PROPERTY
VdW12
SciTegic.value.DoubleValue
4.426

@<SCITEGIC>MOL_PROPERTY
Bond
SciTegic.value.DoubleValue
0.044

@<SCITEGIC>MOL_PROPERTY
Angle
SciTegic.value.DoubleValue
2.229

@<SCITEGIC>MOL_PROPERTY
Pdih
SciTegic.value.DoubleValue
12.953

@<SCITEGIC>MOL_PROPERTY
Idih
SciTegic.value.DoubleValue
0.000

@<SCITEGIC>MOL_PROPERTY
Tether
SciTegic.value.DoubleValue
0.000

@<TRIPOS>MOLECULE
guest-s20_confgen4.mol2 : confsearch ligand conformer 927
          17          16           1
SMALL
USER_CHARGES
 
@<TRIPOS>ATOM
       1    C1      19.639904   21.683712   24.100179 C.2        1 MOL1         0.6132
       2    O1      18.472827   21.710108   24.437899 O.co2      1 MOL1        -0.6749
       3    O2      20.304718   22.681473   23.901546 O.co2      1 MOL1        -0.6749
       4    C2      20.309331   20.327508   23.920787 C.3        1 MOL1        -0.1955
       5    H1      19.759828   19.591680   24.520156 H          1 MOL1         0.0733
       6    H2      21.319180   20.394136   24.341824 H          1 MOL1         0.0733
       7    C3      20.378435   19.901647   22.466616 C.2        1 MOL1        -0.1395
       8    H3      21.040959   20.496666   21.838752 H          1 MOL1         0.0816
       9    C4      19.691129   18.878355   21.950173 C.2        1 MOL1        -0.1394
      10    H4      19.026386   18.285769   22.577882 H          1 MOL1         0.0816
      11    C5      19.758259   18.457624   20.499035 C.3        1 MOL1        -0.1826
      12    H5      18.741889   18.325218   20.104075 H          1 MOL1         0.0736
      13    H6      20.232347   19.241921   19.892952 H          1 MOL1         0.0736
      14    C6      20.546748   17.143142   20.339398 C.3        1 MOL1        -0.2882
      15    H7      20.072391   16.330622   20.905281 H          1 MOL1         0.0749
      16    H8      20.591449   16.842583   19.284527 H          1 MOL1         0.0749
      17    H9      21.575745   17.258942   20.704576 H          1 MOL1         0.0749
@<TRIPOS>BOND
    1     1     2    1
    2     1     3    2
    3     1     4    1
    4     4     5    1
    5     4     6    1
    6     4     7    1
    7     7     8    1
    8     7     9    2
    9     9    10    1
   10     9    11    1
   11    11    12    1
   12    11    13    1
   13    11    14    1
   14    14    15    1
   15    14    16    1
   16    14    17    1
@<TRIPOS>SUBSTRUCTURE
       1 MOL1            1 RESIDUE      1      MOL     
@<SCITEGIC>MOL_PROPERTY
VConf Rank
SciTegic.value.IntegerValue
927

@<SCITEGIC>MOL_PROPERTY
Conf_Id
SciTegic.value.IntegerValue
35

@<SCITEGIC>MOL_PROPERTY
Delta U+W
SciTegic.value.DoubleValue
-0.102

@<SCITEGIC>MOL_PROPERTY
U+W
SciTegic.value.DoubleValue
-49.529

@<SCITEGIC>MOL_PROPERTY
Grad RMS
SciTegic.value.DoubleValue
0.000000

@<SCITEGIC>MOL_PROPERTY
U
SciTegic.value.DoubleValue
13.666

@<SCITEGIC>MOL_PROPERTY
W
SciTegic.value.DoubleValue
-63.195

@<SCITEGIC>MOL_PROPERTY
W(PB)
SciTegic.value.DoubleValue
-65.299

@<SCITEGIC>MOL_PROPERTY
W(SA)
SciTegic.value.DoubleValue
2.103

@<SCITEGIC>MOL_PROPERTY
Valence
SciTegic.value.DoubleValue
15.226

@<SCITEGIC>MOL_PROPERTY
Coulomb
SciTegic.value.DoubleValue
-1.822

@<SCITEGIC>MOL_PROPERTY
VdW
SciTegic.value.DoubleValue
0.261

@<SCITEGIC>MOL_PROPERTY
VdW6
SciTegic.value.DoubleValue
-4.165

@<SCITEGIC>MOL_PROPERTY
VdW12
SciTegic.value.DoubleValue
4.426

@<SCITEGIC>MOL_PROPERTY
Bond
SciTegic.value.DoubleValue
0.044

@<SCITEGIC>MOL_PROPERTY
Angle
SciTegic.value.DoubleValue
2.229

@<SCITEGIC>MOL_PROPERTY
Pdih
SciTegic.value.DoubleValue
12.953

@<SCITEGIC>MOL_PROPERTY
Idih
SciTegic.value.DoubleValue
0.000

@<SCITEGIC>MOL_PROPERTY
Tether
SciTegic.value.DoubleValue
0.000

@<TRIPOS>MOLECULE
guest-s20_confgen4.mol2 : confsearch ligand conformer 928
          17          16           1
SMALL
USER_CHARGES
 
@<TRIPOS>ATOM
       1    C1      19.197193   20.864224   20.073103 C.2        1 MOL1         0.6132
       2    O1      19.227813   20.284136   19.005614 O.co2      1 MOL1        -0.6749
       3    O2      18.245737   21.515606   20.456877 O.co2      1 MOL1        -0.6749
       4    C2      20.422640   20.776583   20.973264 C.3        1 MOL1        -0.1955
       5    H1      20.422298   21.648158   21.638803 H          1 MOL1         0.0733
       6    H2      21.311651   20.859397   20.337409 H          1 MOL1         0.0733
       7    C3      20.468791   19.484453   21.766785 C.2        1 MOL1        -0.1395
       8    H3      20.629203   18.589324   21.168369 H          1 MOL1         0.0816
       9    C4      20.321562   19.418337   23.095944 C.2        1 MOL1        -0.1394
      10    H4      20.158197   20.335348   23.661176 H          1 MOL1         0.0816
      11    C5      20.352861   18.162881   23.951187 C.3        1 MOL1        -0.1826
      12    H5      21.140164   18.267639   24.709927 H          1 MOL1         0.0736
      13    H6      19.410939   18.089889   24.511522 H          1 MOL1         0.0736
      14    C6      20.577104   16.848288   23.171709 C.3        1 MOL1        -0.2882
      15    H7      21.538133   16.863874   22.641066 H          1 MOL1         0.0749
      16    H8      20.585713   15.991021   23.857310 H          1 MOL1         0.0749
      17    H9      19.776865   16.683961   22.438153 H          1 MOL1         0.0749
@<TRIPOS>BOND
    1     1     2    1
    2     1     3    2
    3     1     4    1
    4     4     5    1
    5     4     6    1
    6     4     7    1
    7     7     8    1
    8     7     9    2
    9     9    10    1
   10     9    11    1
   11    11    12    1
   12    11    13    1
   13    11    14    1
   14    14    15    1
   15    14    16    1
   16    14    17    1
@<TRIPOS>SUBSTRUCTURE
       1 MOL1            1 RESIDUE      1      MOL     
@<SCITEGIC>MOL_PROPERTY
VConf Rank
SciTegic.value.IntegerValue
928

@<SCITEGIC>MOL_PROPERTY
Conf_Id
SciTegic.value.IntegerValue
19

@<SCITEGIC>MOL_PROPERTY
Delta U+W
SciTegic.value.DoubleValue
-0.496

@<SCITEGIC>MOL_PROPERTY
U+W
SciTegic.value.DoubleValue
-49.923

@<SCITEGIC>MOL_PROPERTY
Grad RMS
SciTegic.value.DoubleValue
0.000000

@<SCITEGIC>MOL_PROPERTY
U
SciTegic.value.DoubleValue
13.863

@<SCITEGIC>MOL_PROPERTY
W
SciTegic.value.DoubleValue
-63.786

@<SCITEGIC>MOL_PROPERTY
W(PB)
SciTegic.value.DoubleValue
-65.856

@<SCITEGIC>MOL_PROPERTY
W(SA)
SciTegic.value.DoubleValue
2.070

@<SCITEGIC>MOL_PROPERTY
Valence
SciTegic.value.DoubleValue
14.117

@<SCITEGIC>MOL_PROPERTY
Coulomb
SciTegic.value.DoubleValue
-1.228

@<SCITEGIC>MOL_PROPERTY
VdW
SciTegic.value.DoubleValue
0.974

@<SCITEGIC>MOL_PROPERTY
VdW6
SciTegic.value.DoubleValue
-4.885

@<SCITEGIC>MOL_PROPERTY
VdW12
SciTegic.value.DoubleValue
5.859

@<SCITEGIC>MOL_PROPERTY
Bond
SciTegic.value.DoubleValue
0.094

@<SCITEGIC>MOL_PROPERTY
Angle
SciTegic.value.DoubleValue
2.818

@<SCITEGIC>MOL_PROPERTY
Pdih
SciTegic.value.DoubleValue
11.205

@<SCITEGIC>MOL_PROPERTY
Idih
SciTegic.value.DoubleValue
0.000

@<SCITEGIC>MOL_PROPERTY
Tether
SciTegic.value.DoubleValue
0.000

@<TRIPOS>MOLECULE
guest-s20_confgen4.mol2 : confsearch ligand conformer 929
          17          16           1
SMALL
USER_CHARGES
 
@<TRIPOS>ATOM
       1    C1      22.365201   19.743872   24.024334 C.2        1 MOL1         0.6132
       2    O1      23.019957   20.518445   23.354899 O.co2      1 MOL1        -0.6749
       3    O2      22.070259   19.943178   25.186353 O.co2      1 MOL1        -0.6749
       4    C2      21.896730   18.447137   23.377154 C.3        1 MOL1        -0.1955
       5    H1      22.034339   17.640456   24.106409 H          1 MOL1         0.0733
       6    H2      22.556668   18.228970   22.528898 H          1 MOL1         0.0733
       7    C3      20.446763   18.508872   22.936079 C.2        1 MOL1        -0.1395
       8    H3      19.717324   18.569026   23.743245 H          1 MOL1         0.0816
       9    C4      20.048675   18.500769   21.660275 C.2        1 MOL1        -0.1394
      10    H4      20.778784   18.445805   20.853442 H          1 MOL1         0.0816
      11    C5      18.602456   18.565357   21.222535 C.3        1 MOL1        -0.1826
      12    H5      18.406535   17.786574   20.473112 H          1 MOL1         0.0736
      13    H6      17.934597   18.361860   22.070922 H          1 MOL1         0.0736
      14    C6      18.265344   19.946766   20.628350 C.3        1 MOL1        -0.2882
      15    H7      18.892762   20.160318   19.753041 H          1 MOL1         0.0749
      16    H8      17.214737   19.988267   20.312803 H          1 MOL1         0.0749
      17    H9      18.430447   20.740337   21.369070 H          1 MOL1         0.0749
@<TRIPOS>BOND
    1     1     2    1
    2     1     3    2
    3     1     4    1
    4     4     5    1
    5     4     6    1
    6     4     7    1
    7     7     8    1
    8     7     9    2
    9     9    10    1
   10     9    11    1
   11    11    12    1
   12    11    13    1
   13    11    14    1
   14    14    15    1
   15    14    16    1
   16    14    17    1
@<TRIPOS>SUBSTRUCTURE
       1 MOL1            1 RESIDUE      1      MOL     
@<SCITEGIC>MOL_PROPERTY
VConf Rank
SciTegic.value.IntegerValue
929

@<SCITEGIC>MOL_PROPERTY
Conf_Id
SciTegic.value.IntegerValue
7

@<SCITEGIC>MOL_PROPERTY
Delta U+W
SciTegic.value.DoubleValue
-0.041

@<SCITEGIC>MOL_PROPERTY
U+W
SciTegic.value.DoubleValue
-49.468

@<SCITEGIC>MOL_PROPERTY
Grad RMS
SciTegic.value.DoubleValue
0.000000

@<SCITEGIC>MOL_PROPERTY
U
SciTegic.value.DoubleValue
14.121

@<SCITEGIC>MOL_PROPERTY
W
SciTegic.value.DoubleValue
-63.589

@<SCITEGIC>MOL_PROPERTY
W(PB)
SciTegic.value.DoubleValue
-65.660

@<SCITEGIC>MOL_PROPERTY
W(SA)
SciTegic.value.DoubleValue
2.071

@<SCITEGIC>MOL_PROPERTY
Valence
SciTegic.value.DoubleValue
15.230

@<SCITEGIC>MOL_PROPERTY
Coulomb
SciTegic.value.DoubleValue
-1.333

@<SCITEGIC>MOL_PROPERTY
VdW
SciTegic.value.DoubleValue
0.224

@<SCITEGIC>MOL_PROPERTY
VdW6
SciTegic.value.DoubleValue
-4.212

@<SCITEGIC>MOL_PROPERTY
VdW12
SciTegic.value.DoubleValue
4.436

@<SCITEGIC>MOL_PROPERTY
Bond
SciTegic.value.DoubleValue
0.044

@<SCITEGIC>MOL_PROPERTY
Angle
SciTegic.value.DoubleValue
2.230

@<SCITEGIC>MOL_PROPERTY
Pdih
SciTegic.value.DoubleValue
12.956

@<SCITEGIC>MOL_PROPERTY
Idih
SciTegic.value.DoubleValue
0.000

@<SCITEGIC>MOL_PROPERTY
Tether
SciTegic.value.DoubleValue
0.000

@<TRIPOS>MOLECULE
guest-s20_confgen4.mol2 : confsearch ligand conformer 930
          17          16           1
SMALL
USER_CHARGES
 
@<TRIPOS>ATOM
       1    C1      20.216804   21.386859   20.491403 C.2        1 MOL1         0.6132
       2    O1      21.408496   21.624733   20.474727 O.co2      1 MOL1        -0.6749
       3    O2      19.368653   22.223224   20.732685 O.co2      1 MOL1        -0.6749
       4    C2      19.759143   19.968653   20.164578 C.3        1 MOL1        -0.1955
       5    H1      20.470283   19.542698   19.447215 H          1 MOL1         0.0733
       6    H2      18.801965   20.038491   19.634810 H          1 MOL1         0.0733
       7    C3      19.615404   19.033432   21.356877 C.2        1 MOL1        -0.1395
       8    H3      19.287701   18.026529   21.101333 H          1 MOL1         0.0816
       9    C4      19.854356   19.346852   22.635808 C.2        1 MOL1        -0.1394
      10    H4      20.183822   20.346046   22.918288 H          1 MOL1         0.0816
      11    C5      19.694350   18.378172   23.786460 C.3        1 MOL1        -0.1826
      12    H5      19.120770   18.853406   24.593727 H          1 MOL1         0.0736
      13    H6      19.121376   17.495658   23.470197 H          1 MOL1         0.0736
      14    C6      21.065968   17.928840   24.326646 C.3        1 MOL1        -0.2882
      15    H7      20.943853   17.227318   25.162118 H          1 MOL1         0.0749
      16    H8      21.648323   17.427178   23.542559 H          1 MOL1         0.0749
      17    H9      21.646140   18.788984   24.685826 H          1 MOL1         0.0749
@<TRIPOS>BOND
    1     1     2    1
    2     1     3    2
    3     1     4    1
    4     4     5    1
    5     4     6    1
    6     4     7    1
    7     7     8    1
    8     7     9    2
    9     9    10    1
   10     9    11    1
   11    11    12    1
   12    11    13    1
   13    11    14    1
   14    14    15    1
   15    14    16    1
   16    14    17    1
@<TRIPOS>SUBSTRUCTURE
       1 MOL1            1 RESIDUE      1      MOL     
@<SCITEGIC>MOL_PROPERTY
VConf Rank
SciTegic.value.IntegerValue
930

@<SCITEGIC>MOL_PROPERTY
Conf_Id
SciTegic.value.IntegerValue
39

@<SCITEGIC>MOL_PROPERTY
Delta U+W
SciTegic.value.DoubleValue
-0.422

@<SCITEGIC>MOL_PROPERTY
U+W
SciTegic.value.DoubleValue
-49.849

@<SCITEGIC>MOL_PROPERTY
Grad RMS
SciTegic.value.DoubleValue
0.000000

@<SCITEGIC>MOL_PROPERTY
U
SciTegic.value.DoubleValue
14.465

@<SCITEGIC>MOL_PROPERTY
W
SciTegic.value.DoubleValue
-64.314

@<SCITEGIC>MOL_PROPERTY
W(PB)
SciTegic.value.DoubleValue
-66.406

@<SCITEGIC>MOL_PROPERTY
W(SA)
SciTegic.value.DoubleValue
2.093

@<SCITEGIC>MOL_PROPERTY
Valence
SciTegic.value.DoubleValue
14.072

@<SCITEGIC>MOL_PROPERTY
Coulomb
SciTegic.value.DoubleValue
-0.199

@<SCITEGIC>MOL_PROPERTY
VdW
SciTegic.value.DoubleValue
0.592

@<SCITEGIC>MOL_PROPERTY
VdW6
SciTegic.value.DoubleValue
-5.019

@<SCITEGIC>MOL_PROPERTY
VdW12
SciTegic.value.DoubleValue
5.611

@<SCITEGIC>MOL_PROPERTY
Bond
SciTegic.value.DoubleValue
0.085

@<SCITEGIC>MOL_PROPERTY
Angle
SciTegic.value.DoubleValue
2.748

@<SCITEGIC>MOL_PROPERTY
Pdih
SciTegic.value.DoubleValue
11.238

@<SCITEGIC>MOL_PROPERTY
Idih
SciTegic.value.DoubleValue
0.001

@<SCITEGIC>MOL_PROPERTY
Tether
SciTegic.value.DoubleValue
0.000

@<TRIPOS>MOLECULE
guest-s20_confgen4.mol2 : confsearch ligand conformer 931
          17          16           1
SMALL
USER_CHARGES
 
@<TRIPOS>ATOM
       1    C1      17.804120   21.427323   22.361191 C.2        1 MOL1         0.6132
       2    O1      18.052848   22.412047   23.028584 O.co2      1 MOL1        -0.6749
       3    O2      16.729660   20.859739   22.375466 O.co2      1 MOL1        -0.6749
       4    C2      18.898212   20.879660   21.454201 C.3        1 MOL1        -0.1955
       5    H1      19.404663   21.732533   20.987697 H          1 MOL1         0.0733
       6    H2      18.421795   20.309236   20.647800 H          1 MOL1         0.0733
       7    C3      19.901610   20.025242   22.205139 C.2        1 MOL1        -0.1395
       8    H3      20.529711   20.561738   22.915676 H          1 MOL1         0.0816
       9    C4      20.037295   18.705957   22.039901 C.2        1 MOL1        -0.1394
      10    H4      19.406865   18.169635   21.331397 H          1 MOL1         0.0816
      11    C5      21.035814   17.854994   22.792326 C.3        1 MOL1        -0.1826
      12    H5      21.441027   18.407040   23.651552 H          1 MOL1         0.0736
      13    H6      20.534206   16.965632   23.197246 H          1 MOL1         0.0736
      14    C6      22.194181   17.418276   21.874436 C.3        1 MOL1        -0.2882
      15    H7      22.727610   18.291986   21.477338 H          1 MOL1         0.0749
      16    H8      22.915057   16.800643   22.425756 H          1 MOL1         0.0749
      17    H9      21.821040   16.830429   21.025536 H          1 MOL1         0.0749
@<TRIPOS>BOND
    1     1     2    1
    2     1     3    2
    3     1     4    1
    4     4     5    1
    5     4     6    1
    6     4     7    1
    7     7     8    1
    8     7     9    2
    9     9    10    1
   10     9    11    1
   11    11    12    1
   12    11    13    1
   13    11    14    1
   14    14    15    1
   15    14    16    1
   16    14    17    1
@<TRIPOS>SUBSTRUCTURE
       1 MOL1            1 RESIDUE      1      MOL     
@<SCITEGIC>MOL_PROPERTY
VConf Rank
SciTegic.value.IntegerValue
931

@<SCITEGIC>MOL_PROPERTY
Conf_Id
SciTegic.value.IntegerValue
38

@<SCITEGIC>MOL_PROPERTY
Delta U+W
SciTegic.value.DoubleValue
0.000

@<SCITEGIC>MOL_PROPERTY
U+W
SciTegic.value.DoubleValue
-49.427

@<SCITEGIC>MOL_PROPERTY
Grad RMS
SciTegic.value.DoubleValue
0.000000

@<SCITEGIC>MOL_PROPERTY
U
SciTegic.value.DoubleValue
13.666

@<SCITEGIC>MOL_PROPERTY
W
SciTegic.value.DoubleValue
-63.093

@<SCITEGIC>MOL_PROPERTY
W(PB)
SciTegic.value.DoubleValue
-65.225

@<SCITEGIC>MOL_PROPERTY
W(SA)
SciTegic.value.DoubleValue
2.132

@<SCITEGIC>MOL_PROPERTY
Valence
SciTegic.value.DoubleValue
15.226

@<SCITEGIC>MOL_PROPERTY
Coulomb
SciTegic.value.DoubleValue
-1.822

@<SCITEGIC>MOL_PROPERTY
VdW
SciTegic.value.DoubleValue
0.261

@<SCITEGIC>MOL_PROPERTY
VdW6
SciTegic.value.DoubleValue
-4.165

@<SCITEGIC>MOL_PROPERTY
VdW12
SciTegic.value.DoubleValue
4.426

@<SCITEGIC>MOL_PROPERTY
Bond
SciTegic.value.DoubleValue
0.044

@<SCITEGIC>MOL_PROPERTY
Angle
SciTegic.value.DoubleValue
2.229

@<SCITEGIC>MOL_PROPERTY
Pdih
SciTegic.value.DoubleValue
12.953

@<SCITEGIC>MOL_PROPERTY
Idih
SciTegic.value.DoubleValue
0.000

@<SCITEGIC>MOL_PROPERTY
Tether
SciTegic.value.DoubleValue
0.000

@<TRIPOS>MOLECULE
guest-s20_confgen4.mol2 : confsearch ligand conformer 932
          17          16           1
SMALL
USER_CHARGES
 
@<TRIPOS>ATOM
       1    C1      17.277204   17.809159   22.112944 C.2        1 MOL1         0.6132
       2    O1      16.548145   18.354872   22.917611 O.co2      1 MOL1        -0.6749
       3    O2      17.288338   16.608986   21.922098 O.co2      1 MOL1        -0.6749
       4    C2      18.225514   18.675125   21.294155 C.3        1 MOL1        -0.1955
       5    H1      17.817134   19.692284   21.258733 H          1 MOL1         0.0733
       6    H2      18.224831   18.293414   20.266632 H          1 MOL1         0.0733
       7    C3      19.637299   18.675117   21.848779 C.2        1 MOL1        -0.1395
       8    H3      20.168651   17.727301   21.768088 H          1 MOL1         0.0816
       9    C4      20.224950   19.737747   22.407091 C.2        1 MOL1        -0.1394
      10    H4      19.691913   20.684322   22.490331 H          1 MOL1         0.0816
      11    C5      21.631391   19.734787   22.963180 C.3        1 MOL1        -0.1826
      12    H5      21.634457   20.183066   23.965960 H          1 MOL1         0.0736
      13    H6      21.997577   18.705139   23.076995 H          1 MOL1         0.0736
      14    C6      22.590876   20.518984   22.046946 C.3        1 MOL1        -0.2882
      15    H7      22.269553   21.563964   21.945973 H          1 MOL1         0.0749
      16    H8      23.609589   20.513919   22.455951 H          1 MOL1         0.0749
      17    H9      22.624104   20.072919   21.044189 H          1 MOL1         0.0749
@<TRIPOS>BOND
    1     1     2    1
    2     1     3    2
    3     1     4    1
    4     4     5    1
    5     4     6    1
    6     4     7    1
    7     7     8    1
    8     7     9    2
    9     9    10    1
   10     9    11    1
   11    11    12    1
   12    11    13    1
   13    11    14    1
   14    14    15    1
   15    14    16    1
   16    14    17    1
@<TRIPOS>SUBSTRUCTURE
       1 MOL1            1 RESIDUE      1      MOL     
@<SCITEGIC>MOL_PROPERTY
VConf Rank
SciTegic.value.IntegerValue
932

@<SCITEGIC>MOL_PROPERTY
Conf_Id
SciTegic.value.IntegerValue
35

@<SCITEGIC>MOL_PROPERTY
Delta U+W
SciTegic.value.DoubleValue
-0.102

@<SCITEGIC>MOL_PROPERTY
U+W
SciTegic.value.DoubleValue
-49.529

@<SCITEGIC>MOL_PROPERTY
Grad RMS
SciTegic.value.DoubleValue
0.000000

@<SCITEGIC>MOL_PROPERTY
U
SciTegic.value.DoubleValue
13.666

@<SCITEGIC>MOL_PROPERTY
W
SciTegic.value.DoubleValue
-63.195

@<SCITEGIC>MOL_PROPERTY
W(PB)
SciTegic.value.DoubleValue
-65.299

@<SCITEGIC>MOL_PROPERTY
W(SA)
SciTegic.value.DoubleValue
2.103

@<SCITEGIC>MOL_PROPERTY
Valence
SciTegic.value.DoubleValue
15.226

@<SCITEGIC>MOL_PROPERTY
Coulomb
SciTegic.value.DoubleValue
-1.822

@<SCITEGIC>MOL_PROPERTY
VdW
SciTegic.value.DoubleValue
0.261

@<SCITEGIC>MOL_PROPERTY
VdW6
SciTegic.value.DoubleValue
-4.165

@<SCITEGIC>MOL_PROPERTY
VdW12
SciTegic.value.DoubleValue
4.426

@<SCITEGIC>MOL_PROPERTY
Bond
SciTegic.value.DoubleValue
0.044

@<SCITEGIC>MOL_PROPERTY
Angle
SciTegic.value.DoubleValue
2.229

@<SCITEGIC>MOL_PROPERTY
Pdih
SciTegic.value.DoubleValue
12.953

@<SCITEGIC>MOL_PROPERTY
Idih
SciTegic.value.DoubleValue
0.000

@<SCITEGIC>MOL_PROPERTY
Tether
SciTegic.value.DoubleValue
0.000

@<TRIPOS>MOLECULE
guest-s20_confgen4.mol2 : confsearch ligand conformer 933
          17          16           1
SMALL
USER_CHARGES
 
@<TRIPOS>ATOM
       1    C1      17.279472   19.088929   22.410835 C.2        1 MOL1         0.6132
       2    O1      16.787562   19.274815   21.315188 O.co2      1 MOL1        -0.6749
       3    O2      16.892546   18.236017   23.185223 O.co2      1 MOL1        -0.6749
       4    C2      18.437647   19.980778   22.838539 C.3        1 MOL1        -0.1955
       5    H1      18.473701   19.993993   23.934491 H          1 MOL1         0.0733
       6    H2      18.211091   21.002680   22.513116 H          1 MOL1         0.0733
       7    C3      19.763412   19.530442   22.254631 C.2        1 MOL1        -0.1395
       8    H3      19.846571   19.644498   21.175203 H          1 MOL1         0.0816
       9    C4      20.766812   19.024157   22.982351 C.2        1 MOL1        -0.1394
      10    H4      20.645332   18.920942   24.060161 H          1 MOL1         0.0816
      11    C5      22.114823   18.551476   22.464634 C.3        1 MOL1        -0.1826
      12    H5      22.909579   19.111678   22.975557 H          1 MOL1         0.0736
      13    H6      22.260016   17.502139   22.755031 H          1 MOL1         0.0736
      14    C6      22.309157   18.681901   20.937790 C.3        1 MOL1        -0.2882
      15    H7      22.224464   19.728724   20.617805 H          1 MOL1         0.0749
      16    H8      23.303067   18.320124   20.644041 H          1 MOL1         0.0749
      17    H9      21.561614   18.089828   20.393622 H          1 MOL1         0.0749
@<TRIPOS>BOND
    1     1     2    1
    2     1     3    2
    3     1     4    1
    4     4     5    1
    5     4     6    1
    6     4     7    1
    7     7     8    1
    8     7     9    2
    9     9    10    1
   10     9    11    1
   11    11    12    1
   12    11    13    1
   13    11    14    1
   14    14    15    1
   15    14    16    1
   16    14    17    1
@<TRIPOS>SUBSTRUCTURE
       1 MOL1            1 RESIDUE      1      MOL     
@<SCITEGIC>MOL_PROPERTY
VConf Rank
SciTegic.value.IntegerValue
933

@<SCITEGIC>MOL_PROPERTY
Conf_Id
SciTegic.value.IntegerValue
19

@<SCITEGIC>MOL_PROPERTY
Delta U+W
SciTegic.value.DoubleValue
-0.496

@<SCITEGIC>MOL_PROPERTY
U+W
SciTegic.value.DoubleValue
-49.923

@<SCITEGIC>MOL_PROPERTY
Grad RMS
SciTegic.value.DoubleValue
0.000000

@<SCITEGIC>MOL_PROPERTY
U
SciTegic.value.DoubleValue
13.863

@<SCITEGIC>MOL_PROPERTY
W
SciTegic.value.DoubleValue
-63.786

@<SCITEGIC>MOL_PROPERTY
W(PB)
SciTegic.value.DoubleValue
-65.856

@<SCITEGIC>MOL_PROPERTY
W(SA)
SciTegic.value.DoubleValue
2.070

@<SCITEGIC>MOL_PROPERTY
Valence
SciTegic.value.DoubleValue
14.117

@<SCITEGIC>MOL_PROPERTY
Coulomb
SciTegic.value.DoubleValue
-1.228

@<SCITEGIC>MOL_PROPERTY
VdW
SciTegic.value.DoubleValue
0.974

@<SCITEGIC>MOL_PROPERTY
VdW6
SciTegic.value.DoubleValue
-4.885

@<SCITEGIC>MOL_PROPERTY
VdW12
SciTegic.value.DoubleValue
5.859

@<SCITEGIC>MOL_PROPERTY
Bond
SciTegic.value.DoubleValue
0.094

@<SCITEGIC>MOL_PROPERTY
Angle
SciTegic.value.DoubleValue
2.818

@<SCITEGIC>MOL_PROPERTY
Pdih
SciTegic.value.DoubleValue
11.205

@<SCITEGIC>MOL_PROPERTY
Idih
SciTegic.value.DoubleValue
0.000

@<SCITEGIC>MOL_PROPERTY
Tether
SciTegic.value.DoubleValue
0.000

@<TRIPOS>MOLECULE
guest-s20_confgen4.mol2 : confsearch ligand conformer 934
          17          16           1
SMALL
USER_CHARGES
 
@<TRIPOS>ATOM
       1    C1      17.269046   19.498432   21.917191 C.2        1 MOL1         0.6132
       2    O1      17.072587   20.441179   22.658436 O.co2      1 MOL1        -0.6749
       3    O2      16.822636   19.426115   20.789144 O.co2      1 MOL1        -0.6749
       4    C2      18.111361   18.338346   22.431520 C.3        1 MOL1        -0.1955
       5    H1      17.631450   17.407340   22.108413 H          1 MOL1         0.0733
       6    H2      18.080788   18.351544   23.527670 H          1 MOL1         0.0733
       7    C3      19.540841   18.389928   21.926854 C.2        1 MOL1        -0.1395
       8    H3      19.662276   18.226502   20.856451 H          1 MOL1         0.0816
       9    C4      20.603472   18.623994   22.702899 C.2        1 MOL1        -0.1394
      10    H4      20.480951   18.792455   23.772323 H          1 MOL1         0.0816
      11    C5      22.027784   18.677915   22.197168 C.3        1 MOL1        -0.1826
      12    H5      22.673077   18.063536   22.839552 H          1 MOL1         0.0736
      13    H6      22.092995   18.253083   21.185994 H          1 MOL1         0.0736
      14    C6      22.553079   20.126577   22.176285 C.3        1 MOL1        -0.2882
      15    H7      22.535642   20.564066   23.183124 H          1 MOL1         0.0749
      16    H8      23.586717   20.159948   21.808120 H          1 MOL1         0.0749
      17    H9      21.936876   20.755048   21.519780 H          1 MOL1         0.0749
@<TRIPOS>BOND
    1     1     2    1
    2     1     3    2
    3     1     4    1
    4     4     5    1
    5     4     6    1
    6     4     7    1
    7     7     8    1
    8     7     9    2
    9     9    10    1
   10     9    11    1
   11    11    12    1
   12    11    13    1
   13    11    14    1
   14    14    15    1
   15    14    16    1
   16    14    17    1
@<TRIPOS>SUBSTRUCTURE
       1 MOL1            1 RESIDUE      1      MOL     
@<SCITEGIC>MOL_PROPERTY
VConf Rank
SciTegic.value.IntegerValue
934

@<SCITEGIC>MOL_PROPERTY
Conf_Id
SciTegic.value.IntegerValue
7

@<SCITEGIC>MOL_PROPERTY
Delta U+W
SciTegic.value.DoubleValue
-0.041

@<SCITEGIC>MOL_PROPERTY
U+W
SciTegic.value.DoubleValue
-49.468

@<SCITEGIC>MOL_PROPERTY
Grad RMS
SciTegic.value.DoubleValue
0.000000

@<SCITEGIC>MOL_PROPERTY
U
SciTegic.value.DoubleValue
14.121

@<SCITEGIC>MOL_PROPERTY
W
SciTegic.value.DoubleValue
-63.589

@<SCITEGIC>MOL_PROPERTY
W(PB)
SciTegic.value.DoubleValue
-65.660

@<SCITEGIC>MOL_PROPERTY
W(SA)
SciTegic.value.DoubleValue
2.071

@<SCITEGIC>MOL_PROPERTY
Valence
SciTegic.value.DoubleValue
15.230

@<SCITEGIC>MOL_PROPERTY
Coulomb
SciTegic.value.DoubleValue
-1.333

@<SCITEGIC>MOL_PROPERTY
VdW
SciTegic.value.DoubleValue
0.224

@<SCITEGIC>MOL_PROPERTY
VdW6
SciTegic.value.DoubleValue
-4.212

@<SCITEGIC>MOL_PROPERTY
VdW12
SciTegic.value.DoubleValue
4.436

@<SCITEGIC>MOL_PROPERTY
Bond
SciTegic.value.DoubleValue
0.044

@<SCITEGIC>MOL_PROPERTY
Angle
SciTegic.value.DoubleValue
2.230

@<SCITEGIC>MOL_PROPERTY
Pdih
SciTegic.value.DoubleValue
12.956

@<SCITEGIC>MOL_PROPERTY
Idih
SciTegic.value.DoubleValue
0.000

@<SCITEGIC>MOL_PROPERTY
Tether
SciTegic.value.DoubleValue
0.000

@<TRIPOS>MOLECULE
guest-s20_confgen4.mol2 : confsearch ligand conformer 935
          17          16           1
SMALL
USER_CHARGES
 
@<TRIPOS>ATOM
       1    C1      19.036103   21.783915   21.913086 C.2        1 MOL1         0.6132
       2    O1      19.697999   22.194331   20.980110 O.co2      1 MOL1        -0.6749
       3    O2      18.913373   22.382415   22.963713 O.co2      1 MOL1        -0.6749
       4    C2      18.296949   20.459725   21.746503 C.3        1 MOL1        -0.1955
       5    H1      18.015777   20.361929   20.691445 H          1 MOL1         0.0733
       6    H2      17.355652   20.528224   22.304166 H          1 MOL1         0.0733
       7    C3      19.062229   19.220053   22.187452 C.2        1 MOL1        -0.1395
       8    H3      18.516458   18.285997   22.060095 H          1 MOL1         0.0816
       9    C4      20.300578   19.198948   22.694446 C.2        1 MOL1        -0.1394
      10    H4      20.868431   20.118488   22.831277 H          1 MOL1         0.0816
      11    C5      21.017333   17.936618   23.119567 C.3        1 MOL1        -0.1826
      12    H5      21.454526   18.077032   24.117397 H          1 MOL1         0.0736
      13    H6      20.309344   17.100357   23.200630 H          1 MOL1         0.0736
      14    C6      22.129649   17.567783   22.118692 C.3        1 MOL1        -0.2882
      15    H7      22.647182   16.652056   22.432798 H          1 MOL1         0.0749
      16    H8      21.712236   17.397193   21.117563 H          1 MOL1         0.0749
      17    H9      22.873586   18.372008   22.046315 H          1 MOL1         0.0749
@<TRIPOS>BOND
    1     1     2    1
    2     1     3    2
    3     1     4    1
    4     4     5    1
    5     4     6    1
    6     4     7    1
    7     7     8    1
    8     7     9    2
    9     9    10    1
   10     9    11    1
   11    11    12    1
   12    11    13    1
   13    11    14    1
   14    14    15    1
   15    14    16    1
   16    14    17    1
@<TRIPOS>SUBSTRUCTURE
       1 MOL1            1 RESIDUE      1      MOL     
@<SCITEGIC>MOL_PROPERTY
VConf Rank
SciTegic.value.IntegerValue
935

@<SCITEGIC>MOL_PROPERTY
Conf_Id
SciTegic.value.IntegerValue
39

@<SCITEGIC>MOL_PROPERTY
Delta U+W
SciTegic.value.DoubleValue
-0.422

@<SCITEGIC>MOL_PROPERTY
U+W
SciTegic.value.DoubleValue
-49.849

@<SCITEGIC>MOL_PROPERTY
Grad RMS
SciTegic.value.DoubleValue
0.000000

@<SCITEGIC>MOL_PROPERTY
U
SciTegic.value.DoubleValue
14.465

@<SCITEGIC>MOL_PROPERTY
W
SciTegic.value.DoubleValue
-64.314

@<SCITEGIC>MOL_PROPERTY
W(PB)
SciTegic.value.DoubleValue
-66.406

@<SCITEGIC>MOL_PROPERTY
W(SA)
SciTegic.value.DoubleValue
2.093

@<SCITEGIC>MOL_PROPERTY
Valence
SciTegic.value.DoubleValue
14.072

@<SCITEGIC>MOL_PROPERTY
Coulomb
SciTegic.value.DoubleValue
-0.199

@<SCITEGIC>MOL_PROPERTY
VdW
SciTegic.value.DoubleValue
0.592

@<SCITEGIC>MOL_PROPERTY
VdW6
SciTegic.value.DoubleValue
-5.019

@<SCITEGIC>MOL_PROPERTY
VdW12
SciTegic.value.DoubleValue
5.611

@<SCITEGIC>MOL_PROPERTY
Bond
SciTegic.value.DoubleValue
0.085

@<SCITEGIC>MOL_PROPERTY
Angle
SciTegic.value.DoubleValue
2.748

@<SCITEGIC>MOL_PROPERTY
Pdih
SciTegic.value.DoubleValue
11.238

@<SCITEGIC>MOL_PROPERTY
Idih
SciTegic.value.DoubleValue
0.001

@<SCITEGIC>MOL_PROPERTY
Tether
SciTegic.value.DoubleValue
0.000

@<TRIPOS>MOLECULE
guest-s20_confgen4.mol2 : confsearch ligand conformer 936
          17          16           1
SMALL
USER_CHARGES
 
@<TRIPOS>ATOM
       1    C1      22.583207   21.034773   22.996710 C.2        1 MOL1         0.6132
       2    O1      22.399077   21.800662   23.922167 O.co2      1 MOL1        -0.6749
       3    O2      23.247476   21.311515   22.017435 O.co2      1 MOL1        -0.6749
       4    C2      21.950581   19.651450   23.072893 C.3        1 MOL1        -0.1955
       5    H1      22.060123   19.289236   24.101636 H          1 MOL1         0.0733
       6    H2      22.527504   18.974526   22.431353 H          1 MOL1         0.0733
       7    C3      20.486410   19.659726   22.676810 C.2        1 MOL1        -0.1395
       8    H3      19.821795   20.182989   23.363602 H          1 MOL1         0.0816
       9    C4      20.003724   19.081697   21.572670 C.2        1 MOL1        -0.1394
      10    H4      20.669295   18.561182   20.884819 H          1 MOL1         0.0816
      11    C5      18.543955   19.094207   21.177397 C.3        1 MOL1        -0.1826
      12    H5      17.992646   19.840192   21.766281 H          1 MOL1         0.0736
      13    H6      18.447672   19.390346   20.124037 H          1 MOL1         0.0736
      14    C6      17.902871   17.707761   21.381945 C.3        1 MOL1        -0.2882
      15    H7      17.964360   17.401253   22.434501 H          1 MOL1         0.0749
      16    H8      16.843960   17.722909   21.092869 H          1 MOL1         0.0749
      17    H9      18.411058   16.947683   20.774116 H          1 MOL1         0.0749
@<TRIPOS>BOND
    1     1     2    1
    2     1     3    2
    3     1     4    1
    4     4     5    1
    5     4     6    1
    6     4     7    1
    7     7     8    1
    8     7     9    2
    9     9    10    1
   10     9    11    1
   11    11    12    1
   12    11    13    1
   13    11    14    1
   14    14    15    1
   15    14    16    1
   16    14    17    1
@<TRIPOS>SUBSTRUCTURE
       1 MOL1            1 RESIDUE      1      MOL     
@<SCITEGIC>MOL_PROPERTY
VConf Rank
SciTegic.value.IntegerValue
936

@<SCITEGIC>MOL_PROPERTY
Conf_Id
SciTegic.value.IntegerValue
38

@<SCITEGIC>MOL_PROPERTY
Delta U+W
SciTegic.value.DoubleValue
0.000

@<SCITEGIC>MOL_PROPERTY
U+W
SciTegic.value.DoubleValue
-49.427

@<SCITEGIC>MOL_PROPERTY
Grad RMS
SciTegic.value.DoubleValue
0.000000

@<SCITEGIC>MOL_PROPERTY
U
SciTegic.value.DoubleValue
13.666

@<SCITEGIC>MOL_PROPERTY
W
SciTegic.value.DoubleValue
-63.093

@<SCITEGIC>MOL_PROPERTY
W(PB)
SciTegic.value.DoubleValue
-65.225

@<SCITEGIC>MOL_PROPERTY
W(SA)
SciTegic.value.DoubleValue
2.132

@<SCITEGIC>MOL_PROPERTY
Valence
SciTegic.value.DoubleValue
15.226

@<SCITEGIC>MOL_PROPERTY
Coulomb
SciTegic.value.DoubleValue
-1.822

@<SCITEGIC>MOL_PROPERTY
VdW
SciTegic.value.DoubleValue
0.261

@<SCITEGIC>MOL_PROPERTY
VdW6
SciTegic.value.DoubleValue
-4.165

@<SCITEGIC>MOL_PROPERTY
VdW12
SciTegic.value.DoubleValue
4.426

@<SCITEGIC>MOL_PROPERTY
Bond
SciTegic.value.DoubleValue
0.044

@<SCITEGIC>MOL_PROPERTY
Angle
SciTegic.value.DoubleValue
2.229

@<SCITEGIC>MOL_PROPERTY
Pdih
SciTegic.value.DoubleValue
12.953

@<SCITEGIC>MOL_PROPERTY
Idih
SciTegic.value.DoubleValue
0.000

@<SCITEGIC>MOL_PROPERTY
Tether
SciTegic.value.DoubleValue
0.000

@<TRIPOS>MOLECULE
guest-s20_confgen4.mol2 : confsearch ligand conformer 937
          17          16           1
SMALL
USER_CHARGES
 
@<TRIPOS>ATOM
       1    C1      21.307153   21.339704   20.047811 C.2        1 MOL1         0.6132
       2    O1      21.907593   20.733721   19.182320 O.co2      1 MOL1        -0.6749
       3    O2      21.678240   22.403167   20.504210 O.co2      1 MOL1        -0.6749
       4    C2      20.016231   20.738134   20.587477 C.3        1 MOL1        -0.1955
       5    H1      19.609378   20.060537   19.827231 H          1 MOL1         0.0733
       6    H2      19.293137   21.552623   20.710967 H          1 MOL1         0.0733
       7    C3      20.218430   20.016806   21.906396 C.2        1 MOL1        -0.1395
       8    H3      20.468537   20.656106   22.752530 H          1 MOL1         0.0816
       9    C4      20.110083   18.693984   22.063343 C.2        1 MOL1        -0.1394
      10    H4      19.863088   18.054975   21.216159 H          1 MOL1         0.0816
      11    C5      20.315947   17.976030   23.378441 C.3        1 MOL1        -0.1826
      12    H5      20.987096   17.118954   23.231770 H          1 MOL1         0.0736
      13    H6      20.805074   18.638662   24.105691 H          1 MOL1         0.0736
      14    C6      18.974700   17.485082   23.957308 C.3        1 MOL1        -0.2882
      15    H7      18.480940   16.789442   23.266139 H          1 MOL1         0.0749
      16    H8      19.130540   16.964368   24.911068 H          1 MOL1         0.0749
      17    H9      18.295357   18.328810   24.136795 H          1 MOL1         0.0749
@<TRIPOS>BOND
    1     1     2    1
    2     1     3    2
    3     1     4    1
    4     4     5    1
    5     4     6    1
    6     4     7    1
    7     7     8    1
    8     7     9    2
    9     9    10    1
   10     9    11    1
   11    11    12    1
   12    11    13    1
   13    11    14    1
   14    14    15    1
   15    14    16    1
   16    14    17    1
@<TRIPOS>SUBSTRUCTURE
       1 MOL1            1 RESIDUE      1      MOL     
@<SCITEGIC>MOL_PROPERTY
VConf Rank
SciTegic.value.IntegerValue
937

@<SCITEGIC>MOL_PROPERTY
Conf_Id
SciTegic.value.IntegerValue
35

@<SCITEGIC>MOL_PROPERTY
Delta U+W
SciTegic.value.DoubleValue
-0.102

@<SCITEGIC>MOL_PROPERTY
U+W
SciTegic.value.DoubleValue
-49.529

@<SCITEGIC>MOL_PROPERTY
Grad RMS
SciTegic.value.DoubleValue
0.000000

@<SCITEGIC>MOL_PROPERTY
U
SciTegic.value.DoubleValue
13.666

@<SCITEGIC>MOL_PROPERTY
W
SciTegic.value.DoubleValue
-63.195

@<SCITEGIC>MOL_PROPERTY
W(PB)
SciTegic.value.DoubleValue
-65.299

@<SCITEGIC>MOL_PROPERTY
W(SA)
SciTegic.value.DoubleValue
2.103

@<SCITEGIC>MOL_PROPERTY
Valence
SciTegic.value.DoubleValue
15.226

@<SCITEGIC>MOL_PROPERTY
Coulomb
SciTegic.value.DoubleValue
-1.822

@<SCITEGIC>MOL_PROPERTY
VdW
SciTegic.value.DoubleValue
0.261

@<SCITEGIC>MOL_PROPERTY
VdW6
SciTegic.value.DoubleValue
-4.165

@<SCITEGIC>MOL_PROPERTY
VdW12
SciTegic.value.DoubleValue
4.426

@<SCITEGIC>MOL_PROPERTY
Bond
SciTegic.value.DoubleValue
0.044

@<SCITEGIC>MOL_PROPERTY
Angle
SciTegic.value.DoubleValue
2.229

@<SCITEGIC>MOL_PROPERTY
Pdih
SciTegic.value.DoubleValue
12.953

@<SCITEGIC>MOL_PROPERTY
Idih
SciTegic.value.DoubleValue
0.000

@<SCITEGIC>MOL_PROPERTY
Tether
SciTegic.value.DoubleValue
0.000

@<TRIPOS>MOLECULE
guest-s20_confgen4.mol2 : confsearch ligand conformer 938
          17          16           1
SMALL
USER_CHARGES
 
@<TRIPOS>ATOM
       1    C1      18.786113   17.550977   20.142914 C.2        1 MOL1         0.6132
       2    O1      18.346155   16.526981   20.627517 O.co2      1 MOL1        -0.6749
       3    O2      18.144327   18.277337   19.409865 O.co2      1 MOL1        -0.6749
       4    C2      20.223334   17.938267   20.465555 C.3        1 MOL1        -0.1955
       5    H1      20.592254   18.587099   19.662124 H          1 MOL1         0.0733
       6    H2      20.829113   17.025002   20.443449 H          1 MOL1         0.0733
       7    C3      20.352546   18.616001   21.816623 C.2        1 MOL1        -0.1395
       8    H3      20.151551   17.970402   22.669790 H          1 MOL1         0.0816
       9    C4      20.680182   19.904152   21.977972 C.2        1 MOL1        -0.1394
      10    H4      20.869955   20.520694   21.099936 H          1 MOL1         0.0816
      11    C5      20.823247   20.645974   23.296237 C.3        1 MOL1        -0.1826
      12    H5      21.835295   21.068105   23.360029 H          1 MOL1         0.0736
      13    H6      20.143274   21.508619   23.295275 H          1 MOL1         0.0736
      14    C6      20.552997   19.794425   24.556339 C.3        1 MOL1        -0.2882
      15    H7      21.252456   18.950490   24.619046 H          1 MOL1         0.0749
      16    H8      20.675110   20.400165   25.463642 H          1 MOL1         0.0749
      17    H9      19.528957   19.398430   24.551903 H          1 MOL1         0.0749
@<TRIPOS>BOND
    1     1     2    1
    2     1     3    2
    3     1     4    1
    4     4     5    1
    5     4     6    1
    6     4     7    1
    7     7     8    1
    8     7     9    2
    9     9    10    1
   10     9    11    1
   11    11    12    1
   12    11    13    1
   13    11    14    1
   14    14    15    1
   15    14    16    1
   16    14    17    1
@<TRIPOS>SUBSTRUCTURE
       1 MOL1            1 RESIDUE      1      MOL     
@<SCITEGIC>MOL_PROPERTY
VConf Rank
SciTegic.value.IntegerValue
938

@<SCITEGIC>MOL_PROPERTY
Conf_Id
SciTegic.value.IntegerValue
19

@<SCITEGIC>MOL_PROPERTY
Delta U+W
SciTegic.value.DoubleValue
-0.496

@<SCITEGIC>MOL_PROPERTY
U+W
SciTegic.value.DoubleValue
-49.923

@<SCITEGIC>MOL_PROPERTY
Grad RMS
SciTegic.value.DoubleValue
0.000000

@<SCITEGIC>MOL_PROPERTY
U
SciTegic.value.DoubleValue
13.863

@<SCITEGIC>MOL_PROPERTY
W
SciTegic.value.DoubleValue
-63.786

@<SCITEGIC>MOL_PROPERTY
W(PB)
SciTegic.value.DoubleValue
-65.856

@<SCITEGIC>MOL_PROPERTY
W(SA)
SciTegic.value.DoubleValue
2.070

@<SCITEGIC>MOL_PROPERTY
Valence
SciTegic.value.DoubleValue
14.117

@<SCITEGIC>MOL_PROPERTY
Coulomb
SciTegic.value.DoubleValue
-1.228

@<SCITEGIC>MOL_PROPERTY
VdW
SciTegic.value.DoubleValue
0.974

@<SCITEGIC>MOL_PROPERTY
VdW6
SciTegic.value.DoubleValue
-4.885

@<SCITEGIC>MOL_PROPERTY
VdW12
SciTegic.value.DoubleValue
5.859

@<SCITEGIC>MOL_PROPERTY
Bond
SciTegic.value.DoubleValue
0.094

@<SCITEGIC>MOL_PROPERTY
Angle
SciTegic.value.DoubleValue
2.818

@<SCITEGIC>MOL_PROPERTY
Pdih
SciTegic.value.DoubleValue
11.205

@<SCITEGIC>MOL_PROPERTY
Idih
SciTegic.value.DoubleValue
0.000

@<SCITEGIC>MOL_PROPERTY
Tether
SciTegic.value.DoubleValue
0.000

@<TRIPOS>MOLECULE
guest-s20_confgen4.mol2 : confsearch ligand conformer 939
          17          16           1
SMALL
USER_CHARGES
 
@<TRIPOS>ATOM
       1    C1      18.424150   19.608854   24.517897 C.2        1 MOL1         0.6132
       2    O1      18.130077   20.775979   24.350108 O.co2      1 MOL1        -0.6749
       3    O2      17.616660   18.746838   24.804063 O.co2      1 MOL1        -0.6749
       4    C2      19.885241   19.203931   24.372719 C.3        1 MOL1        -0.1955
       5    H1      20.120214   18.503041   25.182056 H          1 MOL1         0.0733
       6    H2      20.505434   20.094697   24.529404 H          1 MOL1         0.0733
       7    C3      20.180279   18.565589   23.028756 C.2        1 MOL1        -0.1395
       8    H3      19.717365   17.593036   22.864235 H          1 MOL1         0.0816
       9    C4      20.941046   19.124315   22.082567 C.2        1 MOL1        -0.1394
      10    H4      21.399479   20.099157   22.245612 H          1 MOL1         0.0816
      11    C5      21.231602   18.487409   20.741947 C.3        1 MOL1        -0.1826
      12    H5      22.309531   18.532442   20.535639 H          1 MOL1         0.0736
      13    H6      20.956956   17.423628   20.754161 H          1 MOL1         0.0736
      14    C6      20.462026   19.199617   19.612564 C.3        1 MOL1        -0.2882
      15    H7      20.746426   20.258329   19.551971 H          1 MOL1         0.0749
      16    H8      20.676137   18.733202   18.642161 H          1 MOL1         0.0749
      17    H9      19.378954   19.145945   19.785062 H          1 MOL1         0.0749
@<TRIPOS>BOND
    1     1     2    1
    2     1     3    2
    3     1     4    1
    4     4     5    1
    5     4     6    1
    6     4     7    1
    7     7     8    1
    8     7     9    2
    9     9    10    1
   10     9    11    1
   11    11    12    1
   12    11    13    1
   13    11    14    1
   14    14    15    1
   15    14    16    1
   16    14    17    1
@<TRIPOS>SUBSTRUCTURE
       1 MOL1            1 RESIDUE      1      MOL     
@<SCITEGIC>MOL_PROPERTY
VConf Rank
SciTegic.value.IntegerValue
939

@<SCITEGIC>MOL_PROPERTY
Conf_Id
SciTegic.value.IntegerValue
7

@<SCITEGIC>MOL_PROPERTY
Delta U+W
SciTegic.value.DoubleValue
-0.041

@<SCITEGIC>MOL_PROPERTY
U+W
SciTegic.value.DoubleValue
-49.468

@<SCITEGIC>MOL_PROPERTY
Grad RMS
SciTegic.value.DoubleValue
0.000000

@<SCITEGIC>MOL_PROPERTY
U
SciTegic.value.DoubleValue
14.121

@<SCITEGIC>MOL_PROPERTY
W
SciTegic.value.DoubleValue
-63.589

@<SCITEGIC>MOL_PROPERTY
W(PB)
SciTegic.value.DoubleValue
-65.660

@<SCITEGIC>MOL_PROPERTY
W(SA)
SciTegic.value.DoubleValue
2.071

@<SCITEGIC>MOL_PROPERTY
Valence
SciTegic.value.DoubleValue
15.230

@<SCITEGIC>MOL_PROPERTY
Coulomb
SciTegic.value.DoubleValue
-1.333

@<SCITEGIC>MOL_PROPERTY
VdW
SciTegic.value.DoubleValue
0.224

@<SCITEGIC>MOL_PROPERTY
VdW6
SciTegic.value.DoubleValue
-4.212

@<SCITEGIC>MOL_PROPERTY
VdW12
SciTegic.value.DoubleValue
4.436

@<SCITEGIC>MOL_PROPERTY
Bond
SciTegic.value.DoubleValue
0.044

@<SCITEGIC>MOL_PROPERTY
Angle
SciTegic.value.DoubleValue
2.230

@<SCITEGIC>MOL_PROPERTY
Pdih
SciTegic.value.DoubleValue
12.956

@<SCITEGIC>MOL_PROPERTY
Idih
SciTegic.value.DoubleValue
0.000

@<SCITEGIC>MOL_PROPERTY
Tether
SciTegic.value.DoubleValue
0.000

@<TRIPOS>MOLECULE
guest-s20_confgen4.mol2 : confsearch ligand conformer 940
          17          16           1
SMALL
USER_CHARGES
 
@<TRIPOS>ATOM
       1    C1      21.033897   18.325899   24.697847 C.2        1 MOL1         0.6132
       2    O1      22.076668   18.939791   24.810802 O.co2      1 MOL1        -0.6749
       3    O2      20.955543   17.115622   24.776408 O.co2      1 MOL1        -0.6749
       4    C2      19.750072   19.118913   24.473125 C.3        1 MOL1        -0.1955
       5    H1      19.854803   20.081260   24.987603 H          1 MOL1         0.0733
       6    H2      18.935909   18.591326   24.983528 H          1 MOL1         0.0733
       7    C3      19.370888   19.356885   23.018317 C.2        1 MOL1        -0.1395
       8    H3      18.451490   19.924583   22.880581 H          1 MOL1         0.0816
       9    C4      20.057023   18.938888   21.948040 C.2        1 MOL1        -0.1394
      10    H4      20.979755   18.370358   22.057915 H          1 MOL1         0.0816
      11    C5      19.635026   19.201355   20.519414 C.3        1 MOL1        -0.1826
      12    H5      19.686512   18.269151   19.940739 H          1 MOL1         0.0736
      13    H6      18.589824   19.537983   20.482163 H          1 MOL1         0.0736
      14    C6      20.536780   20.264352   19.862214 C.3        1 MOL1        -0.2882
      15    H7      20.226975   20.449767   18.825536 H          1 MOL1         0.0749
      16    H8      20.481713   21.214552   20.409647 H          1 MOL1         0.0749
      17    H9      21.584530   19.936386   19.851377 H          1 MOL1         0.0749
@<TRIPOS>BOND
    1     1     2    1
    2     1     3    2
    3     1     4    1
    4     4     5    1
    5     4     6    1
    6     4     7    1
    7     7     8    1
    8     7     9    2
    9     9    10    1
   10     9    11    1
   11    11    12    1
   12    11    13    1
   13    11    14    1
   14    14    15    1
   15    14    16    1
   16    14    17    1
@<TRIPOS>SUBSTRUCTURE
       1 MOL1            1 RESIDUE      1      MOL     
@<SCITEGIC>MOL_PROPERTY
VConf Rank
SciTegic.value.IntegerValue
940

@<SCITEGIC>MOL_PROPERTY
Conf_Id
SciTegic.value.IntegerValue
39

@<SCITEGIC>MOL_PROPERTY
Delta U+W
SciTegic.value.DoubleValue
-0.422

@<SCITEGIC>MOL_PROPERTY
U+W
SciTegic.value.DoubleValue
-49.849

@<SCITEGIC>MOL_PROPERTY
Grad RMS
SciTegic.value.DoubleValue
0.000000

@<SCITEGIC>MOL_PROPERTY
U
SciTegic.value.DoubleValue
14.465

@<SCITEGIC>MOL_PROPERTY
W
SciTegic.value.DoubleValue
-64.314

@<SCITEGIC>MOL_PROPERTY
W(PB)
SciTegic.value.DoubleValue
-66.406

@<SCITEGIC>MOL_PROPERTY
W(SA)
SciTegic.value.DoubleValue
2.093

@<SCITEGIC>MOL_PROPERTY
Valence
SciTegic.value.DoubleValue
14.072

@<SCITEGIC>MOL_PROPERTY
Coulomb
SciTegic.value.DoubleValue
-0.199

@<SCITEGIC>MOL_PROPERTY
VdW
SciTegic.value.DoubleValue
0.592

@<SCITEGIC>MOL_PROPERTY
VdW6
SciTegic.value.DoubleValue
-5.019

@<SCITEGIC>MOL_PROPERTY
VdW12
SciTegic.value.DoubleValue
5.611

@<SCITEGIC>MOL_PROPERTY
Bond
SciTegic.value.DoubleValue
0.085

@<SCITEGIC>MOL_PROPERTY
Angle
SciTegic.value.DoubleValue
2.748

@<SCITEGIC>MOL_PROPERTY
Pdih
SciTegic.value.DoubleValue
11.238

@<SCITEGIC>MOL_PROPERTY
Idih
SciTegic.value.DoubleValue
0.001

@<SCITEGIC>MOL_PROPERTY
Tether
SciTegic.value.DoubleValue
0.000

@<TRIPOS>MOLECULE
guest-s20_confgen4.mol2 : confsearch ligand conformer 941
          17          16           1
SMALL
USER_CHARGES
 
@<TRIPOS>ATOM
       1    C1      19.625371   21.042043   19.525504 C.2        1 MOL1         0.6132
       2    O1      20.456714   21.896459   19.289279 O.co2      1 MOL1        -0.6749
       3    O2      18.430816   21.206929   19.374937 O.co2      1 MOL1        -0.6749
       4    C2      20.109547   19.690000   20.032610 C.3        1 MOL1        -0.1955
       5    H1      21.010291   19.423391   19.467730 H          1 MOL1         0.0733
       6    H2      19.346422   18.940033   19.792131 H          1 MOL1         0.0733
       7    C3      20.411321   19.701280   21.519065 C.2        1 MOL1        -0.1395
       8    H3      21.268733   20.305006   21.814975 H          1 MOL1         0.0816
       9    C4      19.701159   19.035365   22.434736 C.2        1 MOL1        -0.1394
      10    H4      18.842113   18.434248   22.138493 H          1 MOL1         0.0816
      11    C5      20.001277   19.050814   23.916968 C.3        1 MOL1        -0.1826
      12    H5      20.699459   19.863845   24.159338 H          1 MOL1         0.0736
      13    H6      19.079091   19.248984   24.479852 H          1 MOL1         0.0736
      14    C6      20.603680   17.707985   24.374111 C.3        1 MOL1        -0.2882
      15    H7      21.541711   17.500379   23.842511 H          1 MOL1         0.0749
      16    H8      20.818712   17.725015   25.450474 H          1 MOL1         0.0749
      17    H9      19.909297   16.880333   24.178526 H          1 MOL1         0.0749
@<TRIPOS>BOND
    1     1     2    1
    2     1     3    2
    3     1     4    1
    4     4     5    1
    5     4     6    1
    6     4     7    1
    7     7     8    1
    8     7     9    2
    9     9    10    1
   10     9    11    1
   11    11    12    1
   12    11    13    1
   13    11    14    1
   14    14    15    1
   15    14    16    1
   16    14    17    1
@<TRIPOS>SUBSTRUCTURE
       1 MOL1            1 RESIDUE      1      MOL     
@<SCITEGIC>MOL_PROPERTY
VConf Rank
SciTegic.value.IntegerValue
941

@<SCITEGIC>MOL_PROPERTY
Conf_Id
SciTegic.value.IntegerValue
38

@<SCITEGIC>MOL_PROPERTY
Delta U+W
SciTegic.value.DoubleValue
0.000

@<SCITEGIC>MOL_PROPERTY
U+W
SciTegic.value.DoubleValue
-49.427

@<SCITEGIC>MOL_PROPERTY
Grad RMS
SciTegic.value.DoubleValue
0.000000

@<SCITEGIC>MOL_PROPERTY
U
SciTegic.value.DoubleValue
13.666

@<SCITEGIC>MOL_PROPERTY
W
SciTegic.value.DoubleValue
-63.093

@<SCITEGIC>MOL_PROPERTY
W(PB)
SciTegic.value.DoubleValue
-65.225

@<SCITEGIC>MOL_PROPERTY
W(SA)
SciTegic.value.DoubleValue
2.132

@<SCITEGIC>MOL_PROPERTY
Valence
SciTegic.value.DoubleValue
15.226

@<SCITEGIC>MOL_PROPERTY
Coulomb
SciTegic.value.DoubleValue
-1.822

@<SCITEGIC>MOL_PROPERTY
VdW
SciTegic.value.DoubleValue
0.261

@<SCITEGIC>MOL_PROPERTY
VdW6
SciTegic.value.DoubleValue
-4.165

@<SCITEGIC>MOL_PROPERTY
VdW12
SciTegic.value.DoubleValue
4.426

@<SCITEGIC>MOL_PROPERTY
Bond
SciTegic.value.DoubleValue
0.044

@<SCITEGIC>MOL_PROPERTY
Angle
SciTegic.value.DoubleValue
2.229

@<SCITEGIC>MOL_PROPERTY
Pdih
SciTegic.value.DoubleValue
12.953

@<SCITEGIC>MOL_PROPERTY
Idih
SciTegic.value.DoubleValue
0.000

@<SCITEGIC>MOL_PROPERTY
Tether
SciTegic.value.DoubleValue
0.000

@<TRIPOS>MOLECULE
guest-s20_confgen4.mol2 : confsearch ligand conformer 942
          17          16           1
SMALL
USER_CHARGES
 
@<TRIPOS>ATOM
       1    C1      17.407496   19.074674   20.430190 C.2        1 MOL1         0.6132
       2    O1      17.370458   19.990819   19.632616 O.co2      1 MOL1        -0.6749
       3    O2      16.429624   18.654499   21.016858 O.co2      1 MOL1        -0.6749
       4    C2      18.750560   18.411996   20.707033 C.3        1 MOL1        -0.1955
       5    H1      19.403689   18.586409   19.843527 H          1 MOL1         0.0733
       6    H2      18.583828   17.330427   20.769625 H          1 MOL1         0.0733
       7    C3      19.393742   18.914627   21.985478 C.2        1 MOL1        -0.1395
       8    H3      18.880044   18.636209   22.905152 H          1 MOL1         0.0816
       9    C4      20.508345   19.650980   22.026367 C.2        1 MOL1        -0.1394
      10    H4      21.019743   19.931706   21.106189 H          1 MOL1         0.0816
      11    C5      21.146064   20.154632   23.301895 C.3        1 MOL1        -0.1826
      12    H5      21.373931   21.224776   23.204935 H          1 MOL1         0.0736
      13    H6      20.448790   20.055901   24.145270 H          1 MOL1         0.0736
      14    C6      22.440660   19.380220   23.617118 C.3        1 MOL1        -0.2882
      15    H7      23.172033   19.493206   22.806097 H          1 MOL1         0.0749
      16    H8      22.899166   19.750556   24.543245 H          1 MOL1         0.0749
      17    H9      22.233353   18.309468   23.744063 H          1 MOL1         0.0749
@<TRIPOS>BOND
    1     1     2    1
    2     1     3    2
    3     1     4    1
    4     4     5    1
    5     4     6    1
    6     4     7    1
    7     7     8    1
    8     7     9    2
    9     9    10    1
   10     9    11    1
   11    11    12    1
   12    11    13    1
   13    11    14    1
   14    14    15    1
   15    14    16    1
   16    14    17    1
@<TRIPOS>SUBSTRUCTURE
       1 MOL1            1 RESIDUE      1      MOL     
@<SCITEGIC>MOL_PROPERTY
VConf Rank
SciTegic.value.IntegerValue
942

@<SCITEGIC>MOL_PROPERTY
Conf_Id
SciTegic.value.IntegerValue
35

@<SCITEGIC>MOL_PROPERTY
Delta U+W
SciTegic.value.DoubleValue
-0.102

@<SCITEGIC>MOL_PROPERTY
U+W
SciTegic.value.DoubleValue
-49.529

@<SCITEGIC>MOL_PROPERTY
Grad RMS
SciTegic.value.DoubleValue
0.000000

@<SCITEGIC>MOL_PROPERTY
U
SciTegic.value.DoubleValue
13.666

@<SCITEGIC>MOL_PROPERTY
W
SciTegic.value.DoubleValue
-63.195

@<SCITEGIC>MOL_PROPERTY
W(PB)
SciTegic.value.DoubleValue
-65.299

@<SCITEGIC>MOL_PROPERTY
W(SA)
SciTegic.value.DoubleValue
2.103

@<SCITEGIC>MOL_PROPERTY
Valence
SciTegic.value.DoubleValue
15.226

@<SCITEGIC>MOL_PROPERTY
Coulomb
SciTegic.value.DoubleValue
-1.822

@<SCITEGIC>MOL_PROPERTY
VdW
SciTegic.value.DoubleValue
0.261

@<SCITEGIC>MOL_PROPERTY
VdW6
SciTegic.value.DoubleValue
-4.165

@<SCITEGIC>MOL_PROPERTY
VdW12
SciTegic.value.DoubleValue
4.426

@<SCITEGIC>MOL_PROPERTY
Bond
SciTegic.value.DoubleValue
0.044

@<SCITEGIC>MOL_PROPERTY
Angle
SciTegic.value.DoubleValue
2.229

@<SCITEGIC>MOL_PROPERTY
Pdih
SciTegic.value.DoubleValue
12.953

@<SCITEGIC>MOL_PROPERTY
Idih
SciTegic.value.DoubleValue
0.000

@<SCITEGIC>MOL_PROPERTY
Tether
SciTegic.value.DoubleValue
0.000

@<TRIPOS>MOLECULE
guest-s20_confgen4.mol2 : confsearch ligand conformer 943
          17          16           1
SMALL
USER_CHARGES
 
@<TRIPOS>ATOM
       1    C1      17.329464   19.289377   21.656925 C.2        1 MOL1         0.6132
       2    O1      17.107460   20.240347   20.933502 O.co2      1 MOL1        -0.6749
       3    O2      16.835999   18.190937   21.493307 O.co2      1 MOL1        -0.6749
       4    C2      18.270231   19.489787   22.837809 C.3        1 MOL1        -0.1955
       5    H1      18.035435   18.732713   23.595631 H          1 MOL1         0.0733
       6    H2      18.047163   20.467023   23.281387 H          1 MOL1         0.0733
       7    C3      19.731028   19.422644   22.434114 C.2        1 MOL1        -0.1395
       8    H3      20.066483   20.244626   21.804109 H          1 MOL1         0.0816
       9    C4      20.563619   18.440998   22.802726 C.2        1 MOL1        -0.1394
      10    H4      20.190650   17.632279   23.430381 H          1 MOL1         0.0816
      11    C5      22.031522   18.309392   22.433225 C.3        1 MOL1        -0.1826
      12    H5      22.628070   18.258963   23.354146 H          1 MOL1         0.0736
      13    H6      22.186829   17.346511   21.927990 H          1 MOL1         0.0736
      14    C6      22.582662   19.441257   21.538153 C.3        1 MOL1        -0.2882
      15    H7      22.493258   20.415908   22.035610 H          1 MOL1         0.0749
      16    H8      23.644505   19.273631   21.315845 H          1 MOL1         0.0749
      17    H9      22.042488   19.486727   20.583357 H          1 MOL1         0.0749
@<TRIPOS>BOND
    1     1     2    1
    2     1     3    2
    3     1     4    1
    4     4     5    1
    5     4     6    1
    6     4     7    1
    7     7     8    1
    8     7     9    2
    9     9    10    1
   10     9    11    1
   11    11    12    1
   12    11    13    1
   13    11    14    1
   14    14    15    1
   15    14    16    1
   16    14    17    1
@<TRIPOS>SUBSTRUCTURE
       1 MOL1            1 RESIDUE      1      MOL     
@<SCITEGIC>MOL_PROPERTY
VConf Rank
SciTegic.value.IntegerValue
943

@<SCITEGIC>MOL_PROPERTY
Conf_Id
SciTegic.value.IntegerValue
19

@<SCITEGIC>MOL_PROPERTY
Delta U+W
SciTegic.value.DoubleValue
-0.496

@<SCITEGIC>MOL_PROPERTY
U+W
SciTegic.value.DoubleValue
-49.923

@<SCITEGIC>MOL_PROPERTY
Grad RMS
SciTegic.value.DoubleValue
0.000000

@<SCITEGIC>MOL_PROPERTY
U
SciTegic.value.DoubleValue
13.863

@<SCITEGIC>MOL_PROPERTY
W
SciTegic.value.DoubleValue
-63.786

@<SCITEGIC>MOL_PROPERTY
W(PB)
SciTegic.value.DoubleValue
-65.856

@<SCITEGIC>MOL_PROPERTY
W(SA)
SciTegic.value.DoubleValue
2.070

@<SCITEGIC>MOL_PROPERTY
Valence
SciTegic.value.DoubleValue
14.117

@<SCITEGIC>MOL_PROPERTY
Coulomb
SciTegic.value.DoubleValue
-1.228

@<SCITEGIC>MOL_PROPERTY
VdW
SciTegic.value.DoubleValue
0.974

@<SCITEGIC>MOL_PROPERTY
VdW6
SciTegic.value.DoubleValue
-4.885

@<SCITEGIC>MOL_PROPERTY
VdW12
SciTegic.value.DoubleValue
5.859

@<SCITEGIC>MOL_PROPERTY
Bond
SciTegic.value.DoubleValue
0.094

@<SCITEGIC>MOL_PROPERTY
Angle
SciTegic.value.DoubleValue
2.818

@<SCITEGIC>MOL_PROPERTY
Pdih
SciTegic.value.DoubleValue
11.205

@<SCITEGIC>MOL_PROPERTY
Idih
SciTegic.value.DoubleValue
0.000

@<SCITEGIC>MOL_PROPERTY
Tether
SciTegic.value.DoubleValue
0.000

@<TRIPOS>MOLECULE
guest-s20_confgen4.mol2 : confsearch ligand conformer 944
          17          16           1
SMALL
USER_CHARGES
 
@<TRIPOS>ATOM
       1    C1      21.085174   16.285927   22.409905 C.2        1 MOL1         0.6132
       2    O1      20.080788   15.703360   22.768567 O.co2      1 MOL1        -0.6749
       3    O2      21.808159   15.891119   21.516360 O.co2      1 MOL1        -0.6749
       4    C2      21.466503   17.575607   23.124845 C.3        1 MOL1        -0.1955
       5    H1      22.550698   17.561154   23.285461 H          1 MOL1         0.0733
       6    H2      20.995277   17.571301   24.115088 H          1 MOL1         0.0733
       7    C3      21.072524   18.812777   22.340655 C.2        1 MOL1        -0.1395
       8    H3      21.618012   18.966783   21.410096 H          1 MOL1         0.0816
       9    C4      20.124768   19.674160   22.722748 C.2        1 MOL1        -0.1394
      10    H4      19.576058   19.516880   23.650778 H          1 MOL1         0.0816
      11    C5      19.731414   20.905636   21.937844 C.3        1 MOL1        -0.1826
      12    H5      19.694384   21.775926   22.606983 H          1 MOL1         0.0736
      13    H6      20.485349   21.129516   21.170597 H          1 MOL1         0.0736
      14    C6      18.358502   20.716966   21.263671 C.3        1 MOL1        -0.2882
      15    H7      17.577148   20.529813   22.011925 H          1 MOL1         0.0749
      16    H8      18.078200   21.613241   20.695173 H          1 MOL1         0.0749
      17    H9      18.378620   19.865844   20.570226 H          1 MOL1         0.0749
@<TRIPOS>BOND
    1     1     2    1
    2     1     3    2
    3     1     4    1
    4     4     5    1
    5     4     6    1
    6     4     7    1
    7     7     8    1
    8     7     9    2
    9     9    10    1
   10     9    11    1
   11    11    12    1
   12    11    13    1
   13    11    14    1
   14    14    15    1
   15    14    16    1
   16    14    17    1
@<TRIPOS>SUBSTRUCTURE
       1 MOL1            1 RESIDUE      1      MOL     
@<SCITEGIC>MOL_PROPERTY
VConf Rank
SciTegic.value.IntegerValue
944

@<SCITEGIC>MOL_PROPERTY
Conf_Id
SciTegic.value.IntegerValue
7

@<SCITEGIC>MOL_PROPERTY
Delta U+W
SciTegic.value.DoubleValue
-0.041

@<SCITEGIC>MOL_PROPERTY
U+W
SciTegic.value.DoubleValue
-49.468

@<SCITEGIC>MOL_PROPERTY
Grad RMS
SciTegic.value.DoubleValue
0.000000

@<SCITEGIC>MOL_PROPERTY
U
SciTegic.value.DoubleValue
14.121

@<SCITEGIC>MOL_PROPERTY
W
SciTegic.value.DoubleValue
-63.589

@<SCITEGIC>MOL_PROPERTY
W(PB)
SciTegic.value.DoubleValue
-65.660

@<SCITEGIC>MOL_PROPERTY
W(SA)
SciTegic.value.DoubleValue
2.071

@<SCITEGIC>MOL_PROPERTY
Valence
SciTegic.value.DoubleValue
15.230

@<SCITEGIC>MOL_PROPERTY
Coulomb
SciTegic.value.DoubleValue
-1.333

@<SCITEGIC>MOL_PROPERTY
VdW
SciTegic.value.DoubleValue
0.224

@<SCITEGIC>MOL_PROPERTY
VdW6
SciTegic.value.DoubleValue
-4.212

@<SCITEGIC>MOL_PROPERTY
VdW12
SciTegic.value.DoubleValue
4.436

@<SCITEGIC>MOL_PROPERTY
Bond
SciTegic.value.DoubleValue
0.044

@<SCITEGIC>MOL_PROPERTY
Angle
SciTegic.value.DoubleValue
2.230

@<SCITEGIC>MOL_PROPERTY
Pdih
SciTegic.value.DoubleValue
12.956

@<SCITEGIC>MOL_PROPERTY
Idih
SciTegic.value.DoubleValue
0.000

@<SCITEGIC>MOL_PROPERTY
Tether
SciTegic.value.DoubleValue
0.000

@<TRIPOS>MOLECULE
guest-s20_confgen4.mol2 : confsearch ligand conformer 945
          17          16           1
SMALL
USER_CHARGES
 
@<TRIPOS>ATOM
       1    C1      22.420798   18.715767   20.828100 C.2        1 MOL1         0.6132
       2    O1      21.955253   18.127403   19.872021 O.co2      1 MOL1        -0.6749
       3    O2      23.303950   18.263288   21.529804 O.co2      1 MOL1        -0.6749
       4    C2      21.887467   20.108873   21.148085 C.3        1 MOL1        -0.1955
       5    H1      21.599413   20.583963   20.203054 H          1 MOL1         0.0733
       6    H2      22.718871   20.703989   21.543463 H          1 MOL1         0.0733
       7    C3      20.717574   20.157181   22.120656 C.2        1 MOL1        -0.1395
       8    H3      20.352647   21.160840   22.335228 H          1 MOL1         0.0816
       9    C4      20.132893   19.102457   22.700915 C.2        1 MOL1        -0.1394
      10    H4      20.477689   18.088253   22.502824 H          1 MOL1         0.0816
      11    C5      18.971024   19.205201   23.663954 C.3        1 MOL1        -0.1826
      12    H5      19.172015   18.593060   24.553565 H          1 MOL1         0.0736
      13    H6      18.851112   20.239754   24.013916 H          1 MOL1         0.0736
      14    C6      17.660641   18.735537   23.002630 C.3        1 MOL1        -0.2882
      15    H7      16.821394   18.810909   23.706223 H          1 MOL1         0.0749
      16    H8      17.425254   19.350563   22.124034 H          1 MOL1         0.0749
      17    H9      17.739411   17.690034   22.676782 H          1 MOL1         0.0749
@<TRIPOS>BOND
    1     1     2    1
    2     1     3    2
    3     1     4    1
    4     4     5    1
    5     4     6    1
    6     4     7    1
    7     7     8    1
    8     7     9    2
    9     9    10    1
   10     9    11    1
   11    11    12    1
   12    11    13    1
   13    11    14    1
   14    14    15    1
   15    14    16    1
   16    14    17    1
@<TRIPOS>SUBSTRUCTURE
       1 MOL1            1 RESIDUE      1      MOL     
@<SCITEGIC>MOL_PROPERTY
VConf Rank
SciTegic.value.IntegerValue
945

@<SCITEGIC>MOL_PROPERTY
Conf_Id
SciTegic.value.IntegerValue
39

@<SCITEGIC>MOL_PROPERTY
Delta U+W
SciTegic.value.DoubleValue
-0.422

@<SCITEGIC>MOL_PROPERTY
U+W
SciTegic.value.DoubleValue
-49.849

@<SCITEGIC>MOL_PROPERTY
Grad RMS
SciTegic.value.DoubleValue
0.000000

@<SCITEGIC>MOL_PROPERTY
U
SciTegic.value.DoubleValue
14.465

@<SCITEGIC>MOL_PROPERTY
W
SciTegic.value.DoubleValue
-64.314

@<SCITEGIC>MOL_PROPERTY
W(PB)
SciTegic.value.DoubleValue
-66.406

@<SCITEGIC>MOL_PROPERTY
W(SA)
SciTegic.value.DoubleValue
2.093

@<SCITEGIC>MOL_PROPERTY
Valence
SciTegic.value.DoubleValue
14.072

@<SCITEGIC>MOL_PROPERTY
Coulomb
SciTegic.value.DoubleValue
-0.199

@<SCITEGIC>MOL_PROPERTY
VdW
SciTegic.value.DoubleValue
0.592

@<SCITEGIC>MOL_PROPERTY
VdW6
SciTegic.value.DoubleValue
-5.019

@<SCITEGIC>MOL_PROPERTY
VdW12
SciTegic.value.DoubleValue
5.611

@<SCITEGIC>MOL_PROPERTY
Bond
SciTegic.value.DoubleValue
0.085

@<SCITEGIC>MOL_PROPERTY
Angle
SciTegic.value.DoubleValue
2.748

@<SCITEGIC>MOL_PROPERTY
Pdih
SciTegic.value.DoubleValue
11.238

@<SCITEGIC>MOL_PROPERTY
Idih
SciTegic.value.DoubleValue
0.001

@<SCITEGIC>MOL_PROPERTY
Tether
SciTegic.value.DoubleValue
0.000

@<TRIPOS>MOLECULE
guest-s20_confgen4.mol2 : confsearch ligand conformer 946
          17          16           1
SMALL
USER_CHARGES
 
@<TRIPOS>ATOM
       1    C1      20.385869   16.266477   21.158124 C.2        1 MOL1         0.6132
       2    O1      20.139548   15.411645   21.986102 O.co2      1 MOL1        -0.6749
       3    O2      21.296551   16.184094   20.357693 O.co2      1 MOL1        -0.6749
       4    C2      19.500469   17.505105   21.119771 C.3        1 MOL1        -0.1955
       5    H1      18.463859   17.180515   21.266711 H          1 MOL1         0.0733
       6    H2      19.561203   17.939275   20.114560 H          1 MOL1         0.0733
       7    C3      19.881702   18.524550   22.176245 C.2        1 MOL1        -0.1395
       8    H3      19.694484   18.219894   23.205486 H          1 MOL1         0.0816
       9    C4      20.413904   19.720854   21.908206 C.2        1 MOL1        -0.1394
      10    H4      20.603606   20.023664   20.878944 H          1 MOL1         0.0816
      11    C5      20.796918   20.734599   22.963168 C.3        1 MOL1        -0.1826
      12    H5      20.819032   20.265838   23.956644 H          1 MOL1         0.0736
      13    H6      21.811507   21.107460   22.767931 H          1 MOL1         0.0736
      14    C6      19.809115   21.917413   22.979197 C.3        1 MOL1        -0.2882
      15    H7      18.790302   21.571573   23.198324 H          1 MOL1         0.0749
      16    H8      20.092543   22.649901   23.746149 H          1 MOL1         0.0749
      17    H9      19.795101   22.429252   22.007985 H          1 MOL1         0.0749
@<TRIPOS>BOND
    1     1     2    1
    2     1     3    2
    3     1     4    1
    4     4     5    1
    5     4     6    1
    6     4     7    1
    7     7     8    1
    8     7     9    2
    9     9    10    1
   10     9    11    1
   11    11    12    1
   12    11    13    1
   13    11    14    1
   14    14    15    1
   15    14    16    1
   16    14    17    1
@<TRIPOS>SUBSTRUCTURE
       1 MOL1            1 RESIDUE      1      MOL     
@<SCITEGIC>MOL_PROPERTY
VConf Rank
SciTegic.value.IntegerValue
946

@<SCITEGIC>MOL_PROPERTY
Conf_Id
SciTegic.value.IntegerValue
38

@<SCITEGIC>MOL_PROPERTY
Delta U+W
SciTegic.value.DoubleValue
0.000

@<SCITEGIC>MOL_PROPERTY
U+W
SciTegic.value.DoubleValue
-49.427

@<SCITEGIC>MOL_PROPERTY
Grad RMS
SciTegic.value.DoubleValue
0.000000

@<SCITEGIC>MOL_PROPERTY
U
SciTegic.value.DoubleValue
13.666

@<SCITEGIC>MOL_PROPERTY
W
SciTegic.value.DoubleValue
-63.093

@<SCITEGIC>MOL_PROPERTY
W(PB)
SciTegic.value.DoubleValue
-65.225

@<SCITEGIC>MOL_PROPERTY
W(SA)
SciTegic.value.DoubleValue
2.132

@<SCITEGIC>MOL_PROPERTY
Valence
SciTegic.value.DoubleValue
15.226

@<SCITEGIC>MOL_PROPERTY
Coulomb
SciTegic.value.DoubleValue
-1.822

@<SCITEGIC>MOL_PROPERTY
VdW
SciTegic.value.DoubleValue
0.261

@<SCITEGIC>MOL_PROPERTY
VdW6
SciTegic.value.DoubleValue
-4.165

@<SCITEGIC>MOL_PROPERTY
VdW12
SciTegic.value.DoubleValue
4.426

@<SCITEGIC>MOL_PROPERTY
Bond
SciTegic.value.DoubleValue
0.044

@<SCITEGIC>MOL_PROPERTY
Angle
SciTegic.value.DoubleValue
2.229

@<SCITEGIC>MOL_PROPERTY
Pdih
SciTegic.value.DoubleValue
12.953

@<SCITEGIC>MOL_PROPERTY
Idih
SciTegic.value.DoubleValue
0.000

@<SCITEGIC>MOL_PROPERTY
Tether
SciTegic.value.DoubleValue
0.000

@<TRIPOS>MOLECULE
guest-s20_confgen4.mol2 : confsearch ligand conformer 947
          17          16           1
SMALL
USER_CHARGES
 
@<TRIPOS>ATOM
       1    C1      22.786523   18.571193   23.601200 C.2        1 MOL1         0.6132
       2    O1      22.749461   19.033743   24.724362 O.co2      1 MOL1        -0.6749
       3    O2      23.792341   18.540984   22.919746 O.co2      1 MOL1        -0.6749
       4    C2      21.505123   17.992405   23.015862 C.3        1 MOL1        -0.1955
       5    H1      20.847170   17.707153   23.845542 H          1 MOL1         0.0733
       6    H2      21.766698   17.071050   22.482766 H          1 MOL1         0.0733
       7    C3      20.807921   18.957700   22.076256 C.2        1 MOL1        -0.1395
       8    H3      21.335716   19.163766   21.145574 H          1 MOL1         0.0816
       9    C4      19.631970   19.538572   22.333074 C.2        1 MOL1        -0.1394
      10    H4      19.106265   19.334528   23.265309 H          1 MOL1         0.0816
      11    C5      18.940147   20.503929   21.396703 C.3        1 MOL1        -0.1826
      12    H5      18.619017   21.394633   21.953527 H          1 MOL1         0.0736
      13    H6      19.635532   20.851279   20.620168 H          1 MOL1         0.0736
      14    C6      17.716588   19.846836   20.728726 C.3        1 MOL1        -0.2882
      15    H7      16.985672   19.523790   21.481608 H          1 MOL1         0.0749
      16    H8      17.218368   20.552273   20.051068 H          1 MOL1         0.0749
      17    H9      18.017015   18.967272   20.144165 H          1 MOL1         0.0749
@<TRIPOS>BOND
    1     1     2    1
    2     1     3    2
    3     1     4    1
    4     4     5    1
    5     4     6    1
    6     4     7    1
    7     7     8    1
    8     7     9    2
    9     9    10    1
   10     9    11    1
   11    11    12    1
   12    11    13    1
   13    11    14    1
   14    14    15    1
   15    14    16    1
   16    14    17    1
@<TRIPOS>SUBSTRUCTURE
       1 MOL1            1 RESIDUE      1      MOL     
@<SCITEGIC>MOL_PROPERTY
VConf Rank
SciTegic.value.IntegerValue
947

@<SCITEGIC>MOL_PROPERTY
Conf_Id
SciTegic.value.IntegerValue
35

@<SCITEGIC>MOL_PROPERTY
Delta U+W
SciTegic.value.DoubleValue
-0.102

@<SCITEGIC>MOL_PROPERTY
U+W
SciTegic.value.DoubleValue
-49.529

@<SCITEGIC>MOL_PROPERTY
Grad RMS
SciTegic.value.DoubleValue
0.000000

@<SCITEGIC>MOL_PROPERTY
U
SciTegic.value.DoubleValue
13.666

@<SCITEGIC>MOL_PROPERTY
W
SciTegic.value.DoubleValue
-63.195

@<SCITEGIC>MOL_PROPERTY
W(PB)
SciTegic.value.DoubleValue
-65.299

@<SCITEGIC>MOL_PROPERTY
W(SA)
SciTegic.value.DoubleValue
2.103

@<SCITEGIC>MOL_PROPERTY
Valence
SciTegic.value.DoubleValue
15.226

@<SCITEGIC>MOL_PROPERTY
Coulomb
SciTegic.value.DoubleValue
-1.822

@<SCITEGIC>MOL_PROPERTY
VdW
SciTegic.value.DoubleValue
0.261

@<SCITEGIC>MOL_PROPERTY
VdW6
SciTegic.value.DoubleValue
-4.165

@<SCITEGIC>MOL_PROPERTY
VdW12
SciTegic.value.DoubleValue
4.426

@<SCITEGIC>MOL_PROPERTY
Bond
SciTegic.value.DoubleValue
0.044

@<SCITEGIC>MOL_PROPERTY
Angle
SciTegic.value.DoubleValue
2.229

@<SCITEGIC>MOL_PROPERTY
Pdih
SciTegic.value.DoubleValue
12.953

@<SCITEGIC>MOL_PROPERTY
Idih
SciTegic.value.DoubleValue
0.000

@<SCITEGIC>MOL_PROPERTY
Tether
SciTegic.value.DoubleValue
0.000

@<TRIPOS>MOLECULE
guest-s20_confgen4.mol2 : confsearch ligand conformer 948
          17          16           1
SMALL
USER_CHARGES
 
@<TRIPOS>ATOM
       1    C1      19.052839   17.446850   24.349983 C.2        1 MOL1         0.6132
       2    O1      19.830674   17.367192   25.280359 O.co2      1 MOL1        -0.6749
       3    O2      17.865689   17.669607   24.483783 O.co2      1 MOL1        -0.6749
       4    C2      19.595773   17.246919   22.941103 C.3        1 MOL1        -0.1955
       5    H1      18.768859   16.923211   22.297665 H          1 MOL1         0.0733
       6    H2      20.317460   16.422557   22.974347 H          1 MOL1         0.0733
       7    C3      20.257704   18.496337   22.391369 C.2        1 MOL1        -0.1395
       8    H3      21.180750   18.780041   22.893949 H          1 MOL1         0.0816
       9    C4      19.766800   19.216215   21.374757 C.2        1 MOL1        -0.1394
      10    H4      18.837736   18.903720   20.899075 H          1 MOL1         0.0816
      11    C5      20.373233   20.475095   20.778057 C.3        1 MOL1        -0.1826
      12    H5      20.550142   20.312416   19.706262 H          1 MOL1         0.0736
      13    H6      19.636124   21.287436   20.835460 H          1 MOL1         0.0736
      14    C6      21.688485   20.942218   21.439823 C.3        1 MOL1        -0.2882
      15    H7      22.467739   20.173663   21.353287 H          1 MOL1         0.0749
      16    H8      22.060578   21.854073   20.954956 H          1 MOL1         0.0749
      17    H9      21.536277   21.165573   22.503982 H          1 MOL1         0.0749
@<TRIPOS>BOND
    1     1     2    1
    2     1     3    2
    3     1     4    1
    4     4     5    1
    5     4     6    1
    6     4     7    1
    7     7     8    1
    8     7     9    2
    9     9    10    1
   10     9    11    1
   11    11    12    1
   12    11    13    1
   13    11    14    1
   14    14    15    1
   15    14    16    1
   16    14    17    1
@<TRIPOS>SUBSTRUCTURE
       1 MOL1            1 RESIDUE      1      MOL     
@<SCITEGIC>MOL_PROPERTY
VConf Rank
SciTegic.value.IntegerValue
948

@<SCITEGIC>MOL_PROPERTY
Conf_Id
SciTegic.value.IntegerValue
19

@<SCITEGIC>MOL_PROPERTY
Delta U+W
SciTegic.value.DoubleValue
-0.496

@<SCITEGIC>MOL_PROPERTY
U+W
SciTegic.value.DoubleValue
-49.923

@<SCITEGIC>MOL_PROPERTY
Grad RMS
SciTegic.value.DoubleValue
0.000000

@<SCITEGIC>MOL_PROPERTY
U
SciTegic.value.DoubleValue
13.863

@<SCITEGIC>MOL_PROPERTY
W
SciTegic.value.DoubleValue
-63.786

@<SCITEGIC>MOL_PROPERTY
W(PB)
SciTegic.value.DoubleValue
-65.856

@<SCITEGIC>MOL_PROPERTY
W(SA)
SciTegic.value.DoubleValue
2.070

@<SCITEGIC>MOL_PROPERTY
Valence
SciTegic.value.DoubleValue
14.117

@<SCITEGIC>MOL_PROPERTY
Coulomb
SciTegic.value.DoubleValue
-1.228

@<SCITEGIC>MOL_PROPERTY
VdW
SciTegic.value.DoubleValue
0.974

@<SCITEGIC>MOL_PROPERTY
VdW6
SciTegic.value.DoubleValue
-4.885

@<SCITEGIC>MOL_PROPERTY
VdW12
SciTegic.value.DoubleValue
5.859

@<SCITEGIC>MOL_PROPERTY
Bond
SciTegic.value.DoubleValue
0.094

@<SCITEGIC>MOL_PROPERTY
Angle
SciTegic.value.DoubleValue
2.818

@<SCITEGIC>MOL_PROPERTY
Pdih
SciTegic.value.DoubleValue
11.205

@<SCITEGIC>MOL_PROPERTY
Idih
SciTegic.value.DoubleValue
0.000

@<SCITEGIC>MOL_PROPERTY
Tether
SciTegic.value.DoubleValue
0.000

@<TRIPOS>MOLECULE
guest-s20_confgen4.mol2 : confsearch ligand conformer 949
          17          16           1
SMALL
USER_CHARGES
 
@<TRIPOS>ATOM
       1    C1      18.645907   18.309807   19.810876 C.2        1 MOL1         0.6132
       2    O1      19.519043   17.890094   19.077195 O.co2      1 MOL1        -0.6749
       3    O2      17.589220   17.737930   19.993554 O.co2      1 MOL1        -0.6749
       4    C2      18.882100   19.629574   20.533548 C.3        1 MOL1        -0.1955
       5    H1      17.951010   20.206324   20.489776 H          1 MOL1         0.0733
       6    H2      19.637130   20.196162   19.975371 H          1 MOL1         0.0733
       7    C3      19.306223   19.433786   21.976652 C.2        1 MOL1        -0.1395
       8    H3      18.543707   19.015014   22.632713 H          1 MOL1         0.0816
       9    C4      20.519915   19.732262   22.450022 C.2        1 MOL1        -0.1394
      10    H4      21.283631   20.146175   21.792395 H          1 MOL1         0.0816
      11    C5      20.941721   19.533518   23.888743 C.3        1 MOL1        -0.1826
      12    H5      21.429575   20.444316   24.261527 H          1 MOL1         0.0736
      13    H6      20.063635   19.362367   24.526615 H          1 MOL1         0.0736
      14    C6      21.908872   18.341120   24.022145 C.3        1 MOL1        -0.2882
      15    H7      22.815200   18.503127   23.424023 H          1 MOL1         0.0749
      16    H8      22.211372   18.201146   25.068074 H          1 MOL1         0.0749
      17    H9      21.433316   17.413285   23.677692 H          1 MOL1         0.0749
@<TRIPOS>BOND
    1     1     2    1
    2     1     3    2
    3     1     4    1
    4     4     5    1
    5     4     6    1
    6     4     7    1
    7     7     8    1
    8     7     9    2
    9     9    10    1
   10     9    11    1
   11    11    12    1
   12    11    13    1
   13    11    14    1
   14    14    15    1
   15    14    16    1
   16    14    17    1
@<TRIPOS>SUBSTRUCTURE
       1 MOL1            1 RESIDUE      1      MOL     
@<SCITEGIC>MOL_PROPERTY
VConf Rank
SciTegic.value.IntegerValue
949

@<SCITEGIC>MOL_PROPERTY
Conf_Id
SciTegic.value.IntegerValue
7

@<SCITEGIC>MOL_PROPERTY
Delta U+W
SciTegic.value.DoubleValue
-0.041

@<SCITEGIC>MOL_PROPERTY
U+W
SciTegic.value.DoubleValue
-49.468

@<SCITEGIC>MOL_PROPERTY
Grad RMS
SciTegic.value.DoubleValue
0.000000

@<SCITEGIC>MOL_PROPERTY
U
SciTegic.value.DoubleValue
14.121

@<SCITEGIC>MOL_PROPERTY
W
SciTegic.value.DoubleValue
-63.589

@<SCITEGIC>MOL_PROPERTY
W(PB)
SciTegic.value.DoubleValue
-65.660

@<SCITEGIC>MOL_PROPERTY
W(SA)
SciTegic.value.DoubleValue
2.071

@<SCITEGIC>MOL_PROPERTY
Valence
SciTegic.value.DoubleValue
15.230

@<SCITEGIC>MOL_PROPERTY
Coulomb
SciTegic.value.DoubleValue
-1.333

@<SCITEGIC>MOL_PROPERTY
VdW
SciTegic.value.DoubleValue
0.224

@<SCITEGIC>MOL_PROPERTY
VdW6
SciTegic.value.DoubleValue
-4.212

@<SCITEGIC>MOL_PROPERTY
VdW12
SciTegic.value.DoubleValue
4.436

@<SCITEGIC>MOL_PROPERTY
Bond
SciTegic.value.DoubleValue
0.044

@<SCITEGIC>MOL_PROPERTY
Angle
SciTegic.value.DoubleValue
2.230

@<SCITEGIC>MOL_PROPERTY
Pdih
SciTegic.value.DoubleValue
12.956

@<SCITEGIC>MOL_PROPERTY
Idih
SciTegic.value.DoubleValue
0.000

@<SCITEGIC>MOL_PROPERTY
Tether
SciTegic.value.DoubleValue
0.000

@<TRIPOS>MOLECULE
guest-s20_confgen4.mol2 : confsearch ligand conformer 950
          17          16           1
SMALL
USER_CHARGES
 
@<TRIPOS>ATOM
       1    C1      19.562494   16.591313   21.927492 C.2        1 MOL1         0.6132
       2    O1      20.537507   16.082471   22.444620 O.co2      1 MOL1        -0.6749
       3    O2      19.194177   16.339851   20.796920 O.co2      1 MOL1        -0.6749
       4    C2      18.740560   17.577805   22.751407 C.3        1 MOL1        -0.1955
       5    H1      18.800459   17.270394   23.801969 H          1 MOL1         0.0733
       6    H2      17.689318   17.462004   22.462962 H          1 MOL1         0.0733
       7    C3      19.146756   19.039156   22.623605 C.2        1 MOL1        -0.1395
       8    H3      18.547263   19.726049   23.219703 H          1 MOL1         0.0816
       9    C4      20.142991   19.515506   21.867561 C.2        1 MOL1        -0.1394
      10    H4      20.758165   18.850236   21.262823 H          1 MOL1         0.0816
      11    C5      20.505630   20.981032   21.774456 C.3        1 MOL1        -0.1826
      12    H5      20.616154   21.269036   20.720247 H          1 MOL1         0.0736
      13    H6      19.700925   21.604028   22.188557 H          1 MOL1         0.0736
      14    C6      21.817470   21.275643   22.527661 C.3        1 MOL1        -0.2882
      15    H7      22.076443   22.339975   22.455617 H          1 MOL1         0.0749
      16    H8      21.722394   21.019107   23.591026 H          1 MOL1         0.0749
      17    H9      22.648699   20.693467   22.108630 H          1 MOL1         0.0749
@<TRIPOS>BOND
    1     1     2    1
    2     1     3    2
    3     1     4    1
    4     4     5    1
    5     4     6    1
    6     4     7    1
    7     7     8    1
    8     7     9    2
    9     9    10    1
   10     9    11    1
   11    11    12    1
   12    11    13    1
   13    11    14    1
   14    14    15    1
   15    14    16    1
   16    14    17    1
@<TRIPOS>SUBSTRUCTURE
       1 MOL1            1 RESIDUE      1      MOL     
@<SCITEGIC>MOL_PROPERTY
VConf Rank
SciTegic.value.IntegerValue
950

@<SCITEGIC>MOL_PROPERTY
Conf_Id
SciTegic.value.IntegerValue
39

@<SCITEGIC>MOL_PROPERTY
Delta U+W
SciTegic.value.DoubleValue
-0.422

@<SCITEGIC>MOL_PROPERTY
U+W
SciTegic.value.DoubleValue
-49.849

@<SCITEGIC>MOL_PROPERTY
Grad RMS
SciTegic.value.DoubleValue
0.000000

@<SCITEGIC>MOL_PROPERTY
U
SciTegic.value.DoubleValue
14.465

@<SCITEGIC>MOL_PROPERTY
W
SciTegic.value.DoubleValue
-64.314

@<SCITEGIC>MOL_PROPERTY
W(PB)
SciTegic.value.DoubleValue
-66.406

@<SCITEGIC>MOL_PROPERTY
W(SA)
SciTegic.value.DoubleValue
2.093

@<SCITEGIC>MOL_PROPERTY
Valence
SciTegic.value.DoubleValue
14.072

@<SCITEGIC>MOL_PROPERTY
Coulomb
SciTegic.value.DoubleValue
-0.199

@<SCITEGIC>MOL_PROPERTY
VdW
SciTegic.value.DoubleValue
0.592

@<SCITEGIC>MOL_PROPERTY
VdW6
SciTegic.value.DoubleValue
-5.019

@<SCITEGIC>MOL_PROPERTY
VdW12
SciTegic.value.DoubleValue
5.611

@<SCITEGIC>MOL_PROPERTY
Bond
SciTegic.value.DoubleValue
0.085

@<SCITEGIC>MOL_PROPERTY
Angle
SciTegic.value.DoubleValue
2.748

@<SCITEGIC>MOL_PROPERTY
Pdih
SciTegic.value.DoubleValue
11.238

@<SCITEGIC>MOL_PROPERTY
Idih
SciTegic.value.DoubleValue
0.001

@<SCITEGIC>MOL_PROPERTY
Tether
SciTegic.value.DoubleValue
0.000

@<TRIPOS>MOLECULE
guest-s20_confgen4.mol2 : confsearch ligand conformer 951
          17          16           1
SMALL
USER_CHARGES
 
@<TRIPOS>ATOM
       1    C1      17.410828   20.773549   21.408041 C.2        1 MOL1         0.6132
       2    O1      16.413783   20.084306   21.319688 O.co2      1 MOL1        -0.6749
       3    O2      17.653566   21.702699   20.663341 O.co2      1 MOL1        -0.6749
       4    C2      18.406308   20.457278   22.516461 C.3        1 MOL1        -0.1955
       5    H1      17.835450   20.217568   23.420988 H          1 MOL1         0.0733
       6    H2      18.980861   21.366334   22.731276 H          1 MOL1         0.0733
       7    C3      19.325600   19.304617   22.160062 C.2        1 MOL1        -0.1395
       8    H3      18.843396   18.330158   22.088576 H          1 MOL1         0.0816
       9    C4      20.637584   19.430992   21.938807 C.2        1 MOL1        -0.1394
      10    H4      21.118582   20.406173   22.007535 H          1 MOL1         0.0816
      11    C5      21.552008   18.281086   21.579826 C.3        1 MOL1        -0.1826
      12    H5      20.964783   17.401996   21.280514 H          1 MOL1         0.0736
      13    H6      22.171157   18.555850   20.715132 H          1 MOL1         0.0736
      14    C6      22.462572   17.906609   22.765448 C.3        1 MOL1        -0.2882
      15    H7      21.865092   17.603152   23.635237 H          1 MOL1         0.0749
      16    H8      23.124162   17.072181   22.498773 H          1 MOL1         0.0749
      17    H9      23.089982   18.757560   23.061538 H          1 MOL1         0.0749
@<TRIPOS>BOND
    1     1     2    1
    2     1     3    2
    3     1     4    1
    4     4     5    1
    5     4     6    1
    6     4     7    1
    7     7     8    1
    8     7     9    2
    9     9    10    1
   10     9    11    1
   11    11    12    1
   12    11    13    1
   13    11    14    1
   14    14    15    1
   15    14    16    1
   16    14    17    1
@<TRIPOS>SUBSTRUCTURE
       1 MOL1            1 RESIDUE      1      MOL     
@<SCITEGIC>MOL_PROPERTY
VConf Rank
SciTegic.value.IntegerValue
951

@<SCITEGIC>MOL_PROPERTY
Conf_Id
SciTegic.value.IntegerValue
38

@<SCITEGIC>MOL_PROPERTY
Delta U+W
SciTegic.value.DoubleValue
0.000

@<SCITEGIC>MOL_PROPERTY
U+W
SciTegic.value.DoubleValue
-49.427

@<SCITEGIC>MOL_PROPERTY
Grad RMS
SciTegic.value.DoubleValue
0.000000

@<SCITEGIC>MOL_PROPERTY
U
SciTegic.value.DoubleValue
13.666

@<SCITEGIC>MOL_PROPERTY
W
SciTegic.value.DoubleValue
-63.093

@<SCITEGIC>MOL_PROPERTY
W(PB)
SciTegic.value.DoubleValue
-65.225

@<SCITEGIC>MOL_PROPERTY
W(SA)
SciTegic.value.DoubleValue
2.132

@<SCITEGIC>MOL_PROPERTY
Valence
SciTegic.value.DoubleValue
15.226

@<SCITEGIC>MOL_PROPERTY
Coulomb
SciTegic.value.DoubleValue
-1.822

@<SCITEGIC>MOL_PROPERTY
VdW
SciTegic.value.DoubleValue
0.261

@<SCITEGIC>MOL_PROPERTY
VdW6
SciTegic.value.DoubleValue
-4.165

@<SCITEGIC>MOL_PROPERTY
VdW12
SciTegic.value.DoubleValue
4.426

@<SCITEGIC>MOL_PROPERTY
Bond
SciTegic.value.DoubleValue
0.044

@<SCITEGIC>MOL_PROPERTY
Angle
SciTegic.value.DoubleValue
2.229

@<SCITEGIC>MOL_PROPERTY
Pdih
SciTegic.value.DoubleValue
12.953

@<SCITEGIC>MOL_PROPERTY
Idih
SciTegic.value.DoubleValue
0.000

@<SCITEGIC>MOL_PROPERTY
Tether
SciTegic.value.DoubleValue
0.000

@<TRIPOS>MOLECULE
guest-s20_confgen4.mol2 : confsearch ligand conformer 952
          17          16           1
SMALL
USER_CHARGES
 
@<TRIPOS>ATOM
       1    C1      22.988054   18.795078   23.276002 C.2        1 MOL1         0.6132
       2    O1      23.281767   17.622685   23.149332 O.co2      1 MOL1        -0.6749
       3    O2      23.300032   19.465593   24.240387 O.co2      1 MOL1        -0.6749
       4    C2      22.190249   19.463917   22.164352 C.3        1 MOL1        -0.1955
       5    H1      22.356977   18.902783   21.237006 H          1 MOL1         0.0733
       6    H2      22.605102   20.466884   22.011177 H          1 MOL1         0.0733
       7    C3      20.710699   19.555806   22.485649 C.2        1 MOL1        -0.1395
       8    H3      20.453049   20.230058   23.301861 H          1 MOL1         0.0816
       9    C4      19.758435   18.874478   21.841277 C.2        1 MOL1        -0.1394
      10    H4      20.017085   18.198017   21.027299 H          1 MOL1         0.0816
      11    C5      18.283977   18.964357   22.165647 C.3        1 MOL1        -0.1826
      12    H5      17.860445   17.954276   22.248655 H          1 MOL1         0.0736
      13    H6      18.133559   19.450320   23.139522 H          1 MOL1         0.0736
      14    C6      17.525057   19.752023   21.079975 C.3        1 MOL1        -0.2882
      15    H7      17.626670   19.266379   20.100560 H          1 MOL1         0.0749
      16    H8      16.455708   19.813275   21.320446 H          1 MOL1         0.0749
      17    H9      17.914661   20.775176   20.996511 H          1 MOL1         0.0749
@<TRIPOS>BOND
    1     1     2    1
    2     1     3    2
    3     1     4    1
    4     4     5    1
    5     4     6    1
    6     4     7    1
    7     7     8    1
    8     7     9    2
    9     9    10    1
   10     9    11    1
   11    11    12    1
   12    11    13    1
   13    11    14    1
   14    14    15    1
   15    14    16    1
   16    14    17    1
@<TRIPOS>SUBSTRUCTURE
       1 MOL1            1 RESIDUE      1      MOL     
@<SCITEGIC>MOL_PROPERTY
VConf Rank
SciTegic.value.IntegerValue
952

@<SCITEGIC>MOL_PROPERTY
Conf_Id
SciTegic.value.IntegerValue
35

@<SCITEGIC>MOL_PROPERTY
Delta U+W
SciTegic.value.DoubleValue
-0.102

@<SCITEGIC>MOL_PROPERTY
U+W
SciTegic.value.DoubleValue
-49.529

@<SCITEGIC>MOL_PROPERTY
Grad RMS
SciTegic.value.DoubleValue
0.000000

@<SCITEGIC>MOL_PROPERTY
U
SciTegic.value.DoubleValue
13.666

@<SCITEGIC>MOL_PROPERTY
W
SciTegic.value.DoubleValue
-63.195

@<SCITEGIC>MOL_PROPERTY
W(PB)
SciTegic.value.DoubleValue
-65.299

@<SCITEGIC>MOL_PROPERTY
W(SA)
SciTegic.value.DoubleValue
2.103

@<SCITEGIC>MOL_PROPERTY
Valence
SciTegic.value.DoubleValue
15.226

@<SCITEGIC>MOL_PROPERTY
Coulomb
SciTegic.value.DoubleValue
-1.822

@<SCITEGIC>MOL_PROPERTY
VdW
SciTegic.value.DoubleValue
0.261

@<SCITEGIC>MOL_PROPERTY
VdW6
SciTegic.value.DoubleValue
-4.165

@<SCITEGIC>MOL_PROPERTY
VdW12
SciTegic.value.DoubleValue
4.426

@<SCITEGIC>MOL_PROPERTY
Bond
SciTegic.value.DoubleValue
0.044

@<SCITEGIC>MOL_PROPERTY
Angle
SciTegic.value.DoubleValue
2.229

@<SCITEGIC>MOL_PROPERTY
Pdih
SciTegic.value.DoubleValue
12.953

@<SCITEGIC>MOL_PROPERTY
Idih
SciTegic.value.DoubleValue
0.000

@<SCITEGIC>MOL_PROPERTY
Tether
SciTegic.value.DoubleValue
0.000

@<TRIPOS>MOLECULE
guest-s20_confgen4.mol2 : confsearch ligand conformer 953
          17          16           1
SMALL
USER_CHARGES
 
@<TRIPOS>ATOM
       1    C1      22.220194   17.939290   24.039546 C.2        1 MOL1         0.6132
       2    O1      23.203251   17.592478   23.414812 O.co2      1 MOL1        -0.6749
       3    O2      22.271680   18.555976   25.085441 O.co2      1 MOL1        -0.6749
       4    C2      20.850281   17.571802   23.484583 C.3        1 MOL1        -0.1955
       5    H1      20.136316   17.555310   24.316790 H          1 MOL1         0.0733
       6    H2      20.910642   16.549412   23.093962 H          1 MOL1         0.0733
       7    C3      20.392978   18.520148   22.392374 C.2        1 MOL1        -0.1395
       8    H3      20.972469   18.466715   21.472361 H          1 MOL1         0.0816
       9    C4      19.366467   19.369910   22.522335 C.2        1 MOL1        -0.1394
      10    H4      18.812391   19.398243   23.460035 H          1 MOL1         0.0816
      11    C5      18.858498   20.346453   21.474995 C.3        1 MOL1        -0.1826
      12    H5      17.798268   20.138136   21.277451 H          1 MOL1         0.0736
      13    H6      18.886928   21.362411   21.891577 H          1 MOL1         0.0736
      14    C6      19.632094   20.329622   20.138098 C.3        1 MOL1        -0.2882
      15    H7      19.579225   19.340432   19.664695 H          1 MOL1         0.0749
      16    H8      19.206630   21.060323   19.438036 H          1 MOL1         0.0749
      17    H9      20.688553   20.586459   20.291126 H          1 MOL1         0.0749
@<TRIPOS>BOND
    1     1     2    1
    2     1     3    2
    3     1     4    1
    4     4     5    1
    5     4     6    1
    6     4     7    1
    7     7     8    1
    8     7     9    2
    9     9    10    1
   10     9    11    1
   11    11    12    1
   12    11    13    1
   13    11    14    1
   14    14    15    1
   15    14    16    1
   16    14    17    1
@<TRIPOS>SUBSTRUCTURE
       1 MOL1            1 RESIDUE      1      MOL     
@<SCITEGIC>MOL_PROPERTY
VConf Rank
SciTegic.value.IntegerValue
953

@<SCITEGIC>MOL_PROPERTY
Conf_Id
SciTegic.value.IntegerValue
19

@<SCITEGIC>MOL_PROPERTY
Delta U+W
SciTegic.value.DoubleValue
-0.496

@<SCITEGIC>MOL_PROPERTY
U+W
SciTegic.value.DoubleValue
-49.923

@<SCITEGIC>MOL_PROPERTY
Grad RMS
SciTegic.value.DoubleValue
0.000000

@<SCITEGIC>MOL_PROPERTY
U
SciTegic.value.DoubleValue
13.863

@<SCITEGIC>MOL_PROPERTY
W
SciTegic.value.DoubleValue
-63.786

@<SCITEGIC>MOL_PROPERTY
W(PB)
SciTegic.value.DoubleValue
-65.856

@<SCITEGIC>MOL_PROPERTY
W(SA)
SciTegic.value.DoubleValue
2.070

@<SCITEGIC>MOL_PROPERTY
Valence
SciTegic.value.DoubleValue
14.117

@<SCITEGIC>MOL_PROPERTY
Coulomb
SciTegic.value.DoubleValue
-1.228

@<SCITEGIC>MOL_PROPERTY
VdW
SciTegic.value.DoubleValue
0.974

@<SCITEGIC>MOL_PROPERTY
VdW6
SciTegic.value.DoubleValue
-4.885

@<SCITEGIC>MOL_PROPERTY
VdW12
SciTegic.value.DoubleValue
5.859

@<SCITEGIC>MOL_PROPERTY
Bond
SciTegic.value.DoubleValue
0.094

@<SCITEGIC>MOL_PROPERTY
Angle
SciTegic.value.DoubleValue
2.818

@<SCITEGIC>MOL_PROPERTY
Pdih
SciTegic.value.DoubleValue
11.205

@<SCITEGIC>MOL_PROPERTY
Idih
SciTegic.value.DoubleValue
0.000

@<SCITEGIC>MOL_PROPERTY
Tether
SciTegic.value.DoubleValue
0.000

@<TRIPOS>MOLECULE
guest-s20_confgen4.mol2 : confsearch ligand conformer 954
          17          16           1
SMALL
USER_CHARGES
 
@<TRIPOS>ATOM
       1    C1      19.904927   18.962514   25.135066 C.2        1 MOL1         0.6132
       2    O1      21.063626   18.878744   25.491733 O.co2      1 MOL1        -0.6749
       3    O2      19.100927   19.723747   25.636174 O.co2      1 MOL1        -0.6749
       4    C2      19.429398   18.057621   24.005966 C.3        1 MOL1        -0.1955
       5    H1      18.436308   17.679987   24.275504 H          1 MOL1         0.0733
       6    H2      20.099464   17.190957   23.955380 H          1 MOL1         0.0733
       7    C3      19.368827   18.776606   22.671742 C.2        1 MOL1        -0.1395
       8    H3      18.609818   19.554754   22.596864 H          1 MOL1         0.0816
       9    C4      20.174436   18.512152   21.638651 C.2        1 MOL1        -0.1394
      10    H4      20.936638   17.737459   21.715845 H          1 MOL1         0.0816
      11    C5      20.114311   19.232281   20.310068 C.3        1 MOL1        -0.1826
      12    H5      20.115182   18.500399   19.491001 H          1 MOL1         0.0736
      13    H6      19.178564   19.801556   20.223403 H          1 MOL1         0.0736
      14    C6      21.310587   20.189707   20.144994 C.3        1 MOL1        -0.2882
      15    H7      22.260458   19.640834   20.188697 H          1 MOL1         0.0749
      16    H8      21.261749   20.709906   19.179553 H          1 MOL1         0.0749
      17    H9      21.316356   20.946783   20.940282 H          1 MOL1         0.0749
@<TRIPOS>BOND
    1     1     2    1
    2     1     3    2
    3     1     4    1
    4     4     5    1
    5     4     6    1
    6     4     7    1
    7     7     8    1
    8     7     9    2
    9     9    10    1
   10     9    11    1
   11    11    12    1
   12    11    13    1
   13    11    14    1
   14    14    15    1
   15    14    16    1
   16    14    17    1
@<TRIPOS>SUBSTRUCTURE
       1 MOL1            1 RESIDUE      1      MOL     
@<SCITEGIC>MOL_PROPERTY
VConf Rank
SciTegic.value.IntegerValue
954

@<SCITEGIC>MOL_PROPERTY
Conf_Id
SciTegic.value.IntegerValue
7

@<SCITEGIC>MOL_PROPERTY
Delta U+W
SciTegic.value.DoubleValue
-0.041

@<SCITEGIC>MOL_PROPERTY
U+W
SciTegic.value.DoubleValue
-49.468

@<SCITEGIC>MOL_PROPERTY
Grad RMS
SciTegic.value.DoubleValue
0.000000

@<SCITEGIC>MOL_PROPERTY
U
SciTegic.value.DoubleValue
14.121

@<SCITEGIC>MOL_PROPERTY
W
SciTegic.value.DoubleValue
-63.589

@<SCITEGIC>MOL_PROPERTY
W(PB)
SciTegic.value.DoubleValue
-65.660

@<SCITEGIC>MOL_PROPERTY
W(SA)
SciTegic.value.DoubleValue
2.071

@<SCITEGIC>MOL_PROPERTY
Valence
SciTegic.value.DoubleValue
15.230

@<SCITEGIC>MOL_PROPERTY
Coulomb
SciTegic.value.DoubleValue
-1.333

@<SCITEGIC>MOL_PROPERTY
VdW
SciTegic.value.DoubleValue
0.224

@<SCITEGIC>MOL_PROPERTY
VdW6
SciTegic.value.DoubleValue
-4.212

@<SCITEGIC>MOL_PROPERTY
VdW12
SciTegic.value.DoubleValue
4.436

@<SCITEGIC>MOL_PROPERTY
Bond
SciTegic.value.DoubleValue
0.044

@<SCITEGIC>MOL_PROPERTY
Angle
SciTegic.value.DoubleValue
2.230

@<SCITEGIC>MOL_PROPERTY
Pdih
SciTegic.value.DoubleValue
12.956

@<SCITEGIC>MOL_PROPERTY
Idih
SciTegic.value.DoubleValue
0.000

@<SCITEGIC>MOL_PROPERTY
Tether
SciTegic.value.DoubleValue
0.000

@<TRIPOS>MOLECULE
guest-s20_confgen4.mol2 : confsearch ligand conformer 955
          17          16           1
SMALL
USER_CHARGES
 
@<TRIPOS>ATOM
       1    C1      18.169480   17.470481   22.997992 C.2        1 MOL1         0.6132
       2    O1      17.167567   18.134662   22.819032 O.co2      1 MOL1        -0.6749
       3    O2      18.427185   16.913601   24.047065 O.co2      1 MOL1        -0.6749
       4    C2      19.142350   17.303733   21.834679 C.3        1 MOL1        -0.1955
       5    H1      18.560954   17.317719   20.905404 H          1 MOL1         0.0733
       6    H2      19.577961   16.300063   21.902582 H          1 MOL1         0.0733
       7    C3      20.255526   18.338843   21.755531 C.2        1 MOL1        -0.1395
       8    H3      20.938469   18.201257   20.918152 H          1 MOL1         0.0816
       9    C4      20.443086   19.358623   22.601619 C.2        1 MOL1        -0.1394
      10    H4      19.774303   19.519292   23.446395 H          1 MOL1         0.0816
      11    C5      21.569048   20.361170   22.478942 C.3        1 MOL1        -0.1826
      12    H5      22.061080   20.486638   23.452945 H          1 MOL1         0.0736
      13    H6      22.336524   19.995231   21.783080 H          1 MOL1         0.0736
      14    C6      21.044964   21.725018   21.988749 C.3        1 MOL1        -0.2882
      15    H7      21.865819   22.448821   21.902921 H          1 MOL1         0.0749
      16    H8      20.570696   21.628917   21.003138 H          1 MOL1         0.0749
      17    H9      20.302394   22.133004   22.687029 H          1 MOL1         0.0749
@<TRIPOS>BOND
    1     1     2    1
    2     1     3    2
    3     1     4    1
    4     4     5    1
    5     4     6    1
    6     4     7    1
    7     7     8    1
    8     7     9    2
    9     9    10    1
   10     9    11    1
   11    11    12    1
   12    11    13    1
   13    11    14    1
   14    14    15    1
   15    14    16    1
   16    14    17    1
@<TRIPOS>SUBSTRUCTURE
       1 MOL1            1 RESIDUE      1      MOL     
@<SCITEGIC>MOL_PROPERTY
VConf Rank
SciTegic.value.IntegerValue
955

@<SCITEGIC>MOL_PROPERTY
Conf_Id
SciTegic.value.IntegerValue
39

@<SCITEGIC>MOL_PROPERTY
Delta U+W
SciTegic.value.DoubleValue
-0.422

@<SCITEGIC>MOL_PROPERTY
U+W
SciTegic.value.DoubleValue
-49.849

@<SCITEGIC>MOL_PROPERTY
Grad RMS
SciTegic.value.DoubleValue
0.000000

@<SCITEGIC>MOL_PROPERTY
U
SciTegic.value.DoubleValue
14.465

@<SCITEGIC>MOL_PROPERTY
W
SciTegic.value.DoubleValue
-64.314

@<SCITEGIC>MOL_PROPERTY
W(PB)
SciTegic.value.DoubleValue
-66.406

@<SCITEGIC>MOL_PROPERTY
W(SA)
SciTegic.value.DoubleValue
2.093

@<SCITEGIC>MOL_PROPERTY
Valence
SciTegic.value.DoubleValue
14.072

@<SCITEGIC>MOL_PROPERTY
Coulomb
SciTegic.value.DoubleValue
-0.199

@<SCITEGIC>MOL_PROPERTY
VdW
SciTegic.value.DoubleValue
0.592

@<SCITEGIC>MOL_PROPERTY
VdW6
SciTegic.value.DoubleValue
-5.019

@<SCITEGIC>MOL_PROPERTY
VdW12
SciTegic.value.DoubleValue
5.611

@<SCITEGIC>MOL_PROPERTY
Bond
SciTegic.value.DoubleValue
0.085

@<SCITEGIC>MOL_PROPERTY
Angle
SciTegic.value.DoubleValue
2.748

@<SCITEGIC>MOL_PROPERTY
Pdih
SciTegic.value.DoubleValue
11.238

@<SCITEGIC>MOL_PROPERTY
Idih
SciTegic.value.DoubleValue
0.001

@<SCITEGIC>MOL_PROPERTY
Tether
SciTegic.value.DoubleValue
0.000

@<TRIPOS>MOLECULE
guest-s20_confgen4.mol2 : confsearch ligand conformer 956
          17          16           1
SMALL
USER_CHARGES
 
@<TRIPOS>ATOM
       1    C1      22.474434   19.678414   20.041732 C.2        1 MOL1         0.6132
       2    O1      23.539910   20.039780   20.501228 O.co2      1 MOL1        -0.6749
       3    O2      22.020425   20.091058   18.992723 O.co2      1 MOL1        -0.6749
       4    C2      21.668470   18.648248   20.821978 C.3        1 MOL1        -0.1955
       5    H1      22.368635   17.900050   21.211179 H          1 MOL1         0.0733
       6    H2      21.002929   18.130584   20.120751 H          1 MOL1         0.0733
       7    C3      20.881909   19.267840   21.961352 C.2        1 MOL1        -0.1395
       8    H3      21.482392   19.662219   22.780551 H          1 MOL1         0.0816
       9    C4      19.548271   19.347496   21.997286 C.2        1 MOL1        -0.1394
      10    H4      18.948553   18.955609   21.176419 H          1 MOL1         0.0816
      11    C5      18.765816   19.969063   23.132513 C.3        1 MOL1        -0.1826
      12    H5      19.429816   20.559024   23.779252 H          1 MOL1         0.0736
      13    H6      18.017966   20.665432   22.729617 H          1 MOL1         0.0736
      14    C6      18.060420   18.888921   23.975586 C.3        1 MOL1        -0.2882
      15    H7      18.791517   18.194773   24.410624 H          1 MOL1         0.0749
      16    H8      17.493840   19.345979   24.797274 H          1 MOL1         0.0749
      17    H9      17.360409   18.307616   23.361177 H          1 MOL1         0.0749
@<TRIPOS>BOND
    1     1     2    1
    2     1     3    2
    3     1     4    1
    4     4     5    1
    5     4     6    1
    6     4     7    1
    7     7     8    1
    8     7     9    2
    9     9    10    1
   10     9    11    1
   11    11    12    1
   12    11    13    1
   13    11    14    1
   14    14    15    1
   15    14    16    1
   16    14    17    1
@<TRIPOS>SUBSTRUCTURE
       1 MOL1            1 RESIDUE      1      MOL     
@<SCITEGIC>MOL_PROPERTY
VConf Rank
SciTegic.value.IntegerValue
956

@<SCITEGIC>MOL_PROPERTY
Conf_Id
SciTegic.value.IntegerValue
38

@<SCITEGIC>MOL_PROPERTY
Delta U+W
SciTegic.value.DoubleValue
0.000

@<SCITEGIC>MOL_PROPERTY
U+W
SciTegic.value.DoubleValue
-49.427

@<SCITEGIC>MOL_PROPERTY
Grad RMS
SciTegic.value.DoubleValue
0.000000

@<SCITEGIC>MOL_PROPERTY
U
SciTegic.value.DoubleValue
13.666

@<SCITEGIC>MOL_PROPERTY
W
SciTegic.value.DoubleValue
-63.093

@<SCITEGIC>MOL_PROPERTY
W(PB)
SciTegic.value.DoubleValue
-65.225

@<SCITEGIC>MOL_PROPERTY
W(SA)
SciTegic.value.DoubleValue
2.132

@<SCITEGIC>MOL_PROPERTY
Valence
SciTegic.value.DoubleValue
15.226

@<SCITEGIC>MOL_PROPERTY
Coulomb
SciTegic.value.DoubleValue
-1.822

@<SCITEGIC>MOL_PROPERTY
VdW
SciTegic.value.DoubleValue
0.261

@<SCITEGIC>MOL_PROPERTY
VdW6
SciTegic.value.DoubleValue
-4.165

@<SCITEGIC>MOL_PROPERTY
VdW12
SciTegic.value.DoubleValue
4.426

@<SCITEGIC>MOL_PROPERTY
Bond
SciTegic.value.DoubleValue
0.044

@<SCITEGIC>MOL_PROPERTY
Angle
SciTegic.value.DoubleValue
2.229

@<SCITEGIC>MOL_PROPERTY
Pdih
SciTegic.value.DoubleValue
12.953

@<SCITEGIC>MOL_PROPERTY
Idih
SciTegic.value.DoubleValue
0.000

@<SCITEGIC>MOL_PROPERTY
Tether
SciTegic.value.DoubleValue
0.000

@<TRIPOS>MOLECULE
guest-s20_confgen4.mol2 : confsearch ligand conformer 957
          17          16           1
SMALL
USER_CHARGES
 
@<TRIPOS>ATOM
       1    C1      22.442206   20.312479   20.268401 C.2        1 MOL1         0.6132
       2    O1      22.517425   19.609505   19.279974 O.co2      1 MOL1        -0.6749
       3    O2      23.410186   20.775969   20.838622 O.co2      1 MOL1        -0.6749
       4    C2      21.060371   20.635957   20.821119 C.3        1 MOL1        -0.1955
       5    H1      20.331902   20.527973   20.008523 H          1 MOL1         0.0733
       6    H2      21.056594   21.691417   21.116916 H          1 MOL1         0.0733
       7    C3      20.688777   19.762254   22.004042 C.2        1 MOL1        -0.1395
       8    H3      21.271847   19.931786   22.908745 H          1 MOL1         0.0816
       9    C4      19.724555   18.837068   21.980916 C.2        1 MOL1        -0.1394
      10    H4      19.144037   18.665864   21.074964 H          1 MOL1         0.0816
      11    C5      19.358066   17.964035   23.160247 C.3        1 MOL1        -0.1826
      12    H5      19.295533   16.915258   22.839799 H          1 MOL1         0.0736
      13    H6      20.139176   18.012028   23.931469 H          1 MOL1         0.0736
      14    C6      18.010749   18.395699   23.771365 C.3        1 MOL1        -0.2882
      15    H7      17.203068   18.320760   23.031457 H          1 MOL1         0.0749
      16    H8      17.749826   17.758211   24.626124 H          1 MOL1         0.0749
      17    H9      18.057208   19.434840   24.122973 H          1 MOL1         0.0749
@<TRIPOS>BOND
    1     1     2    1
    2     1     3    2
    3     1     4    1
    4     4     5    1
    5     4     6    1
    6     4     7    1
    7     7     8    1
    8     7     9    2
    9     9    10    1
   10     9    11    1
   11    11    12    1
   12    11    13    1
   13    11    14    1
   14    14    15    1
   15    14    16    1
   16    14    17    1
@<TRIPOS>SUBSTRUCTURE
       1 MOL1            1 RESIDUE      1      MOL     
@<SCITEGIC>MOL_PROPERTY
VConf Rank
SciTegic.value.IntegerValue
957

@<SCITEGIC>MOL_PROPERTY
Conf_Id
SciTegic.value.IntegerValue
35

@<SCITEGIC>MOL_PROPERTY
Delta U+W
SciTegic.value.DoubleValue
-0.102

@<SCITEGIC>MOL_PROPERTY
U+W
SciTegic.value.DoubleValue
-49.529

@<SCITEGIC>MOL_PROPERTY
Grad RMS
SciTegic.value.DoubleValue
0.000000

@<SCITEGIC>MOL_PROPERTY
U
SciTegic.value.DoubleValue
13.666

@<SCITEGIC>MOL_PROPERTY
W
SciTegic.value.DoubleValue
-63.195

@<SCITEGIC>MOL_PROPERTY
W(PB)
SciTegic.value.DoubleValue
-65.299

@<SCITEGIC>MOL_PROPERTY
W(SA)
SciTegic.value.DoubleValue
2.103

@<SCITEGIC>MOL_PROPERTY
Valence
SciTegic.value.DoubleValue
15.226

@<SCITEGIC>MOL_PROPERTY
Coulomb
SciTegic.value.DoubleValue
-1.822

@<SCITEGIC>MOL_PROPERTY
VdW
SciTegic.value.DoubleValue
0.261

@<SCITEGIC>MOL_PROPERTY
VdW6
SciTegic.value.DoubleValue
-4.165

@<SCITEGIC>MOL_PROPERTY
VdW12
SciTegic.value.DoubleValue
4.426

@<SCITEGIC>MOL_PROPERTY
Bond
SciTegic.value.DoubleValue
0.044

@<SCITEGIC>MOL_PROPERTY
Angle
SciTegic.value.DoubleValue
2.229

@<SCITEGIC>MOL_PROPERTY
Pdih
SciTegic.value.DoubleValue
12.953

@<SCITEGIC>MOL_PROPERTY
Idih
SciTegic.value.DoubleValue
0.000

@<SCITEGIC>MOL_PROPERTY
Tether
SciTegic.value.DoubleValue
0.000

@<TRIPOS>MOLECULE
guest-s20_confgen4.mol2 : confsearch ligand conformer 958
          17          16           1
SMALL
USER_CHARGES
 
@<TRIPOS>ATOM
       1    C1      21.277126   19.465636   19.472137 C.2        1 MOL1         0.6132
       2    O1      21.214926   20.638351   19.159339 O.co2      1 MOL1        -0.6749
       3    O2      22.253399   18.768863   19.276569 O.co2      1 MOL1        -0.6749
       4    C2      20.060786   18.834347   20.136729 C.3        1 MOL1        -0.1955
       5    H1      20.096957   17.752475   19.961146 H          1 MOL1         0.0733
       6    H2      19.167016   19.211960   19.626735 H          1 MOL1         0.0733
       7    C3      19.983638   19.143889   21.619847 C.2        1 MOL1        -0.1395
       8    H3      19.787577   20.188262   21.856354 H          1 MOL1         0.0816
       9    C4      20.145186   18.228452   22.583480 C.2        1 MOL1        -0.1394
      10    H4      20.344479   17.193246   22.308317 H          1 MOL1         0.0816
      11    C5      20.084808   18.468438   24.082596 C.3        1 MOL1        -0.1826
      12    H5      19.310689   17.821219   24.516594 H          1 MOL1         0.0736
      13    H6      21.030831   18.140558   24.534320 H          1 MOL1         0.0736
      14    C6      19.809438   19.930396   24.498383 C.3        1 MOL1        -0.2882
      15    H7      18.842871   20.275544   24.108481 H          1 MOL1         0.0749
      16    H8      19.782226   20.020858   25.592049 H          1 MOL1         0.0749
      17    H9      20.594912   20.600628   24.125143 H          1 MOL1         0.0749
@<TRIPOS>BOND
    1     1     2    1
    2     1     3    2
    3     1     4    1
    4     4     5    1
    5     4     6    1
    6     4     7    1
    7     7     8    1
    8     7     9    2
    9     9    10    1
   10     9    11    1
   11    11    12    1
   12    11    13    1
   13    11    14    1
   14    14    15    1
   15    14    16    1
   16    14    17    1
@<TRIPOS>SUBSTRUCTURE
       1 MOL1            1 RESIDUE      1      MOL     
@<SCITEGIC>MOL_PROPERTY
VConf Rank
SciTegic.value.IntegerValue
958

@<SCITEGIC>MOL_PROPERTY
Conf_Id
SciTegic.value.IntegerValue
19

@<SCITEGIC>MOL_PROPERTY
Delta U+W
SciTegic.value.DoubleValue
-0.496

@<SCITEGIC>MOL_PROPERTY
U+W
SciTegic.value.DoubleValue
-49.923

@<SCITEGIC>MOL_PROPERTY
Grad RMS
SciTegic.value.DoubleValue
0.000000

@<SCITEGIC>MOL_PROPERTY
U
SciTegic.value.DoubleValue
13.863

@<SCITEGIC>MOL_PROPERTY
W
SciTegic.value.DoubleValue
-63.786

@<SCITEGIC>MOL_PROPERTY
W(PB)
SciTegic.value.DoubleValue
-65.856

@<SCITEGIC>MOL_PROPERTY
W(SA)
SciTegic.value.DoubleValue
2.070

@<SCITEGIC>MOL_PROPERTY
Valence
SciTegic.value.DoubleValue
14.117

@<SCITEGIC>MOL_PROPERTY
Coulomb
SciTegic.value.DoubleValue
-1.228

@<SCITEGIC>MOL_PROPERTY
VdW
SciTegic.value.DoubleValue
0.974

@<SCITEGIC>MOL_PROPERTY
VdW6
SciTegic.value.DoubleValue
-4.885

@<SCITEGIC>MOL_PROPERTY
VdW12
SciTegic.value.DoubleValue
5.859

@<SCITEGIC>MOL_PROPERTY
Bond
SciTegic.value.DoubleValue
0.094

@<SCITEGIC>MOL_PROPERTY
Angle
SciTegic.value.DoubleValue
2.818

@<SCITEGIC>MOL_PROPERTY
Pdih
SciTegic.value.DoubleValue
11.205

@<SCITEGIC>MOL_PROPERTY
Idih
SciTegic.value.DoubleValue
0.000

@<SCITEGIC>MOL_PROPERTY
Tether
SciTegic.value.DoubleValue
0.000

@<TRIPOS>MOLECULE
guest-s20_confgen4.mol2 : confsearch ligand conformer 959
          17          16           1
SMALL
USER_CHARGES
 
@<TRIPOS>ATOM
       1    C1      17.395840   19.729233   21.470412 C.2        1 MOL1         0.6132
       2    O1      16.764167   19.299369   22.415409 O.co2      1 MOL1        -0.6749
       3    O2      17.214810   20.828777   20.985403 O.co2      1 MOL1        -0.6749
       4    C2      18.465814   18.839160   20.851740 C.3        1 MOL1        -0.1955
       5    H1      18.390926   18.933829   19.762284 H          1 MOL1         0.0733
       6    H2      18.231183   17.797115   21.100224 H          1 MOL1         0.0733
       7    C3      19.863865   19.206191   21.311635 C.2        1 MOL1        -0.1395
       8    H3      20.227733   20.173711   20.967075 H          1 MOL1         0.0816
       9    C4      20.625964   18.432137   22.090263 C.2        1 MOL1        -0.1394
      10    H4      20.259598   17.467047   22.438741 H          1 MOL1         0.0816
      11    C5      22.018654   18.801304   22.550119 C.3        1 MOL1        -0.1826
      12    H5      22.701394   17.957902   22.379648 H          1 MOL1         0.0736
      13    H6      22.406500   19.644835   21.962548 H          1 MOL1         0.0736
      14    C6      22.026823   19.175009   24.045201 C.3        1 MOL1        -0.2882
      15    H7      21.679758   18.334788   24.660832 H          1 MOL1         0.0749
      16    H8      23.039639   19.442422   24.373470 H          1 MOL1         0.0749
      17    H9      21.368907   20.033178   24.235917 H          1 MOL1         0.0749
@<TRIPOS>BOND
    1     1     2    1
    2     1     3    2
    3     1     4    1
    4     4     5    1
    5     4     6    1
    6     4     7    1
    7     7     8    1
    8     7     9    2
    9     9    10    1
   10     9    11    1
   11    11    12    1
   12    11    13    1
   13    11    14    1
   14    14    15    1
   15    14    16    1
   16    14    17    1
@<TRIPOS>SUBSTRUCTURE
       1 MOL1            1 RESIDUE      1      MOL     
@<SCITEGIC>MOL_PROPERTY
VConf Rank
SciTegic.value.IntegerValue
959

@<SCITEGIC>MOL_PROPERTY
Conf_Id
SciTegic.value.IntegerValue
7

@<SCITEGIC>MOL_PROPERTY
Delta U+W
SciTegic.value.DoubleValue
-0.041

@<SCITEGIC>MOL_PROPERTY
U+W
SciTegic.value.DoubleValue
-49.468

@<SCITEGIC>MOL_PROPERTY
Grad RMS
SciTegic.value.DoubleValue
0.000000

@<SCITEGIC>MOL_PROPERTY
U
SciTegic.value.DoubleValue
14.121

@<SCITEGIC>MOL_PROPERTY
W
SciTegic.value.DoubleValue
-63.589

@<SCITEGIC>MOL_PROPERTY
W(PB)
SciTegic.value.DoubleValue
-65.660

@<SCITEGIC>MOL_PROPERTY
W(SA)
SciTegic.value.DoubleValue
2.071

@<SCITEGIC>MOL_PROPERTY
Valence
SciTegic.value.DoubleValue
15.230

@<SCITEGIC>MOL_PROPERTY
Coulomb
SciTegic.value.DoubleValue
-1.333

@<SCITEGIC>MOL_PROPERTY
VdW
SciTegic.value.DoubleValue
0.224

@<SCITEGIC>MOL_PROPERTY
VdW6
SciTegic.value.DoubleValue
-4.212

@<SCITEGIC>MOL_PROPERTY
VdW12
SciTegic.value.DoubleValue
4.436

@<SCITEGIC>MOL_PROPERTY
Bond
SciTegic.value.DoubleValue
0.044

@<SCITEGIC>MOL_PROPERTY
Angle
SciTegic.value.DoubleValue
2.230

@<SCITEGIC>MOL_PROPERTY
Pdih
SciTegic.value.DoubleValue
12.956

@<SCITEGIC>MOL_PROPERTY
Idih
SciTegic.value.DoubleValue
0.000

@<SCITEGIC>MOL_PROPERTY
Tether
SciTegic.value.DoubleValue
0.000

@<TRIPOS>MOLECULE
guest-s20_confgen4.mol2 : confsearch ligand conformer 960
          17          16           1
SMALL
USER_CHARGES
 
@<TRIPOS>ATOM
       1    C1      22.299719   19.630571   20.595728 C.2        1 MOL1         0.6132
       2    O1      22.376324   18.533078   20.079362 O.co2      1 MOL1        -0.6749
       3    O2      23.228985   20.172825   21.160979 O.co2      1 MOL1        -0.6749
       4    C2      20.973846   20.379889   20.505394 C.3        1 MOL1        -0.1955
       5    H1      20.493047   20.100002   19.560797 H          1 MOL1         0.0733
       6    H2      21.197826   21.449911   20.424116 H          1 MOL1         0.0733
       7    C3      20.007591   20.146949   21.658202 C.2        1 MOL1        -0.1395
       8    H3      19.067795   20.691209   21.573882 H          1 MOL1         0.0816
       9    C4      20.221503   19.356055   22.716373 C.2        1 MOL1        -0.1394
      10    H4      21.152080   18.800116   22.824498 H          1 MOL1         0.0816
      11    C5      19.226407   19.159810   23.838519 C.3        1 MOL1        -0.1826
      12    H5      19.733029   19.271732   24.806675 H          1 MOL1         0.0736
      13    H6      18.445631   19.931878   23.800388 H          1 MOL1         0.0736
      14    C6      18.570788   17.767328   23.759818 C.3        1 MOL1        -0.2882
      15    H7      17.850862   17.629910   24.577058 H          1 MOL1         0.0749
      16    H8      18.035669   17.641660   22.809319 H          1 MOL1         0.0749
      17    H9      19.326303   16.974150   23.834147 H          1 MOL1         0.0749
@<TRIPOS>BOND
    1     1     2    1
    2     1     3    2
    3     1     4    1
    4     4     5    1
    5     4     6    1
    6     4     7    1
    7     7     8    1
    8     7     9    2
    9     9    10    1
   10     9    11    1
   11    11    12    1
   12    11    13    1
   13    11    14    1
   14    14    15    1
   15    14    16    1
   16    14    17    1
@<TRIPOS>SUBSTRUCTURE
       1 MOL1            1 RESIDUE      1      MOL     
@<SCITEGIC>MOL_PROPERTY
VConf Rank
SciTegic.value.IntegerValue
960

@<SCITEGIC>MOL_PROPERTY
Conf_Id
SciTegic.value.IntegerValue
39

@<SCITEGIC>MOL_PROPERTY
Delta U+W
SciTegic.value.DoubleValue
-0.422

@<SCITEGIC>MOL_PROPERTY
U+W
SciTegic.value.DoubleValue
-49.849

@<SCITEGIC>MOL_PROPERTY
Grad RMS
SciTegic.value.DoubleValue
0.000000

@<SCITEGIC>MOL_PROPERTY
U
SciTegic.value.DoubleValue
14.465

@<SCITEGIC>MOL_PROPERTY
W
SciTegic.value.DoubleValue
-64.314

@<SCITEGIC>MOL_PROPERTY
W(PB)
SciTegic.value.DoubleValue
-66.406

@<SCITEGIC>MOL_PROPERTY
W(SA)
SciTegic.value.DoubleValue
2.093

@<SCITEGIC>MOL_PROPERTY
Valence
SciTegic.value.DoubleValue
14.072

@<SCITEGIC>MOL_PROPERTY
Coulomb
SciTegic.value.DoubleValue
-0.199

@<SCITEGIC>MOL_PROPERTY
VdW
SciTegic.value.DoubleValue
0.592

@<SCITEGIC>MOL_PROPERTY
VdW6
SciTegic.value.DoubleValue
-5.019

@<SCITEGIC>MOL_PROPERTY
VdW12
SciTegic.value.DoubleValue
5.611

@<SCITEGIC>MOL_PROPERTY
Bond
SciTegic.value.DoubleValue
0.085

@<SCITEGIC>MOL_PROPERTY
Angle
SciTegic.value.DoubleValue
2.748

@<SCITEGIC>MOL_PROPERTY
Pdih
SciTegic.value.DoubleValue
11.238

@<SCITEGIC>MOL_PROPERTY
Idih
SciTegic.value.DoubleValue
0.001

@<SCITEGIC>MOL_PROPERTY
Tether
SciTegic.value.DoubleValue
0.000

@<TRIPOS>MOLECULE
guest-s20_confgen4.mol2 : confsearch ligand conformer 961
          17          16           1
SMALL
USER_CHARGES
 
@<TRIPOS>ATOM
       1    C1      17.846920   17.060358   22.082057 C.2        1 MOL1         0.6132
       2    O1      17.693432   16.430119   23.109773 O.co2      1 MOL1        -0.6749
       3    O2      17.787747   16.564152   20.974313 O.co2      1 MOL1        -0.6749
       4    C2      18.122994   18.554226   22.190438 C.3        1 MOL1        -0.1955
       5    H1      17.476696   18.957986   22.978339 H          1 MOL1         0.0733
       6    H2      17.817240   19.028742   21.250231 H          1 MOL1         0.0733
       7    C3      19.576269   18.855106   22.503817 C.2        1 MOL1        -0.1395
       8    H3      19.910165   18.553343   23.496114 H          1 MOL1         0.0816
       9    C4      20.421843   19.443950   21.652644 C.2        1 MOL1        -0.1394
      10    H4      20.088091   19.742746   20.659472 H          1 MOL1         0.0816
      11    C5      21.871649   19.739765   21.965495 C.3        1 MOL1        -0.1826
      12    H5      22.192073   19.188356   22.860200 H          1 MOL1         0.0736
      13    H6      22.507111   19.395161   21.138470 H          1 MOL1         0.0736
      14    C6      22.093259   21.248326   22.189535 C.3        1 MOL1        -0.2882
      15    H7      21.486444   21.610979   23.029689 H          1 MOL1         0.0749
      16    H8      23.147087   21.456842   22.415487 H          1 MOL1         0.0749
      17    H9      21.816692   21.821952   21.295167 H          1 MOL1         0.0749
@<TRIPOS>BOND
    1     1     2    1
    2     1     3    2
    3     1     4    1
    4     4     5    1
    5     4     6    1
    6     4     7    1
    7     7     8    1
    8     7     9    2
    9     9    10    1
   10     9    11    1
   11    11    12    1
   12    11    13    1
   13    11    14    1
   14    14    15    1
   15    14    16    1
   16    14    17    1
@<TRIPOS>SUBSTRUCTURE
       1 MOL1            1 RESIDUE      1      MOL     
@<SCITEGIC>MOL_PROPERTY
VConf Rank
SciTegic.value.IntegerValue
961

@<SCITEGIC>MOL_PROPERTY
Conf_Id
SciTegic.value.IntegerValue
38

@<SCITEGIC>MOL_PROPERTY
Delta U+W
SciTegic.value.DoubleValue
0.000

@<SCITEGIC>MOL_PROPERTY
U+W
SciTegic.value.DoubleValue
-49.427

@<SCITEGIC>MOL_PROPERTY
Grad RMS
SciTegic.value.DoubleValue
0.000000

@<SCITEGIC>MOL_PROPERTY
U
SciTegic.value.DoubleValue
13.666

@<SCITEGIC>MOL_PROPERTY
W
SciTegic.value.DoubleValue
-63.093

@<SCITEGIC>MOL_PROPERTY
W(PB)
SciTegic.value.DoubleValue
-65.225

@<SCITEGIC>MOL_PROPERTY
W(SA)
SciTegic.value.DoubleValue
2.132

@<SCITEGIC>MOL_PROPERTY
Valence
SciTegic.value.DoubleValue
15.226

@<SCITEGIC>MOL_PROPERTY
Coulomb
SciTegic.value.DoubleValue
-1.822

@<SCITEGIC>MOL_PROPERTY
VdW
SciTegic.value.DoubleValue
0.261

@<SCITEGIC>MOL_PROPERTY
VdW6
SciTegic.value.DoubleValue
-4.165

@<SCITEGIC>MOL_PROPERTY
VdW12
SciTegic.value.DoubleValue
4.426

@<SCITEGIC>MOL_PROPERTY
Bond
SciTegic.value.DoubleValue
0.044

@<SCITEGIC>MOL_PROPERTY
Angle
SciTegic.value.DoubleValue
2.229

@<SCITEGIC>MOL_PROPERTY
Pdih
SciTegic.value.DoubleValue
12.953

@<SCITEGIC>MOL_PROPERTY
Idih
SciTegic.value.DoubleValue
0.000

@<SCITEGIC>MOL_PROPERTY
Tether
SciTegic.value.DoubleValue
0.000

@<TRIPOS>MOLECULE
guest-s20_confgen4.mol2 : confsearch ligand conformer 962
          17          16           1
SMALL
USER_CHARGES
 
@<TRIPOS>ATOM
       1    C1      21.636544   16.545646   21.654815 C.2        1 MOL1         0.6132
       2    O1      21.871541   16.413283   20.469879 O.co2      1 MOL1        -0.6749
       3    O2      21.338119   15.623373   22.387834 O.co2      1 MOL1        -0.6749
       4    C2      21.725595   17.941637   22.257215 C.3        1 MOL1        -0.1955
       5    H1      22.386781   18.546552   21.625115 H          1 MOL1         0.0733
       6    H2      22.210431   17.853618   23.236344 H          1 MOL1         0.0733
       7    C3      20.366169   18.597741   22.406326 C.2        1 MOL1        -0.1395
       8    H3      19.707994   18.141293   23.145015 H          1 MOL1         0.0816
       9    C4      19.962832   19.658803   21.700851 C.2        1 MOL1        -0.1394
      10    H4      20.620296   20.112776   20.960102 H          1 MOL1         0.0816
      11    C5      18.605431   20.309274   21.848070 C.3        1 MOL1        -0.1826
      12    H5      18.156033   20.457682   20.856834 H          1 MOL1         0.0736
      13    H6      17.924024   19.654268   22.408311 H          1 MOL1         0.0736
      14    C6      18.716927   21.666283   22.569982 C.3        1 MOL1        -0.2882
      15    H7      19.363152   22.355550   22.010758 H          1 MOL1         0.0749
      16    H8      17.729043   22.133737   22.673220 H          1 MOL1         0.0749
      17    H9      19.140613   21.539588   23.574988 H          1 MOL1         0.0749
@<TRIPOS>BOND
    1     1     2    1
    2     1     3    2
    3     1     4    1
    4     4     5    1
    5     4     6    1
    6     4     7    1
    7     7     8    1
    8     7     9    2
    9     9    10    1
   10     9    11    1
   11    11    12    1
   12    11    13    1
   13    11    14    1
   14    14    15    1
   15    14    16    1
   16    14    17    1
@<TRIPOS>SUBSTRUCTURE
       1 MOL1            1 RESIDUE      1      MOL     
@<SCITEGIC>MOL_PROPERTY
VConf Rank
SciTegic.value.IntegerValue
962

@<SCITEGIC>MOL_PROPERTY
Conf_Id
SciTegic.value.IntegerValue
35

@<SCITEGIC>MOL_PROPERTY
Delta U+W
SciTegic.value.DoubleValue
-0.102

@<SCITEGIC>MOL_PROPERTY
U+W
SciTegic.value.DoubleValue
-49.529

@<SCITEGIC>MOL_PROPERTY
Grad RMS
SciTegic.value.DoubleValue
0.000000

@<SCITEGIC>MOL_PROPERTY
U
SciTegic.value.DoubleValue
13.666

@<SCITEGIC>MOL_PROPERTY
W
SciTegic.value.DoubleValue
-63.195

@<SCITEGIC>MOL_PROPERTY
W(PB)
SciTegic.value.DoubleValue
-65.299

@<SCITEGIC>MOL_PROPERTY
W(SA)
SciTegic.value.DoubleValue
2.103

@<SCITEGIC>MOL_PROPERTY
Valence
SciTegic.value.DoubleValue
15.226

@<SCITEGIC>MOL_PROPERTY
Coulomb
SciTegic.value.DoubleValue
-1.822

@<SCITEGIC>MOL_PROPERTY
VdW
SciTegic.value.DoubleValue
0.261

@<SCITEGIC>MOL_PROPERTY
VdW6
SciTegic.value.DoubleValue
-4.165

@<SCITEGIC>MOL_PROPERTY
VdW12
SciTegic.value.DoubleValue
4.426

@<SCITEGIC>MOL_PROPERTY
Bond
SciTegic.value.DoubleValue
0.044

@<SCITEGIC>MOL_PROPERTY
Angle
SciTegic.value.DoubleValue
2.229

@<SCITEGIC>MOL_PROPERTY
Pdih
SciTegic.value.DoubleValue
12.953

@<SCITEGIC>MOL_PROPERTY
Idih
SciTegic.value.DoubleValue
0.000

@<SCITEGIC>MOL_PROPERTY
Tether
SciTegic.value.DoubleValue
0.000

@<TRIPOS>MOLECULE
guest-s20_confgen4.mol2 : confsearch ligand conformer 963
          17          16           1
SMALL
USER_CHARGES
 
@<TRIPOS>ATOM
       1    C1      20.296978   18.242866   25.026111 C.2        1 MOL1         0.6132
       2    O1      19.400348   17.451217   25.241330 O.co2      1 MOL1        -0.6749
       3    O2      21.438652   18.086308   25.412011 O.co2      1 MOL1        -0.6749
       4    C2      19.967658   19.503734   24.237787 C.3        1 MOL1        -0.1955
       5    H1      20.707591   20.271458   24.494075 H          1 MOL1         0.0733
       6    H2      18.993745   19.869541   24.583022 H          1 MOL1         0.0733
       7    C3      19.931170   19.259543   22.740975 C.2        1 MOL1        -0.1395
       8    H3      19.112664   18.625901   22.403875 H          1 MOL1         0.0816
       9    C4      20.823314   19.764471   21.879676 C.2        1 MOL1        -0.1394
      10    H4      21.631828   20.391149   22.254729 H          1 MOL1         0.0816
      11    C5      20.848915   19.558369   20.374533 C.3        1 MOL1        -0.1826
      12    H5      20.809264   20.538141   19.879578 H          1 MOL1         0.0736
      13    H6      21.816858   19.123470   20.090861 H          1 MOL1         0.0736
      14    C6      19.715652   18.667835   19.818931 C.3        1 MOL1        -0.2882
      15    H7      18.730870   19.101303   20.037360 H          1 MOL1         0.0749
      16    H8      19.804303   18.567219   18.729415 H          1 MOL1         0.0749
      17    H9      19.757054   17.660594   20.253949 H          1 MOL1         0.0749
@<TRIPOS>BOND
    1     1     2    1
    2     1     3    2
    3     1     4    1
    4     4     5    1
    5     4     6    1
    6     4     7    1
    7     7     8    1
    8     7     9    2
    9     9    10    1
   10     9    11    1
   11    11    12    1
   12    11    13    1
   13    11    14    1
   14    14    15    1
   15    14    16    1
   16    14    17    1
@<TRIPOS>SUBSTRUCTURE
       1 MOL1            1 RESIDUE      1      MOL     
@<SCITEGIC>MOL_PROPERTY
VConf Rank
SciTegic.value.IntegerValue
963

@<SCITEGIC>MOL_PROPERTY
Conf_Id
SciTegic.value.IntegerValue
19

@<SCITEGIC>MOL_PROPERTY
Delta U+W
SciTegic.value.DoubleValue
-0.496

@<SCITEGIC>MOL_PROPERTY
U+W
SciTegic.value.DoubleValue
-49.923

@<SCITEGIC>MOL_PROPERTY
Grad RMS
SciTegic.value.DoubleValue
0.000000

@<SCITEGIC>MOL_PROPERTY
U
SciTegic.value.DoubleValue
13.863

@<SCITEGIC>MOL_PROPERTY
W
SciTegic.value.DoubleValue
-63.786

@<SCITEGIC>MOL_PROPERTY
W(PB)
SciTegic.value.DoubleValue
-65.856

@<SCITEGIC>MOL_PROPERTY
W(SA)
SciTegic.value.DoubleValue
2.070

@<SCITEGIC>MOL_PROPERTY
Valence
SciTegic.value.DoubleValue
14.117

@<SCITEGIC>MOL_PROPERTY
Coulomb
SciTegic.value.DoubleValue
-1.228

@<SCITEGIC>MOL_PROPERTY
VdW
SciTegic.value.DoubleValue
0.974

@<SCITEGIC>MOL_PROPERTY
VdW6
SciTegic.value.DoubleValue
-4.885

@<SCITEGIC>MOL_PROPERTY
VdW12
SciTegic.value.DoubleValue
5.859

@<SCITEGIC>MOL_PROPERTY
Bond
SciTegic.value.DoubleValue
0.094

@<SCITEGIC>MOL_PROPERTY
Angle
SciTegic.value.DoubleValue
2.818

@<SCITEGIC>MOL_PROPERTY
Pdih
SciTegic.value.DoubleValue
11.205

@<SCITEGIC>MOL_PROPERTY
Idih
SciTegic.value.DoubleValue
0.000

@<SCITEGIC>MOL_PROPERTY
Tether
SciTegic.value.DoubleValue
0.000

@<TRIPOS>MOLECULE
guest-s20_confgen4.mol2 : confsearch ligand conformer 964
          17          16           1
SMALL
USER_CHARGES
 
@<TRIPOS>ATOM
       1    C1      18.673854   21.573412   22.562504 C.2        1 MOL1         0.6132
       2    O1      18.893395   22.151680   21.516454 O.co2      1 MOL1        -0.6749
       3    O2      17.569610   21.484408   23.062230 O.co2      1 MOL1        -0.6749
       4    C2      19.846551   20.933841   23.294321 C.3        1 MOL1        -0.1955
       5    H1      19.728462   21.144001   24.363607 H          1 MOL1         0.0733
       6    H2      20.767391   21.432698   22.968975 H          1 MOL1         0.0733
       7    C3      19.928518   19.436907   23.063597 C.2        1 MOL1        -0.1395
       8    H3      19.117836   18.854077   23.499853 H          1 MOL1         0.0816
       9    C4      20.902710   18.835325   22.374202 C.2        1 MOL1        -0.1394
      10    H4      21.710331   19.419159   21.933809 H          1 MOL1         0.0816
      11    C5      20.980997   17.342789   22.142812 C.3        1 MOL1        -0.1826
      12    H5      21.992467   16.983711   22.376292 H          1 MOL1         0.0736
      13    H6      20.294560   16.812699   22.817362 H          1 MOL1         0.0736
      14    C6      20.634715   16.990232   20.683091 C.3        1 MOL1        -0.2882
      15    H7      21.330649   17.476639   19.987024 H          1 MOL1         0.0749
      16    H8      20.692628   15.906077   20.520851 H          1 MOL1         0.0749
      17    H9      19.616903   17.318353   20.433938 H          1 MOL1         0.0749
@<TRIPOS>BOND
    1     1     2    1
    2     1     3    2
    3     1     4    1
    4     4     5    1
    5     4     6    1
    6     4     7    1
    7     7     8    1
    8     7     9    2
    9     9    10    1
   10     9    11    1
   11    11    12    1
   12    11    13    1
   13    11    14    1
   14    14    15    1
   15    14    16    1
   16    14    17    1
@<TRIPOS>SUBSTRUCTURE
       1 MOL1            1 RESIDUE      1      MOL     
@<SCITEGIC>MOL_PROPERTY
VConf Rank
SciTegic.value.IntegerValue
964

@<SCITEGIC>MOL_PROPERTY
Conf_Id
SciTegic.value.IntegerValue
7

@<SCITEGIC>MOL_PROPERTY
Delta U+W
SciTegic.value.DoubleValue
-0.041

@<SCITEGIC>MOL_PROPERTY
U+W
SciTegic.value.DoubleValue
-49.468

@<SCITEGIC>MOL_PROPERTY
Grad RMS
SciTegic.value.DoubleValue
0.000000

@<SCITEGIC>MOL_PROPERTY
U
SciTegic.value.DoubleValue
14.121

@<SCITEGIC>MOL_PROPERTY
W
SciTegic.value.DoubleValue
-63.589

@<SCITEGIC>MOL_PROPERTY
W(PB)
SciTegic.value.DoubleValue
-65.660

@<SCITEGIC>MOL_PROPERTY
W(SA)
SciTegic.value.DoubleValue
2.071

@<SCITEGIC>MOL_PROPERTY
Valence
SciTegic.value.DoubleValue
15.230

@<SCITEGIC>MOL_PROPERTY
Coulomb
SciTegic.value.DoubleValue
-1.333

@<SCITEGIC>MOL_PROPERTY
VdW
SciTegic.value.DoubleValue
0.224

@<SCITEGIC>MOL_PROPERTY
VdW6
SciTegic.value.DoubleValue
-4.212

@<SCITEGIC>MOL_PROPERTY
VdW12
SciTegic.value.DoubleValue
4.436

@<SCITEGIC>MOL_PROPERTY
Bond
SciTegic.value.DoubleValue
0.044

@<SCITEGIC>MOL_PROPERTY
Angle
SciTegic.value.DoubleValue
2.230

@<SCITEGIC>MOL_PROPERTY
Pdih
SciTegic.value.DoubleValue
12.956

@<SCITEGIC>MOL_PROPERTY
Idih
SciTegic.value.DoubleValue
0.000

@<SCITEGIC>MOL_PROPERTY
Tether
SciTegic.value.DoubleValue
0.000

@<TRIPOS>MOLECULE
guest-s20_confgen4.mol2 : confsearch ligand conformer 965
          17          16           1
SMALL
USER_CHARGES
 
@<TRIPOS>ATOM
       1    C1      20.405113   17.037160   20.668350 C.2        1 MOL1         0.6132
       2    O1      19.333802   16.492218   20.848139 O.co2      1 MOL1        -0.6749
       3    O2      21.475159   16.484902   20.832950 O.co2      1 MOL1        -0.6749
       4    C2      20.406830   18.483598   20.183178 C.3        1 MOL1        -0.1955
       5    H1      19.519977   18.628780   19.555338 H          1 MOL1         0.0733
       6    H2      21.270076   18.614302   19.520273 H          1 MOL1         0.0733
       7    C3      20.437368   19.543052   21.275653 C.2        1 MOL1        -0.1395
       8    H3      20.438222   20.568271   20.907589 H          1 MOL1         0.0816
       9    C4      20.459973   19.313304   22.593872 C.2        1 MOL1        -0.1394
      10    H4      20.458749   18.297829   22.988260 H          1 MOL1         0.0816
      11    C5      20.491423   20.404775   23.640602 C.3        1 MOL1        -0.1826
      12    H5      21.272386   20.185385   24.381200 H          1 MOL1         0.0736
      13    H6      20.752534   21.369247   23.183692 H          1 MOL1         0.0736
      14    C6      19.129785   20.529382   24.351554 C.3        1 MOL1        -0.2882
      15    H7      19.158779   21.321706   25.110792 H          1 MOL1         0.0749
      16    H8      18.336115   20.774215   23.633405 H          1 MOL1         0.0749
      17    H9      18.861115   19.588946   24.850407 H          1 MOL1         0.0749
@<TRIPOS>BOND
    1     1     2    1
    2     1     3    2
    3     1     4    1
    4     4     5    1
    5     4     6    1
    6     4     7    1
    7     7     8    1
    8     7     9    2
    9     9    10    1
   10     9    11    1
   11    11    12    1
   12    11    13    1
   13    11    14    1
   14    14    15    1
   15    14    16    1
   16    14    17    1
@<TRIPOS>SUBSTRUCTURE
       1 MOL1            1 RESIDUE      1      MOL     
@<SCITEGIC>MOL_PROPERTY
VConf Rank
SciTegic.value.IntegerValue
965

@<SCITEGIC>MOL_PROPERTY
Conf_Id
SciTegic.value.IntegerValue
39

@<SCITEGIC>MOL_PROPERTY
Delta U+W
SciTegic.value.DoubleValue
-0.422

@<SCITEGIC>MOL_PROPERTY
U+W
SciTegic.value.DoubleValue
-49.849

@<SCITEGIC>MOL_PROPERTY
Grad RMS
SciTegic.value.DoubleValue
0.000000

@<SCITEGIC>MOL_PROPERTY
U
SciTegic.value.DoubleValue
14.465

@<SCITEGIC>MOL_PROPERTY
W
SciTegic.value.DoubleValue
-64.314

@<SCITEGIC>MOL_PROPERTY
W(PB)
SciTegic.value.DoubleValue
-66.406

@<SCITEGIC>MOL_PROPERTY
W(SA)
SciTegic.value.DoubleValue
2.093

@<SCITEGIC>MOL_PROPERTY
Valence
SciTegic.value.DoubleValue
14.072

@<SCITEGIC>MOL_PROPERTY
Coulomb
SciTegic.value.DoubleValue
-0.199

@<SCITEGIC>MOL_PROPERTY
VdW
SciTegic.value.DoubleValue
0.592

@<SCITEGIC>MOL_PROPERTY
VdW6
SciTegic.value.DoubleValue
-5.019

@<SCITEGIC>MOL_PROPERTY
VdW12
SciTegic.value.DoubleValue
5.611

@<SCITEGIC>MOL_PROPERTY
Bond
SciTegic.value.DoubleValue
0.085

@<SCITEGIC>MOL_PROPERTY
Angle
SciTegic.value.DoubleValue
2.748

@<SCITEGIC>MOL_PROPERTY
Pdih
SciTegic.value.DoubleValue
11.238

@<SCITEGIC>MOL_PROPERTY
Idih
SciTegic.value.DoubleValue
0.001

@<SCITEGIC>MOL_PROPERTY
Tether
SciTegic.value.DoubleValue
0.000

@<TRIPOS>MOLECULE
guest-s20_confgen4.mol2 : confsearch ligand conformer 966
          17          16           1
SMALL
USER_CHARGES
 
@<TRIPOS>ATOM
       1    C1      18.638104   18.597518   19.385848 C.2        1 MOL1         0.6132
       2    O1      18.143031   17.491194   19.296909 O.co2      1 MOL1        -0.6749
       3    O2      19.218830   19.149266   18.471983 O.co2      1 MOL1        -0.6749
       4    C2      18.518349   19.332955   20.714154 C.3        1 MOL1        -0.1955
       5    H1      17.507045   19.162817   21.101226 H          1 MOL1         0.0733
       6    H2      18.610953   20.408386   20.520472 H          1 MOL1         0.0733
       7    C3      19.548329   18.872457   21.727973 C.2        1 MOL1        -0.1395
       8    H3      19.419704   17.853412   22.091573 H          1 MOL1         0.0816
       9    C4      20.558367   19.628471   22.168986 C.2        1 MOL1        -0.1394
      10    H4      20.688136   20.646357   21.802753 H          1 MOL1         0.0816
      11    C5      21.586665   19.166306   23.177118 C.3        1 MOL1        -0.1826
      12    H5      21.544006   18.074960   23.296973 H          1 MOL1         0.0736
      13    H6      22.595425   19.404250   22.813359 H          1 MOL1         0.0736
      14    C6      21.362030   19.838833   24.545440 C.3        1 MOL1        -0.2882
      15    H7      20.367781   19.593840   24.941733 H          1 MOL1         0.0749
      16    H8      22.111491   19.500095   25.272524 H          1 MOL1         0.0749
      17    H9      21.437467   20.930993   24.462217 H          1 MOL1         0.0749
@<TRIPOS>BOND
    1     1     2    1
    2     1     3    2
    3     1     4    1
    4     4     5    1
    5     4     6    1
    6     4     7    1
    7     7     8    1
    8     7     9    2
    9     9    10    1
   10     9    11    1
   11    11    12    1
   12    11    13    1
   13    11    14    1
   14    14    15    1
   15    14    16    1
   16    14    17    1
@<TRIPOS>SUBSTRUCTURE
       1 MOL1            1 RESIDUE      1      MOL     
@<SCITEGIC>MOL_PROPERTY
VConf Rank
SciTegic.value.IntegerValue
966

@<SCITEGIC>MOL_PROPERTY
Conf_Id
SciTegic.value.IntegerValue
38

@<SCITEGIC>MOL_PROPERTY
Delta U+W
SciTegic.value.DoubleValue
0.000

@<SCITEGIC>MOL_PROPERTY
U+W
SciTegic.value.DoubleValue
-49.427

@<SCITEGIC>MOL_PROPERTY
Grad RMS
SciTegic.value.DoubleValue
0.000000

@<SCITEGIC>MOL_PROPERTY
U
SciTegic.value.DoubleValue
13.666

@<SCITEGIC>MOL_PROPERTY
W
SciTegic.value.DoubleValue
-63.093

@<SCITEGIC>MOL_PROPERTY
W(PB)
SciTegic.value.DoubleValue
-65.225

@<SCITEGIC>MOL_PROPERTY
W(SA)
SciTegic.value.DoubleValue
2.132

@<SCITEGIC>MOL_PROPERTY
Valence
SciTegic.value.DoubleValue
15.226

@<SCITEGIC>MOL_PROPERTY
Coulomb
SciTegic.value.DoubleValue
-1.822

@<SCITEGIC>MOL_PROPERTY
VdW
SciTegic.value.DoubleValue
0.261

@<SCITEGIC>MOL_PROPERTY
VdW6
SciTegic.value.DoubleValue
-4.165

@<SCITEGIC>MOL_PROPERTY
VdW12
SciTegic.value.DoubleValue
4.426

@<SCITEGIC>MOL_PROPERTY
Bond
SciTegic.value.DoubleValue
0.044

@<SCITEGIC>MOL_PROPERTY
Angle
SciTegic.value.DoubleValue
2.229

@<SCITEGIC>MOL_PROPERTY
Pdih
SciTegic.value.DoubleValue
12.953

@<SCITEGIC>MOL_PROPERTY
Idih
SciTegic.value.DoubleValue
0.000

@<SCITEGIC>MOL_PROPERTY
Tether
SciTegic.value.DoubleValue
0.000

@<TRIPOS>MOLECULE
guest-s20_confgen4.mol2 : confsearch ligand conformer 967
          17          16           1
SMALL
USER_CHARGES
 
@<TRIPOS>ATOM
       1    C1      18.402594   18.024901   24.479544 C.2        1 MOL1         0.6132
       2    O1      17.519801   18.800427   24.789472 O.co2      1 MOL1        -0.6749
       3    O2      19.014231   17.347445   25.281986 O.co2      1 MOL1        -0.6749
       4    C2      18.759792   17.888994   23.005250 C.3        1 MOL1        -0.1955
       5    H1      17.892123   18.201385   22.411783 H          1 MOL1         0.0733
       6    H2      18.924417   16.825460   22.797162 H          1 MOL1         0.0733
       7    C3      19.992014   18.689919   22.629894 C.2        1 MOL1        -0.1395
       8    H3      20.927465   18.332849   23.059585 H          1 MOL1         0.0816
       9    C4      19.976182   19.764177   21.834943 C.2        1 MOL1        -0.1394
      10    H4      19.039977   20.122574   21.408174 H          1 MOL1         0.0816
      11    C5      21.205331   20.563932   21.464935 C.3        1 MOL1        -0.1826
      12    H5      21.008408   21.634758   21.610150 H          1 MOL1         0.0736
      13    H6      22.045072   20.305481   22.124676 H          1 MOL1         0.0736
      14    C6      21.610888   20.310206   19.999941 C.3        1 MOL1        -0.2882
      15    H7      20.802417   20.596468   19.314480 H          1 MOL1         0.0749
      16    H8      22.502831   20.893685   19.737118 H          1 MOL1         0.0749
      17    H9      21.837981   19.248444   19.836566 H          1 MOL1         0.0749
@<TRIPOS>BOND
    1     1     2    1
    2     1     3    2
    3     1     4    1
    4     4     5    1
    5     4     6    1
    6     4     7    1
    7     7     8    1
    8     7     9    2
    9     9    10    1
   10     9    11    1
   11    11    12    1
   12    11    13    1
   13    11    14    1
   14    14    15    1
   15    14    16    1
   16    14    17    1
@<TRIPOS>SUBSTRUCTURE
       1 MOL1            1 RESIDUE      1      MOL     
@<SCITEGIC>MOL_PROPERTY
VConf Rank
SciTegic.value.IntegerValue
967

@<SCITEGIC>MOL_PROPERTY
Conf_Id
SciTegic.value.IntegerValue
35

@<SCITEGIC>MOL_PROPERTY
Delta U+W
SciTegic.value.DoubleValue
-0.102

@<SCITEGIC>MOL_PROPERTY
U+W
SciTegic.value.DoubleValue
-49.529

@<SCITEGIC>MOL_PROPERTY
Grad RMS
SciTegic.value.DoubleValue
0.000000

@<SCITEGIC>MOL_PROPERTY
U
SciTegic.value.DoubleValue
13.666

@<SCITEGIC>MOL_PROPERTY
W
SciTegic.value.DoubleValue
-63.195

@<SCITEGIC>MOL_PROPERTY
W(PB)
SciTegic.value.DoubleValue
-65.299

@<SCITEGIC>MOL_PROPERTY
W(SA)
SciTegic.value.DoubleValue
2.103

@<SCITEGIC>MOL_PROPERTY
Valence
SciTegic.value.DoubleValue
15.226

@<SCITEGIC>MOL_PROPERTY
Coulomb
SciTegic.value.DoubleValue
-1.822

@<SCITEGIC>MOL_PROPERTY
VdW
SciTegic.value.DoubleValue
0.261

@<SCITEGIC>MOL_PROPERTY
VdW6
SciTegic.value.DoubleValue
-4.165

@<SCITEGIC>MOL_PROPERTY
VdW12
SciTegic.value.DoubleValue
4.426

@<SCITEGIC>MOL_PROPERTY
Bond
SciTegic.value.DoubleValue
0.044

@<SCITEGIC>MOL_PROPERTY
Angle
SciTegic.value.DoubleValue
2.229

@<SCITEGIC>MOL_PROPERTY
Pdih
SciTegic.value.DoubleValue
12.953

@<SCITEGIC>MOL_PROPERTY
Idih
SciTegic.value.DoubleValue
0.000

@<SCITEGIC>MOL_PROPERTY
Tether
SciTegic.value.DoubleValue
0.000

@<TRIPOS>MOLECULE
guest-s20_confgen4.mol2 : confsearch ligand conformer 968
          17          16           1
SMALL
USER_CHARGES
 
@<TRIPOS>ATOM
       1    C1      18.358388   17.083565   23.284242 C.2        1 MOL1         0.6132
       2    O1      17.220470   17.354840   22.954816 O.co2      1 MOL1        -0.6749
       3    O2      18.828305   15.964752   23.218776 O.co2      1 MOL1        -0.6749
       4    C2      19.238744   18.206561   23.816734 C.3        1 MOL1        -0.1955
       5    H1      20.019316   17.761601   24.445464 H          1 MOL1         0.0733
       6    H2      18.621528   18.835076   24.469056 H          1 MOL1         0.0733
       7    C3      19.844375   19.045207   22.707099 C.2        1 MOL1        -0.1395
       8    H3      19.127143   19.639751   22.143907 H          1 MOL1         0.0816
       9    C4      21.151182   19.068447   22.416537 C.2        1 MOL1        -0.1394
      10    H4      21.838603   18.456354   22.999530 H          1 MOL1         0.0816
      11    C5      21.823033   19.878930   21.320944 C.3        1 MOL1        -0.1826
      12    H5      22.589744   20.522807   21.772697 H          1 MOL1         0.0736
      13    H6      22.366784   19.195562   20.654713 H          1 MOL1         0.0736
      14    C6      20.868077   20.750724   20.475922 C.3        1 MOL1        -0.2882
      15    H7      20.345742   21.484845   21.103325 H          1 MOL1         0.0749
      16    H8      21.427446   21.301807   19.708821 H          1 MOL1         0.0749
      17    H9      20.117984   20.132294   19.965634 H          1 MOL1         0.0749
@<TRIPOS>BOND
    1     1     2    1
    2     1     3    2
    3     1     4    1
    4     4     5    1
    5     4     6    1
    6     4     7    1
    7     7     8    1
    8     7     9    2
    9     9    10    1
   10     9    11    1
   11    11    12    1
   12    11    13    1
   13    11    14    1
   14    14    15    1
   15    14    16    1
   16    14    17    1
@<TRIPOS>SUBSTRUCTURE
       1 MOL1            1 RESIDUE      1      MOL     
@<SCITEGIC>MOL_PROPERTY
VConf Rank
SciTegic.value.IntegerValue
968

@<SCITEGIC>MOL_PROPERTY
Conf_Id
SciTegic.value.IntegerValue
19

@<SCITEGIC>MOL_PROPERTY
Delta U+W
SciTegic.value.DoubleValue
-0.496

@<SCITEGIC>MOL_PROPERTY
U+W
SciTegic.value.DoubleValue
-49.923

@<SCITEGIC>MOL_PROPERTY
Grad RMS
SciTegic.value.DoubleValue
0.000000

@<SCITEGIC>MOL_PROPERTY
U
SciTegic.value.DoubleValue
13.863

@<SCITEGIC>MOL_PROPERTY
W
SciTegic.value.DoubleValue
-63.786

@<SCITEGIC>MOL_PROPERTY
W(PB)
SciTegic.value.DoubleValue
-65.856

@<SCITEGIC>MOL_PROPERTY
W(SA)
SciTegic.value.DoubleValue
2.070

@<SCITEGIC>MOL_PROPERTY
Valence
SciTegic.value.DoubleValue
14.117

@<SCITEGIC>MOL_PROPERTY
Coulomb
SciTegic.value.DoubleValue
-1.228

@<SCITEGIC>MOL_PROPERTY
VdW
SciTegic.value.DoubleValue
0.974

@<SCITEGIC>MOL_PROPERTY
VdW6
SciTegic.value.DoubleValue
-4.885

@<SCITEGIC>MOL_PROPERTY
VdW12
SciTegic.value.DoubleValue
5.859

@<SCITEGIC>MOL_PROPERTY
Bond
SciTegic.value.DoubleValue
0.094

@<SCITEGIC>MOL_PROPERTY
Angle
SciTegic.value.DoubleValue
2.818

@<SCITEGIC>MOL_PROPERTY
Pdih
SciTegic.value.DoubleValue
11.205

@<SCITEGIC>MOL_PROPERTY
Idih
SciTegic.value.DoubleValue
0.000

@<SCITEGIC>MOL_PROPERTY
Tether
SciTegic.value.DoubleValue
0.000

@<TRIPOS>MOLECULE
guest-s20_confgen4.mol2 : confsearch ligand conformer 969
          17          16           1
SMALL
USER_CHARGES
 
@<TRIPOS>ATOM
       1    C1      18.523506   19.050520   19.772810 C.2        1 MOL1         0.6132
       2    O1      17.948034   17.983227   19.853626 O.co2      1 MOL1        -0.6749
       3    O2      17.968612   20.093180   19.486533 O.co2      1 MOL1        -0.6749
       4    C2      20.023748   19.083904   20.033549 C.3        1 MOL1        -0.1955
       5    H1      20.479334   19.739835   19.282761 H          1 MOL1         0.0733
       6    H2      20.423861   18.076839   19.865072 H          1 MOL1         0.0733
       7    C3      20.360077   19.576229   21.428275 C.2        1 MOL1        -0.1395
       8    H3      20.131146   20.624240   21.619272 H          1 MOL1         0.0816
       9    C4      20.892177   18.811783   22.386767 C.2        1 MOL1        -0.1394
      10    H4      21.116112   17.762577   22.196825 H          1 MOL1         0.0816
      11    C5      21.224076   19.303938   23.777797 C.3        1 MOL1        -0.1826
      12    H5      22.241500   18.991220   24.049050 H          1 MOL1         0.0736
      13    H6      21.212513   20.402137   23.809937 H          1 MOL1         0.0736
      14    C6      20.224003   18.753127   24.812906 C.3        1 MOL1        -0.2882
      15    H7      20.242567   17.655496   24.829878 H          1 MOL1         0.0749
      16    H8      20.469204   19.113682   25.820350 H          1 MOL1         0.0749
      17    H9      19.201106   19.074075   24.575514 H          1 MOL1         0.0749
@<TRIPOS>BOND
    1     1     2    1
    2     1     3    2
    3     1     4    1
    4     4     5    1
    5     4     6    1
    6     4     7    1
    7     7     8    1
    8     7     9    2
    9     9    10    1
   10     9    11    1
   11    11    12    1
   12    11    13    1
   13    11    14    1
   14    14    15    1
   15    14    16    1
   16    14    17    1
@<TRIPOS>SUBSTRUCTURE
       1 MOL1            1 RESIDUE      1      MOL     
@<SCITEGIC>MOL_PROPERTY
VConf Rank
SciTegic.value.IntegerValue
969

@<SCITEGIC>MOL_PROPERTY
Conf_Id
SciTegic.value.IntegerValue
7

@<SCITEGIC>MOL_PROPERTY
Delta U+W
SciTegic.value.DoubleValue
-0.041

@<SCITEGIC>MOL_PROPERTY
U+W
SciTegic.value.DoubleValue
-49.468

@<SCITEGIC>MOL_PROPERTY
Grad RMS
SciTegic.value.DoubleValue
0.000000

@<SCITEGIC>MOL_PROPERTY
U
SciTegic.value.DoubleValue
14.121

@<SCITEGIC>MOL_PROPERTY
W
SciTegic.value.DoubleValue
-63.589

@<SCITEGIC>MOL_PROPERTY
W(PB)
SciTegic.value.DoubleValue
-65.660

@<SCITEGIC>MOL_PROPERTY
W(SA)
SciTegic.value.DoubleValue
2.071

@<SCITEGIC>MOL_PROPERTY
Valence
SciTegic.value.DoubleValue
15.230

@<SCITEGIC>MOL_PROPERTY
Coulomb
SciTegic.value.DoubleValue
-1.333

@<SCITEGIC>MOL_PROPERTY
VdW
SciTegic.value.DoubleValue
0.224

@<SCITEGIC>MOL_PROPERTY
VdW6
SciTegic.value.DoubleValue
-4.212

@<SCITEGIC>MOL_PROPERTY
VdW12
SciTegic.value.DoubleValue
4.436

@<SCITEGIC>MOL_PROPERTY
Bond
SciTegic.value.DoubleValue
0.044

@<SCITEGIC>MOL_PROPERTY
Angle
SciTegic.value.DoubleValue
2.230

@<SCITEGIC>MOL_PROPERTY
Pdih
SciTegic.value.DoubleValue
12.956

@<SCITEGIC>MOL_PROPERTY
Idih
SciTegic.value.DoubleValue
0.000

@<SCITEGIC>MOL_PROPERTY
Tether
SciTegic.value.DoubleValue
0.000

@<TRIPOS>MOLECULE
guest-s20_confgen4.mol2 : confsearch ligand conformer 970
          17          16           1
SMALL
USER_CHARGES
 
@<TRIPOS>ATOM
       1    C1      18.270887   17.242529   22.044363 C.2        1 MOL1         0.6132
       2    O1      18.408182   16.686388   23.116207 O.co2      1 MOL1        -0.6749
       3    O2      18.344519   16.668204   20.975807 O.co2      1 MOL1        -0.6749
       4    C2      17.961888   18.736545   22.040643 C.3        1 MOL1        -0.1955
       5    H1      17.375779   18.960987   22.939460 H          1 MOL1         0.0733
       6    H2      17.300251   18.940394   21.190701 H          1 MOL1         0.0733
       7    C3      19.172040   19.657653   21.977647 C.2        1 MOL1        -0.1395
       8    H3      18.929033   20.719486   21.975892 H          1 MOL1         0.0816
       9    C4      20.452586   19.271891   21.928790 C.2        1 MOL1        -0.1394
      10    H4      20.722894   18.216588   21.930268 H          1 MOL1         0.0816
      11    C5      21.621132   20.230247   21.865587 C.3        1 MOL1        -0.1826
      12    H5      22.312668   19.919285   21.070854 H          1 MOL1         0.0736
      13    H6      21.276887   21.240840   21.606066 H          1 MOL1         0.0736
      14    C6      22.372036   20.277097   23.210572 C.3        1 MOL1        -0.2882
      15    H7      23.219570   20.972826   23.158542 H          1 MOL1         0.0749
      16    H8      21.706102   20.610711   24.017311 H          1 MOL1         0.0749
      17    H9      22.760950   19.285400   23.476546 H          1 MOL1         0.0749
@<TRIPOS>BOND
    1     1     2    1
    2     1     3    2
    3     1     4    1
    4     4     5    1
    5     4     6    1
    6     4     7    1
    7     7     8    1
    8     7     9    2
    9     9    10    1
   10     9    11    1
   11    11    12    1
   12    11    13    1
   13    11    14    1
   14    14    15    1
   15    14    16    1
   16    14    17    1
@<TRIPOS>SUBSTRUCTURE
       1 MOL1            1 RESIDUE      1      MOL     
@<SCITEGIC>MOL_PROPERTY
VConf Rank
SciTegic.value.IntegerValue
970

@<SCITEGIC>MOL_PROPERTY
Conf_Id
SciTegic.value.IntegerValue
39

@<SCITEGIC>MOL_PROPERTY
Delta U+W
SciTegic.value.DoubleValue
-0.422

@<SCITEGIC>MOL_PROPERTY
U+W
SciTegic.value.DoubleValue
-49.849

@<SCITEGIC>MOL_PROPERTY
Grad RMS
SciTegic.value.DoubleValue
0.000000

@<SCITEGIC>MOL_PROPERTY
U
SciTegic.value.DoubleValue
14.465

@<SCITEGIC>MOL_PROPERTY
W
SciTegic.value.DoubleValue
-64.314

@<SCITEGIC>MOL_PROPERTY
W(PB)
SciTegic.value.DoubleValue
-66.406

@<SCITEGIC>MOL_PROPERTY
W(SA)
SciTegic.value.DoubleValue
2.093

@<SCITEGIC>MOL_PROPERTY
Valence
SciTegic.value.DoubleValue
14.072

@<SCITEGIC>MOL_PROPERTY
Coulomb
SciTegic.value.DoubleValue
-0.199

@<SCITEGIC>MOL_PROPERTY
VdW
SciTegic.value.DoubleValue
0.592

@<SCITEGIC>MOL_PROPERTY
VdW6
SciTegic.value.DoubleValue
-5.019

@<SCITEGIC>MOL_PROPERTY
VdW12
SciTegic.value.DoubleValue
5.611

@<SCITEGIC>MOL_PROPERTY
Bond
SciTegic.value.DoubleValue
0.085

@<SCITEGIC>MOL_PROPERTY
Angle
SciTegic.value.DoubleValue
2.748

@<SCITEGIC>MOL_PROPERTY
Pdih
SciTegic.value.DoubleValue
11.238

@<SCITEGIC>MOL_PROPERTY
Idih
SciTegic.value.DoubleValue
0.001

@<SCITEGIC>MOL_PROPERTY
Tether
SciTegic.value.DoubleValue
0.000

@<TRIPOS>MOLECULE
guest-s20_confgen4.mol2 : confsearch ligand conformer 971
          17          16           1
SMALL
USER_CHARGES
 
@<TRIPOS>ATOM
       1    C1      20.899216   19.766988   19.080573 C.2        1 MOL1         0.6132
       2    O1      19.983693   19.831600   18.283952 O.co2      1 MOL1        -0.6749
       3    O2      21.953343   19.208439   18.848931 O.co2      1 MOL1        -0.6749
       4    C2      20.715368   20.427293   20.440647 C.3        1 MOL1        -0.1955
       5    H1      20.206156   21.384913   20.281974 H          1 MOL1         0.0733
       6    H2      21.707581   20.655293   20.848286 H          1 MOL1         0.0733
       7    C3      19.917668   19.566180   21.401325 C.2        1 MOL1        -0.1395
       8    H3      18.868442   19.429054   21.141471 H          1 MOL1         0.0816
       9    C4      20.425985   18.995420   22.497716 C.2        1 MOL1        -0.1394
      10    H4      21.475952   19.130507   22.755361 H          1 MOL1         0.0816
      11    C5      19.629941   18.133978   23.452469 C.3        1 MOL1        -0.1826
      12    H5      18.674534   17.837983   22.997710 H          1 MOL1         0.0736
      13    H6      20.180154   17.206595   23.661663 H          1 MOL1         0.0736
      14    C6      19.356835   18.878526   24.773878 C.3        1 MOL1        -0.2882
      15    H7      18.784497   19.797800   24.592316 H          1 MOL1         0.0749
      16    H8      18.779510   18.248275   25.462764 H          1 MOL1         0.0749
      17    H9      20.296839   19.153264   25.270205 H          1 MOL1         0.0749
@<TRIPOS>BOND
    1     1     2    1
    2     1     3    2
    3     1     4    1
    4     4     5    1
    5     4     6    1
    6     4     7    1
    7     7     8    1
    8     7     9    2
    9     9    10    1
   10     9    11    1
   11    11    12    1
   12    11    13    1
   13    11    14    1
   14    14    15    1
   15    14    16    1
   16    14    17    1
@<TRIPOS>SUBSTRUCTURE
       1 MOL1            1 RESIDUE      1      MOL     
@<SCITEGIC>MOL_PROPERTY
VConf Rank
SciTegic.value.IntegerValue
971

@<SCITEGIC>MOL_PROPERTY
Conf_Id
SciTegic.value.IntegerValue
38

@<SCITEGIC>MOL_PROPERTY
Delta U+W
SciTegic.value.DoubleValue
0.000

@<SCITEGIC>MOL_PROPERTY
U+W
SciTegic.value.DoubleValue
-49.427

@<SCITEGIC>MOL_PROPERTY
Grad RMS
SciTegic.value.DoubleValue
0.000000

@<SCITEGIC>MOL_PROPERTY
U
SciTegic.value.DoubleValue
13.666

@<SCITEGIC>MOL_PROPERTY
W
SciTegic.value.DoubleValue
-63.093

@<SCITEGIC>MOL_PROPERTY
W(PB)
SciTegic.value.DoubleValue
-65.225

@<SCITEGIC>MOL_PROPERTY
W(SA)
SciTegic.value.DoubleValue
2.132

@<SCITEGIC>MOL_PROPERTY
Valence
SciTegic.value.DoubleValue
15.226

@<SCITEGIC>MOL_PROPERTY
Coulomb
SciTegic.value.DoubleValue
-1.822

@<SCITEGIC>MOL_PROPERTY
VdW
SciTegic.value.DoubleValue
0.261

@<SCITEGIC>MOL_PROPERTY
VdW6
SciTegic.value.DoubleValue
-4.165

@<SCITEGIC>MOL_PROPERTY
VdW12
SciTegic.value.DoubleValue
4.426

@<SCITEGIC>MOL_PROPERTY
Bond
SciTegic.value.DoubleValue
0.044

@<SCITEGIC>MOL_PROPERTY
Angle
SciTegic.value.DoubleValue
2.229

@<SCITEGIC>MOL_PROPERTY
Pdih
SciTegic.value.DoubleValue
12.953

@<SCITEGIC>MOL_PROPERTY
Idih
SciTegic.value.DoubleValue
0.000

@<SCITEGIC>MOL_PROPERTY
Tether
SciTegic.value.DoubleValue
0.000

@<TRIPOS>MOLECULE
guest-s20_confgen4.mol2 : confsearch ligand conformer 972
          17          16           1
SMALL
USER_CHARGES
 
@<TRIPOS>ATOM
       1    C1      19.252457   17.248154   24.394854 C.2        1 MOL1         0.6132
       2    O1      18.462690   17.795036   25.139170 O.co2      1 MOL1        -0.6749
       3    O2      20.109576   16.475066   24.775174 O.co2      1 MOL1        -0.6749
       4    C2      19.161421   17.541991   22.903218 C.3        1 MOL1        -0.1955
       5    H1      18.141430   17.878212   22.681376 H          1 MOL1         0.0733
       6    H2      19.311874   16.598362   22.366158 H          1 MOL1         0.0733
       7    C3      20.182671   18.567792   22.449869 C.2        1 MOL1        -0.1395
       8    H3      21.220880   18.239596   22.490007 H          1 MOL1         0.0816
       9    C4      19.875077   19.797711   22.026884 C.2        1 MOL1        -0.1394
      10    H4      18.836949   20.126332   21.990015 H          1 MOL1         0.0816
      11    C5      20.895049   20.820618   21.578957 C.3        1 MOL1        -0.1826
      12    H5      20.694721   21.783032   22.069019 H          1 MOL1         0.0736
      13    H6      21.905323   20.515428   21.884612 H          1 MOL1         0.0736
      14    C6      20.859020   21.005631   20.049404 C.3        1 MOL1        -0.2882
      15    H7      19.869454   21.348161   19.719466 H          1 MOL1         0.0749
      16    H8      21.600698   21.749459   19.730469 H          1 MOL1         0.0749
      17    H9      21.082235   20.060524   19.537008 H          1 MOL1         0.0749
@<TRIPOS>BOND
    1     1     2    1
    2     1     3    2
    3     1     4    1
    4     4     5    1
    5     4     6    1
    6     4     7    1
    7     7     8    1
    8     7     9    2
    9     9    10    1
   10     9    11    1
   11    11    12    1
   12    11    13    1
   13    11    14    1
   14    14    15    1
   15    14    16    1
   16    14    17    1
@<TRIPOS>SUBSTRUCTURE
       1 MOL1            1 RESIDUE      1      MOL     
@<SCITEGIC>MOL_PROPERTY
VConf Rank
SciTegic.value.IntegerValue
972

@<SCITEGIC>MOL_PROPERTY
Conf_Id
SciTegic.value.IntegerValue
35

@<SCITEGIC>MOL_PROPERTY
Delta U+W
SciTegic.value.DoubleValue
-0.102

@<SCITEGIC>MOL_PROPERTY
U+W
SciTegic.value.DoubleValue
-49.529

@<SCITEGIC>MOL_PROPERTY
Grad RMS
SciTegic.value.DoubleValue
0.000000

@<SCITEGIC>MOL_PROPERTY
U
SciTegic.value.DoubleValue
13.666

@<SCITEGIC>MOL_PROPERTY
W
SciTegic.value.DoubleValue
-63.195

@<SCITEGIC>MOL_PROPERTY
W(PB)
SciTegic.value.DoubleValue
-65.299

@<SCITEGIC>MOL_PROPERTY
W(SA)
SciTegic.value.DoubleValue
2.103

@<SCITEGIC>MOL_PROPERTY
Valence
SciTegic.value.DoubleValue
15.226

@<SCITEGIC>MOL_PROPERTY
Coulomb
SciTegic.value.DoubleValue
-1.822

@<SCITEGIC>MOL_PROPERTY
VdW
SciTegic.value.DoubleValue
0.261

@<SCITEGIC>MOL_PROPERTY
VdW6
SciTegic.value.DoubleValue
-4.165

@<SCITEGIC>MOL_PROPERTY
VdW12
SciTegic.value.DoubleValue
4.426

@<SCITEGIC>MOL_PROPERTY
Bond
SciTegic.value.DoubleValue
0.044

@<SCITEGIC>MOL_PROPERTY
Angle
SciTegic.value.DoubleValue
2.229

@<SCITEGIC>MOL_PROPERTY
Pdih
SciTegic.value.DoubleValue
12.953

@<SCITEGIC>MOL_PROPERTY
Idih
SciTegic.value.DoubleValue
0.000

@<SCITEGIC>MOL_PROPERTY
Tether
SciTegic.value.DoubleValue
0.000

@<TRIPOS>MOLECULE
guest-s20_confgen4.mol2 : confsearch ligand conformer 973
          17          16           1
SMALL
USER_CHARGES
 
@<TRIPOS>ATOM
       1    C1      17.692096   20.476287   21.567106 C.2        1 MOL1         0.6132
       2    O1      16.872401   20.256990   22.437152 O.co2      1 MOL1        -0.6749
       3    O2      17.893419   21.578222   21.095875 O.co2      1 MOL1        -0.6749
       4    C2      18.503487   19.303231   21.032992 C.3        1 MOL1        -0.1955
       5    H1      18.847090   19.555689   20.022652 H          1 MOL1         0.0733
       6    H2      17.828053   18.445318   20.936632 H          1 MOL1         0.0733
       7    C3      19.671525   18.947548   21.933315 C.2        1 MOL1        -0.1395
       8    H3      19.390243   18.536912   22.901483 H          1 MOL1         0.0816
       9    C4      20.955403   19.118916   21.594198 C.2        1 MOL1        -0.1394
      10    H4      21.198390   19.536974   20.617843 H          1 MOL1         0.0816
      11    C5      22.170525   18.789349   22.444759 C.3        1 MOL1        -0.1826
      12    H5      22.809502   18.084317   21.895992 H          1 MOL1         0.0736
      13    H6      22.774366   19.698206   22.570757 H          1 MOL1         0.0736
      14    C6      21.851811   18.200716   23.836865 C.3        1 MOL1        -0.2882
      15    H7      21.293687   17.259413   23.748276 H          1 MOL1         0.0749
      16    H8      22.778120   17.991558   24.387532 H          1 MOL1         0.0749
      17    H9      21.256746   18.903474   24.434792 H          1 MOL1         0.0749
@<TRIPOS>BOND
    1     1     2    1
    2     1     3    2
    3     1     4    1
    4     4     5    1
    5     4     6    1
    6     4     7    1
    7     7     8    1
    8     7     9    2
    9     9    10    1
   10     9    11    1
   11    11    12    1
   12    11    13    1
   13    11    14    1
   14    14    15    1
   15    14    16    1
   16    14    17    1
@<TRIPOS>SUBSTRUCTURE
       1 MOL1            1 RESIDUE      1      MOL     
@<SCITEGIC>MOL_PROPERTY
VConf Rank
SciTegic.value.IntegerValue
973

@<SCITEGIC>MOL_PROPERTY
Conf_Id
SciTegic.value.IntegerValue
19

@<SCITEGIC>MOL_PROPERTY
Delta U+W
SciTegic.value.DoubleValue
-0.496

@<SCITEGIC>MOL_PROPERTY
U+W
SciTegic.value.DoubleValue
-49.923

@<SCITEGIC>MOL_PROPERTY
Grad RMS
SciTegic.value.DoubleValue
0.000000

@<SCITEGIC>MOL_PROPERTY
U
SciTegic.value.DoubleValue
13.863

@<SCITEGIC>MOL_PROPERTY
W
SciTegic.value.DoubleValue
-63.786

@<SCITEGIC>MOL_PROPERTY
W(PB)
SciTegic.value.DoubleValue
-65.856

@<SCITEGIC>MOL_PROPERTY
W(SA)
SciTegic.value.DoubleValue
2.070

@<SCITEGIC>MOL_PROPERTY
Valence
SciTegic.value.DoubleValue
14.117

@<SCITEGIC>MOL_PROPERTY
Coulomb
SciTegic.value.DoubleValue
-1.228

@<SCITEGIC>MOL_PROPERTY
VdW
SciTegic.value.DoubleValue
0.974

@<SCITEGIC>MOL_PROPERTY
VdW6
SciTegic.value.DoubleValue
-4.885

@<SCITEGIC>MOL_PROPERTY
VdW12
SciTegic.value.DoubleValue
5.859

@<SCITEGIC>MOL_PROPERTY
Bond
SciTegic.value.DoubleValue
0.094

@<SCITEGIC>MOL_PROPERTY
Angle
SciTegic.value.DoubleValue
2.818

@<SCITEGIC>MOL_PROPERTY
Pdih
SciTegic.value.DoubleValue
11.205

@<SCITEGIC>MOL_PROPERTY
Idih
SciTegic.value.DoubleValue
0.000

@<SCITEGIC>MOL_PROPERTY
Tether
SciTegic.value.DoubleValue
0.000

@<TRIPOS>MOLECULE
guest-s20_confgen4.mol2 : confsearch ligand conformer 974
          17          16           1
SMALL
USER_CHARGES
 
@<TRIPOS>ATOM
       1    C1      17.517060   19.053452   23.494928 C.2        1 MOL1         0.6132
       2    O1      17.783495   19.372283   24.636932 O.co2      1 MOL1        -0.6749
       3    O2      16.603053   19.538662   22.857617 O.co2      1 MOL1        -0.6749
       4    C2      18.366776   17.979868   22.827674 C.3        1 MOL1        -0.1955
       5    H1      17.692814   17.315441   22.274684 H          1 MOL1         0.0733
       6    H2      18.837868   17.377355   23.613616 H          1 MOL1         0.0733
       7    C3      19.408275   18.562183   21.891216 C.2        1 MOL1        -0.1395
       8    H3      19.012593   19.044998   20.998164 H          1 MOL1         0.0816
       9    C4      20.725772   18.515824   22.110913 C.2        1 MOL1        -0.1394
      10    H4      21.120607   18.037443   23.006635 H          1 MOL1         0.0816
      11    C5      21.762476   19.099687   21.177272 C.3        1 MOL1        -0.1826
      12    H5      22.556339   18.362334   20.996680 H          1 MOL1         0.0736
      13    H6      21.314964   19.327137   20.199925 H          1 MOL1         0.0736
      14    C6      22.378015   20.383449   21.767235 C.3        1 MOL1        -0.2882
      15    H7      22.867223   20.177391   22.728298 H          1 MOL1         0.0749
      16    H8      23.129203   20.803125   21.085578 H          1 MOL1         0.0749
      17    H9      21.605044   21.145378   21.933554 H          1 MOL1         0.0749
@<TRIPOS>BOND
    1     1     2    1
    2     1     3    2
    3     1     4    1
    4     4     5    1
    5     4     6    1
    6     4     7    1
    7     7     8    1
    8     7     9    2
    9     9    10    1
   10     9    11    1
   11    11    12    1
   12    11    13    1
   13    11    14    1
   14    14    15    1
   15    14    16    1
   16    14    17    1
@<TRIPOS>SUBSTRUCTURE
       1 MOL1            1 RESIDUE      1      MOL     
@<SCITEGIC>MOL_PROPERTY
VConf Rank
SciTegic.value.IntegerValue
974

@<SCITEGIC>MOL_PROPERTY
Conf_Id
SciTegic.value.IntegerValue
7

@<SCITEGIC>MOL_PROPERTY
Delta U+W
SciTegic.value.DoubleValue
-0.041

@<SCITEGIC>MOL_PROPERTY
U+W
SciTegic.value.DoubleValue
-49.468

@<SCITEGIC>MOL_PROPERTY
Grad RMS
SciTegic.value.DoubleValue
0.000000

@<SCITEGIC>MOL_PROPERTY
U
SciTegic.value.DoubleValue
14.121

@<SCITEGIC>MOL_PROPERTY
W
SciTegic.value.DoubleValue
-63.589

@<SCITEGIC>MOL_PROPERTY
W(PB)
SciTegic.value.DoubleValue
-65.660

@<SCITEGIC>MOL_PROPERTY
W(SA)
SciTegic.value.DoubleValue
2.071

@<SCITEGIC>MOL_PROPERTY
Valence
SciTegic.value.DoubleValue
15.230

@<SCITEGIC>MOL_PROPERTY
Coulomb
SciTegic.value.DoubleValue
-1.333

@<SCITEGIC>MOL_PROPERTY
VdW
SciTegic.value.DoubleValue
0.224

@<SCITEGIC>MOL_PROPERTY
VdW6
SciTegic.value.DoubleValue
-4.212

@<SCITEGIC>MOL_PROPERTY
VdW12
SciTegic.value.DoubleValue
4.436

@<SCITEGIC>MOL_PROPERTY
Bond
SciTegic.value.DoubleValue
0.044

@<SCITEGIC>MOL_PROPERTY
Angle
SciTegic.value.DoubleValue
2.230

@<SCITEGIC>MOL_PROPERTY
Pdih
SciTegic.value.DoubleValue
12.956

@<SCITEGIC>MOL_PROPERTY
Idih
SciTegic.value.DoubleValue
0.000

@<SCITEGIC>MOL_PROPERTY
Tether
SciTegic.value.DoubleValue
0.000

@<TRIPOS>MOLECULE
guest-s20_confgen4.mol2 : confsearch ligand conformer 975
          17          16           1
SMALL
USER_CHARGES
 
@<TRIPOS>ATOM
       1    C1      19.373995   17.316905   24.063438 C.2        1 MOL1         0.6132
       2    O1      19.062406   17.994097   25.023290 O.co2      1 MOL1        -0.6749
       3    O2      20.178310   16.407310   24.116339 O.co2      1 MOL1        -0.6749
       4    C2      18.698632   17.605923   22.726303 C.3        1 MOL1        -0.1955
       5    H1      17.683919   17.965725   22.932868 H          1 MOL1         0.0733
       6    H2      18.578766   16.652989   22.197843 H          1 MOL1         0.0733
       7    C3      19.419454   18.600671   21.827543 C.2        1 MOL1        -0.1395
       8    H3      18.920531   18.792354   20.878397 H          1 MOL1         0.0816
       9    C4      20.567535   19.227667   22.109999 C.2        1 MOL1        -0.1394
      10    H4      21.086236   19.054657   23.052203 H          1 MOL1         0.0816
      11    C5      21.244852   20.208715   21.179017 C.3        1 MOL1        -0.1826
      12    H5      22.311356   19.960760   21.091792 H          1 MOL1         0.0736
      13    H6      20.820786   20.136025   20.168059 H          1 MOL1         0.0736
      14    C6      21.093830   21.653872   21.692584 C.3        1 MOL1        -0.2882
      15    H7      21.588250   22.361165   21.014097 H          1 MOL1         0.0749
      16    H8      20.034423   21.933501   21.763710 H          1 MOL1         0.0749
      17    H9      21.544127   21.764736   22.687772 H          1 MOL1         0.0749
@<TRIPOS>BOND
    1     1     2    1
    2     1     3    2
    3     1     4    1
    4     4     5    1
    5     4     6    1
    6     4     7    1
    7     7     8    1
    8     7     9    2
    9     9    10    1
   10     9    11    1
   11    11    12    1
   12    11    13    1
   13    11    14    1
   14    14    15    1
   15    14    16    1
   16    14    17    1
@<TRIPOS>SUBSTRUCTURE
       1 MOL1            1 RESIDUE      1      MOL     
@<SCITEGIC>MOL_PROPERTY
VConf Rank
SciTegic.value.IntegerValue
975

@<SCITEGIC>MOL_PROPERTY
Conf_Id
SciTegic.value.IntegerValue
39

@<SCITEGIC>MOL_PROPERTY
Delta U+W
SciTegic.value.DoubleValue
-0.422

@<SCITEGIC>MOL_PROPERTY
U+W
SciTegic.value.DoubleValue
-49.849

@<SCITEGIC>MOL_PROPERTY
Grad RMS
SciTegic.value.DoubleValue
0.000000

@<SCITEGIC>MOL_PROPERTY
U
SciTegic.value.DoubleValue
14.465

@<SCITEGIC>MOL_PROPERTY
W
SciTegic.value.DoubleValue
-64.314

@<SCITEGIC>MOL_PROPERTY
W(PB)
SciTegic.value.DoubleValue
-66.406

@<SCITEGIC>MOL_PROPERTY
W(SA)
SciTegic.value.DoubleValue
2.093

@<SCITEGIC>MOL_PROPERTY
Valence
SciTegic.value.DoubleValue
14.072

@<SCITEGIC>MOL_PROPERTY
Coulomb
SciTegic.value.DoubleValue
-0.199

@<SCITEGIC>MOL_PROPERTY
VdW
SciTegic.value.DoubleValue
0.592

@<SCITEGIC>MOL_PROPERTY
VdW6
SciTegic.value.DoubleValue
-5.019

@<SCITEGIC>MOL_PROPERTY
VdW12
SciTegic.value.DoubleValue
5.611

@<SCITEGIC>MOL_PROPERTY
Bond
SciTegic.value.DoubleValue
0.085

@<SCITEGIC>MOL_PROPERTY
Angle
SciTegic.value.DoubleValue
2.748

@<SCITEGIC>MOL_PROPERTY
Pdih
SciTegic.value.DoubleValue
11.238

@<SCITEGIC>MOL_PROPERTY
Idih
SciTegic.value.DoubleValue
0.001

@<SCITEGIC>MOL_PROPERTY
Tether
SciTegic.value.DoubleValue
0.000

@<TRIPOS>MOLECULE
guest-s20_confgen4.mol2 : confsearch ligand conformer 976
          17          16           1
SMALL
USER_CHARGES
 
@<TRIPOS>ATOM
       1    C1      18.344715   18.378018   24.575492 C.2        1 MOL1         0.6132
       2    O1      17.381722   17.678629   24.329606 O.co2      1 MOL1        -0.6749
       3    O2      18.334153   19.270094   25.400664 O.co2      1 MOL1        -0.6749
       4    C2      19.635586   18.117036   23.810545 C.3        1 MOL1        -0.1955
       5    H1      19.764568   17.031375   23.731723 H          1 MOL1         0.0733
       6    H2      20.472080   18.496782   24.409470 H          1 MOL1         0.0733
       7    C3      19.628416   18.742328   22.428625 C.2        1 MOL1        -0.1395
       8    H3      18.926046   18.301029   21.722132 H          1 MOL1         0.0816
       9    C4      20.408668   19.763726   22.062319 C.2        1 MOL1        -0.1394
      10    H4      21.108659   20.206468   22.770171 H          1 MOL1         0.0816
      11    C5      20.397462   20.388405   20.685013 C.3        1 MOL1        -0.1826
      12    H5      19.507085   20.069738   20.125637 H          1 MOL1         0.0736
      13    H6      20.339057   21.481636   20.774283 H          1 MOL1         0.0736
      14    C6      21.662170   20.004498   19.892429 C.3        1 MOL1        -0.2882
      15    H7      21.728759   18.915601   19.768046 H          1 MOL1         0.0749
      16    H8      21.648657   20.461180   18.894259 H          1 MOL1         0.0749
      17    H9      22.567910   20.345565   20.410827 H          1 MOL1         0.0749
@<TRIPOS>BOND
    1     1     2    1
    2     1     3    2
    3     1     4    1
    4     4     5    1
    5     4     6    1
    6     4     7    1
    7     7     8    1
    8     7     9    2
    9     9    10    1
   10     9    11    1
   11    11    12    1
   12    11    13    1
   13    11    14    1
   14    14    15    1
   15    14    16    1
   16    14    17    1
@<TRIPOS>SUBSTRUCTURE
       1 MOL1            1 RESIDUE      1      MOL     
@<SCITEGIC>MOL_PROPERTY
VConf Rank
SciTegic.value.IntegerValue
976

@<SCITEGIC>MOL_PROPERTY
Conf_Id
SciTegic.value.IntegerValue
38

@<SCITEGIC>MOL_PROPERTY
Delta U+W
SciTegic.value.DoubleValue
0.000

@<SCITEGIC>MOL_PROPERTY
U+W
SciTegic.value.DoubleValue
-49.427

@<SCITEGIC>MOL_PROPERTY
Grad RMS
SciTegic.value.DoubleValue
0.000000

@<SCITEGIC>MOL_PROPERTY
U
SciTegic.value.DoubleValue
13.666

@<SCITEGIC>MOL_PROPERTY
W
SciTegic.value.DoubleValue
-63.093

@<SCITEGIC>MOL_PROPERTY
W(PB)
SciTegic.value.DoubleValue
-65.225

@<SCITEGIC>MOL_PROPERTY
W(SA)
SciTegic.value.DoubleValue
2.132

@<SCITEGIC>MOL_PROPERTY
Valence
SciTegic.value.DoubleValue
15.226

@<SCITEGIC>MOL_PROPERTY
Coulomb
SciTegic.value.DoubleValue
-1.822

@<SCITEGIC>MOL_PROPERTY
VdW
SciTegic.value.DoubleValue
0.261

@<SCITEGIC>MOL_PROPERTY
VdW6
SciTegic.value.DoubleValue
-4.165

@<SCITEGIC>MOL_PROPERTY
VdW12
SciTegic.value.DoubleValue
4.426

@<SCITEGIC>MOL_PROPERTY
Bond
SciTegic.value.DoubleValue
0.044

@<SCITEGIC>MOL_PROPERTY
Angle
SciTegic.value.DoubleValue
2.229

@<SCITEGIC>MOL_PROPERTY
Pdih
SciTegic.value.DoubleValue
12.953

@<SCITEGIC>MOL_PROPERTY
Idih
SciTegic.value.DoubleValue
0.000

@<SCITEGIC>MOL_PROPERTY
Tether
SciTegic.value.DoubleValue
0.000

@<TRIPOS>MOLECULE
guest-s20_confgen4.mol2 : confsearch ligand conformer 977
          17          16           1
SMALL
USER_CHARGES
 
@<TRIPOS>ATOM
       1    C1      18.222160   19.633658   24.636620 C.2        1 MOL1         0.6132
       2    O1      17.973059   20.814482   24.779524 O.co2      1 MOL1        -0.6749
       3    O2      18.408596   18.869310   25.562890 O.co2      1 MOL1        -0.6749
       4    C2      18.300052   19.078194   23.220641 C.3        1 MOL1        -0.1955
       5    H1      17.715633   19.732606   22.562735 H          1 MOL1         0.0733
       6    H2      17.808190   18.098618   23.217589 H          1 MOL1         0.0733
       7    C3      19.727959   18.945509   22.726455 C.2        1 MOL1        -0.1395
       8    H3      20.327076   18.189499   23.233118 H          1 MOL1         0.0816
       9    C4      20.254823   19.684142   21.745096 C.2        1 MOL1        -0.1394
      10    H4      19.656117   20.442127   21.241042 H          1 MOL1         0.0816
      11    C5      21.680048   19.553169   21.256322 C.3        1 MOL1        -0.1826
      12    H5      22.143918   20.546987   21.195632 H          1 MOL1         0.0736
      13    H6      22.278577   18.968838   21.968739 H          1 MOL1         0.0736
      14    C6      21.731012   18.877058   19.872365 C.3        1 MOL1        -0.2882
      15    H7      21.171497   19.461369   19.130104 H          1 MOL1         0.0749
      16    H8      22.767549   18.785444   19.522674 H          1 MOL1         0.0749
      17    H9      21.295257   17.870094   19.914110 H          1 MOL1         0.0749
@<TRIPOS>BOND
    1     1     2    1
    2     1     3    2
    3     1     4    1
    4     4     5    1
    5     4     6    1
    6     4     7    1
    7     7     8    1
    8     7     9    2
    9     9    10    1
   10     9    11    1
   11    11    12    1
   12    11    13    1
   13    11    14    1
   14    14    15    1
   15    14    16    1
   16    14    17    1
@<TRIPOS>SUBSTRUCTURE
       1 MOL1            1 RESIDUE      1      MOL     
@<SCITEGIC>MOL_PROPERTY
VConf Rank
SciTegic.value.IntegerValue
977

@<SCITEGIC>MOL_PROPERTY
Conf_Id
SciTegic.value.IntegerValue
35

@<SCITEGIC>MOL_PROPERTY
Delta U+W
SciTegic.value.DoubleValue
-0.102

@<SCITEGIC>MOL_PROPERTY
U+W
SciTegic.value.DoubleValue
-49.529

@<SCITEGIC>MOL_PROPERTY
Grad RMS
SciTegic.value.DoubleValue
0.000000

@<SCITEGIC>MOL_PROPERTY
U
SciTegic.value.DoubleValue
13.666

@<SCITEGIC>MOL_PROPERTY
W
SciTegic.value.DoubleValue
-63.195

@<SCITEGIC>MOL_PROPERTY
W(PB)
SciTegic.value.DoubleValue
-65.299

@<SCITEGIC>MOL_PROPERTY
W(SA)
SciTegic.value.DoubleValue
2.103

@<SCITEGIC>MOL_PROPERTY
Valence
SciTegic.value.DoubleValue
15.226

@<SCITEGIC>MOL_PROPERTY
Coulomb
SciTegic.value.DoubleValue
-1.822

@<SCITEGIC>MOL_PROPERTY
VdW
SciTegic.value.DoubleValue
0.261

@<SCITEGIC>MOL_PROPERTY
VdW6
SciTegic.value.DoubleValue
-4.165

@<SCITEGIC>MOL_PROPERTY
VdW12
SciTegic.value.DoubleValue
4.426

@<SCITEGIC>MOL_PROPERTY
Bond
SciTegic.value.DoubleValue
0.044

@<SCITEGIC>MOL_PROPERTY
Angle
SciTegic.value.DoubleValue
2.229

@<SCITEGIC>MOL_PROPERTY
Pdih
SciTegic.value.DoubleValue
12.953

@<SCITEGIC>MOL_PROPERTY
Idih
SciTegic.value.DoubleValue
0.000

@<SCITEGIC>MOL_PROPERTY
Tether
SciTegic.value.DoubleValue
0.000

@<TRIPOS>MOLECULE
guest-s20_confgen4.mol2 : confsearch ligand conformer 978
          17          16           1
SMALL
USER_CHARGES
 
@<TRIPOS>ATOM
       1    C1      20.203245   16.164398   22.509588 C.2        1 MOL1         0.6132
       2    O1      19.638731   15.860579   23.542055 O.co2      1 MOL1        -0.6749
       3    O2      20.005186   15.609117   21.446910 O.co2      1 MOL1        -0.6749
       4    C2      21.220885   17.296707   22.554084 C.3        1 MOL1        -0.1955
       5    H1      21.918691   17.163655   21.718650 H          1 MOL1         0.0733
       6    H2      21.801964   17.188434   23.477195 H          1 MOL1         0.0733
       7    C3      20.568616   18.665556   22.507163 C.2        1 MOL1        -0.1395
       8    H3      19.985965   18.921659   23.390350 H          1 MOL1         0.0816
       9    C4      20.678037   19.510244   21.474090 C.2        1 MOL1        -0.1394
      10    H4      21.266273   19.217296   20.605042 H          1 MOL1         0.0816
      11    C5      20.050859   20.889376   21.359052 C.3        1 MOL1        -0.1826
      12    H5      20.844905   21.629484   21.191010 H          1 MOL1         0.0736
      13    H6      19.422593   20.921106   20.458611 H          1 MOL1         0.0736
      14    C6      19.206328   21.325300   22.576740 C.3        1 MOL1        -0.2882
      15    H7      19.817030   21.357635   23.488551 H          1 MOL1         0.0749
      16    H8      18.788622   22.327715   22.416381 H          1 MOL1         0.0749
      17    H9      18.368936   20.634861   22.742745 H          1 MOL1         0.0749
@<TRIPOS>BOND
    1     1     2    1
    2     1     3    2
    3     1     4    1
    4     4     5    1
    5     4     6    1
    6     4     7    1
    7     7     8    1
    8     7     9    2
    9     9    10    1
   10     9    11    1
   11    11    12    1
   12    11    13    1
   13    11    14    1
   14    14    15    1
   15    14    16    1
   16    14    17    1
@<TRIPOS>SUBSTRUCTURE
       1 MOL1            1 RESIDUE      1      MOL     
@<SCITEGIC>MOL_PROPERTY
VConf Rank
SciTegic.value.IntegerValue
978

@<SCITEGIC>MOL_PROPERTY
Conf_Id
SciTegic.value.IntegerValue
19

@<SCITEGIC>MOL_PROPERTY
Delta U+W
SciTegic.value.DoubleValue
-0.496

@<SCITEGIC>MOL_PROPERTY
U+W
SciTegic.value.DoubleValue
-49.923

@<SCITEGIC>MOL_PROPERTY
Grad RMS
SciTegic.value.DoubleValue
0.000000

@<SCITEGIC>MOL_PROPERTY
U
SciTegic.value.DoubleValue
13.863

@<SCITEGIC>MOL_PROPERTY
W
SciTegic.value.DoubleValue
-63.786

@<SCITEGIC>MOL_PROPERTY
W(PB)
SciTegic.value.DoubleValue
-65.856

@<SCITEGIC>MOL_PROPERTY
W(SA)
SciTegic.value.DoubleValue
2.070

@<SCITEGIC>MOL_PROPERTY
Valence
SciTegic.value.DoubleValue
14.117

@<SCITEGIC>MOL_PROPERTY
Coulomb
SciTegic.value.DoubleValue
-1.228

@<SCITEGIC>MOL_PROPERTY
VdW
SciTegic.value.DoubleValue
0.974

@<SCITEGIC>MOL_PROPERTY
VdW6
SciTegic.value.DoubleValue
-4.885

@<SCITEGIC>MOL_PROPERTY
VdW12
SciTegic.value.DoubleValue
5.859

@<SCITEGIC>MOL_PROPERTY
Bond
SciTegic.value.DoubleValue
0.094

@<SCITEGIC>MOL_PROPERTY
Angle
SciTegic.value.DoubleValue
2.818

@<SCITEGIC>MOL_PROPERTY
Pdih
SciTegic.value.DoubleValue
11.205

@<SCITEGIC>MOL_PROPERTY
Idih
SciTegic.value.DoubleValue
0.000

@<SCITEGIC>MOL_PROPERTY
Tether
SciTegic.value.DoubleValue
0.000

@<TRIPOS>MOLECULE
guest-s20_confgen4.mol2 : confsearch ligand conformer 979
          17          16           1
SMALL
USER_CHARGES
 
@<TRIPOS>ATOM
       1    C1      17.652262   17.564398   22.515211 C.2        1 MOL1         0.6132
       2    O1      17.883611   16.546635   21.892759 O.co2      1 MOL1        -0.6749
       3    O2      17.144103   17.576125   23.619131 O.co2      1 MOL1        -0.6749
       4    C2      18.007800   18.899653   21.874495 C.3        1 MOL1        -0.1955
       5    H1      17.184972   19.595937   22.073561 H          1 MOL1         0.0733
       6    H2      18.052489   18.757860   20.787963 H          1 MOL1         0.0733
       7    C3      19.310944   19.468609   22.402574 C.2        1 MOL1        -0.1395
       8    H3      19.293027   19.780540   23.446410 H          1 MOL1         0.0816
       9    C4      20.426757   19.589181   21.676875 C.2        1 MOL1        -0.1394
      10    H4      20.445572   19.272329   20.634613 H          1 MOL1         0.0816
      11    C5      21.725993   20.154084   22.206221 C.3        1 MOL1        -0.1826
      12    H5      22.120274   20.899794   21.502673 H          1 MOL1         0.0736
      13    H6      21.558496   20.676278   23.158307 H          1 MOL1         0.0736
      14    C6      22.770395   19.039846   22.412837 C.3        1 MOL1        -0.2882
      15    H7      22.986464   18.525336   21.467310 H          1 MOL1         0.0749
      16    H8      23.710955   19.455185   22.797423 H          1 MOL1         0.0749
      17    H9      22.407460   18.294217   23.132557 H          1 MOL1         0.0749
@<TRIPOS>BOND
    1     1     2    1
    2     1     3    2
    3     1     4    1
    4     4     5    1
    5     4     6    1
    6     4     7    1
    7     7     8    1
    8     7     9    2
    9     9    10    1
   10     9    11    1
   11    11    12    1
   12    11    13    1
   13    11    14    1
   14    14    15    1
   15    14    16    1
   16    14    17    1
@<TRIPOS>SUBSTRUCTURE
       1 MOL1            1 RESIDUE      1      MOL     
@<SCITEGIC>MOL_PROPERTY
VConf Rank
SciTegic.value.IntegerValue
979

@<SCITEGIC>MOL_PROPERTY
Conf_Id
SciTegic.value.IntegerValue
7

@<SCITEGIC>MOL_PROPERTY
Delta U+W
SciTegic.value.DoubleValue
-0.041

@<SCITEGIC>MOL_PROPERTY
U+W
SciTegic.value.DoubleValue
-49.468

@<SCITEGIC>MOL_PROPERTY
Grad RMS
SciTegic.value.DoubleValue
0.000000

@<SCITEGIC>MOL_PROPERTY
U
SciTegic.value.DoubleValue
14.121

@<SCITEGIC>MOL_PROPERTY
W
SciTegic.value.DoubleValue
-63.589

@<SCITEGIC>MOL_PROPERTY
W(PB)
SciTegic.value.DoubleValue
-65.660

@<SCITEGIC>MOL_PROPERTY
W(SA)
SciTegic.value.DoubleValue
2.071

@<SCITEGIC>MOL_PROPERTY
Valence
SciTegic.value.DoubleValue
15.230

@<SCITEGIC>MOL_PROPERTY
Coulomb
SciTegic.value.DoubleValue
-1.333

@<SCITEGIC>MOL_PROPERTY
VdW
SciTegic.value.DoubleValue
0.224

@<SCITEGIC>MOL_PROPERTY
VdW6
SciTegic.value.DoubleValue
-4.212

@<SCITEGIC>MOL_PROPERTY
VdW12
SciTegic.value.DoubleValue
4.436

@<SCITEGIC>MOL_PROPERTY
Bond
SciTegic.value.DoubleValue
0.044

@<SCITEGIC>MOL_PROPERTY
Angle
SciTegic.value.DoubleValue
2.230

@<SCITEGIC>MOL_PROPERTY
Pdih
SciTegic.value.DoubleValue
12.956

@<SCITEGIC>MOL_PROPERTY
Idih
SciTegic.value.DoubleValue
0.000

@<SCITEGIC>MOL_PROPERTY
Tether
SciTegic.value.DoubleValue
0.000

@<TRIPOS>MOLECULE
guest-s20_confgen4.mol2 : confsearch ligand conformer 980
          17          16           1
SMALL
USER_CHARGES
 
@<TRIPOS>ATOM
       1    C1      18.786540   21.060597   23.886689 C.2        1 MOL1         0.6132
       2    O1      18.453414   20.335347   24.803222 O.co2      1 MOL1        -0.6749
       3    O2      18.007345   21.751392   23.260001 O.co2      1 MOL1        -0.6749
       4    C2      20.266195   21.128763   23.521242 C.3        1 MOL1        -0.1955
       5    H1      20.846568   20.976296   24.438678 H          1 MOL1         0.0733
       6    H2      20.484185   22.151801   23.193225 H          1 MOL1         0.0733
       7    C3      20.726227   20.142691   22.456860 C.2        1 MOL1        -0.1395
       8    H3      21.785381   20.208391   22.211049 H          1 MOL1         0.0816
       9    C4      19.956959   19.242301   21.833546 C.2        1 MOL1        -0.1394
      10    H4      18.895229   19.155243   22.061323 H          1 MOL1         0.0816
      11    C5      20.464495   18.283823   20.779189 C.3        1 MOL1        -0.1826
      12    H5      19.792768   18.299408   19.910248 H          1 MOL1         0.0736
      13    H6      21.453867   18.596891   20.418239 H          1 MOL1         0.0736
      14    C6      20.554542   16.848524   21.333126 C.3        1 MOL1        -0.2882
      15    H7      20.921950   16.157226   20.563596 H          1 MOL1         0.0749
      16    H8      21.241733   16.803208   22.188293 H          1 MOL1         0.0749
      17    H9      19.570007   16.495172   21.666731 H          1 MOL1         0.0749
@<TRIPOS>BOND
    1     1     2    1
    2     1     3    2
    3     1     4    1
    4     4     5    1
    5     4     6    1
    6     4     7    1
    7     7     8    1
    8     7     9    2
    9     9    10    1
   10     9    11    1
   11    11    12    1
   12    11    13    1
   13    11    14    1
   14    14    15    1
   15    14    16    1
   16    14    17    1
@<TRIPOS>SUBSTRUCTURE
       1 MOL1            1 RESIDUE      1      MOL     
@<SCITEGIC>MOL_PROPERTY
VConf Rank
SciTegic.value.IntegerValue
980

@<SCITEGIC>MOL_PROPERTY
Conf_Id
SciTegic.value.IntegerValue
39

@<SCITEGIC>MOL_PROPERTY
Delta U+W
SciTegic.value.DoubleValue
-0.422

@<SCITEGIC>MOL_PROPERTY
U+W
SciTegic.value.DoubleValue
-49.849

@<SCITEGIC>MOL_PROPERTY
Grad RMS
SciTegic.value.DoubleValue
0.000000

@<SCITEGIC>MOL_PROPERTY
U
SciTegic.value.DoubleValue
14.465

@<SCITEGIC>MOL_PROPERTY
W
SciTegic.value.DoubleValue
-64.314

@<SCITEGIC>MOL_PROPERTY
W(PB)
SciTegic.value.DoubleValue
-66.406

@<SCITEGIC>MOL_PROPERTY
W(SA)
SciTegic.value.DoubleValue
2.093

@<SCITEGIC>MOL_PROPERTY
Valence
SciTegic.value.DoubleValue
14.072

@<SCITEGIC>MOL_PROPERTY
Coulomb
SciTegic.value.DoubleValue
-0.199

@<SCITEGIC>MOL_PROPERTY
VdW
SciTegic.value.DoubleValue
0.592

@<SCITEGIC>MOL_PROPERTY
VdW6
SciTegic.value.DoubleValue
-5.019

@<SCITEGIC>MOL_PROPERTY
VdW12
SciTegic.value.DoubleValue
5.611

@<SCITEGIC>MOL_PROPERTY
Bond
SciTegic.value.DoubleValue
0.085

@<SCITEGIC>MOL_PROPERTY
Angle
SciTegic.value.DoubleValue
2.748

@<SCITEGIC>MOL_PROPERTY
Pdih
SciTegic.value.DoubleValue
11.238

@<SCITEGIC>MOL_PROPERTY
Idih
SciTegic.value.DoubleValue
0.001

@<SCITEGIC>MOL_PROPERTY
Tether
SciTegic.value.DoubleValue
0.000

@<TRIPOS>MOLECULE
guest-s20_confgen4.mol2 : confsearch ligand conformer 981
          17          16           1
SMALL
USER_CHARGES
 
@<TRIPOS>ATOM
       1    C1      18.552717   17.854660   19.742976 C.2        1 MOL1         0.6132
       2    O1      19.119064   17.811313   18.668577 O.co2      1 MOL1        -0.6749
       3    O2      17.362597   18.066821   19.867155 O.co2      1 MOL1        -0.6749
       4    C2      19.380451   17.624954   21.000631 C.3        1 MOL1        -0.1955
       5    H1      20.083131   16.809246   20.794793 H          1 MOL1         0.0733
       6    H2      18.708787   17.277022   21.794640 H          1 MOL1         0.0733
       7    C3      20.136370   18.866764   21.433343 C.2        1 MOL1        -0.1395
       8    H3      20.936908   19.180685   20.764169 H          1 MOL1         0.0816
       9    C4      19.870993   19.558047   22.545966 C.2        1 MOL1        -0.1394
      10    H4      19.068411   19.245298   23.213132 H          1 MOL1         0.0816
      11    C5      20.623356   20.798264   22.973906 C.3        1 MOL1        -0.1826
      12    H5      21.225017   21.189146   22.141778 H          1 MOL1         0.0736
      13    H6      19.910794   21.588632   23.246135 H          1 MOL1         0.0736
      14    C6      21.544092   20.501182   24.173509 C.3        1 MOL1        -0.2882
      15    H7      22.282957   19.730723   23.916463 H          1 MOL1         0.0749
      16    H8      22.086808   21.404894   24.479858 H          1 MOL1         0.0749
      17    H9      20.963259   20.144456   25.034212 H          1 MOL1         0.0749
@<TRIPOS>BOND
    1     1     2    1
    2     1     3    2
    3     1     4    1
    4     4     5    1
    5     4     6    1
    6     4     7    1
    7     7     8    1
    8     7     9    2
    9     9    10    1
   10     9    11    1
   11    11    12    1
   12    11    13    1
   13    11    14    1
   14    14    15    1
   15    14    16    1
   16    14    17    1
@<TRIPOS>SUBSTRUCTURE
       1 MOL1            1 RESIDUE      1      MOL     
@<SCITEGIC>MOL_PROPERTY
VConf Rank
SciTegic.value.IntegerValue
981

@<SCITEGIC>MOL_PROPERTY
Conf_Id
SciTegic.value.IntegerValue
38

@<SCITEGIC>MOL_PROPERTY
Delta U+W
SciTegic.value.DoubleValue
0.000

@<SCITEGIC>MOL_PROPERTY
U+W
SciTegic.value.DoubleValue
-49.427

@<SCITEGIC>MOL_PROPERTY
Grad RMS
SciTegic.value.DoubleValue
0.000000

@<SCITEGIC>MOL_PROPERTY
U
SciTegic.value.DoubleValue
13.666

@<SCITEGIC>MOL_PROPERTY
W
SciTegic.value.DoubleValue
-63.093

@<SCITEGIC>MOL_PROPERTY
W(PB)
SciTegic.value.DoubleValue
-65.225

@<SCITEGIC>MOL_PROPERTY
W(SA)
SciTegic.value.DoubleValue
2.132

@<SCITEGIC>MOL_PROPERTY
Valence
SciTegic.value.DoubleValue
15.226

@<SCITEGIC>MOL_PROPERTY
Coulomb
SciTegic.value.DoubleValue
-1.822

@<SCITEGIC>MOL_PROPERTY
VdW
SciTegic.value.DoubleValue
0.261

@<SCITEGIC>MOL_PROPERTY
VdW6
SciTegic.value.DoubleValue
-4.165

@<SCITEGIC>MOL_PROPERTY
VdW12
SciTegic.value.DoubleValue
4.426

@<SCITEGIC>MOL_PROPERTY
Bond
SciTegic.value.DoubleValue
0.044

@<SCITEGIC>MOL_PROPERTY
Angle
SciTegic.value.DoubleValue
2.229

@<SCITEGIC>MOL_PROPERTY
Pdih
SciTegic.value.DoubleValue
12.953

@<SCITEGIC>MOL_PROPERTY
Idih
SciTegic.value.DoubleValue
0.000

@<SCITEGIC>MOL_PROPERTY
Tether
SciTegic.value.DoubleValue
0.000

@<TRIPOS>MOLECULE
guest-s20_confgen4.mol2 : confsearch ligand conformer 982
          17          16           1
SMALL
USER_CHARGES
 
@<TRIPOS>ATOM
       1    C1      21.548143   18.318461   24.746552 C.2        1 MOL1         0.6132
       2    O1      22.592757   18.928266   24.863766 O.co2      1 MOL1        -0.6749
       3    O2      21.414735   17.149385   25.050566 O.co2      1 MOL1        -0.6749
       4    C2      20.337578   19.059187   24.193868 C.3        1 MOL1        -0.1955
       5    H1      20.480541   20.131682   24.372635 H          1 MOL1         0.0733
       6    H2      19.461672   18.751028   24.776392 H          1 MOL1         0.0733
       7    C3      20.108095   18.779407   22.720842 C.2        1 MOL1        -0.1395
       8    H3      19.800892   17.761398   22.483174 H          1 MOL1         0.0816
       9    C4      20.262710   19.686032   21.751125 C.2        1 MOL1        -0.1394
      10    H4      20.572999   20.702946   21.989175 H          1 MOL1         0.0816
      11    C5      20.037267   19.404177   20.282433 C.3        1 MOL1        -0.1826
      12    H5      20.888533   19.778962   19.698126 H          1 MOL1         0.0736
      13    H6      19.983628   18.321588   20.102591 H          1 MOL1         0.0736
      14    C6      18.739401   20.068952   19.783754 C.3        1 MOL1        -0.2882
      15    H7      18.781139   21.158032   19.916385 H          1 MOL1         0.0749
      16    H8      18.581573   19.861523   18.717382 H          1 MOL1         0.0749
      17    H9      17.869864   19.690078   20.336891 H          1 MOL1         0.0749
@<TRIPOS>BOND
    1     1     2    1
    2     1     3    2
    3     1     4    1
    4     4     5    1
    5     4     6    1
    6     4     7    1
    7     7     8    1
    8     7     9    2
    9     9    10    1
   10     9    11    1
   11    11    12    1
   12    11    13    1
   13    11    14    1
   14    14    15    1
   15    14    16    1
   16    14    17    1
@<TRIPOS>SUBSTRUCTURE
       1 MOL1            1 RESIDUE      1      MOL     
@<SCITEGIC>MOL_PROPERTY
VConf Rank
SciTegic.value.IntegerValue
982

@<SCITEGIC>MOL_PROPERTY
Conf_Id
SciTegic.value.IntegerValue
35

@<SCITEGIC>MOL_PROPERTY
Delta U+W
SciTegic.value.DoubleValue
-0.102

@<SCITEGIC>MOL_PROPERTY
U+W
SciTegic.value.DoubleValue
-49.529

@<SCITEGIC>MOL_PROPERTY
Grad RMS
SciTegic.value.DoubleValue
0.000000

@<SCITEGIC>MOL_PROPERTY
U
SciTegic.value.DoubleValue
13.666

@<SCITEGIC>MOL_PROPERTY
W
SciTegic.value.DoubleValue
-63.195

@<SCITEGIC>MOL_PROPERTY
W(PB)
SciTegic.value.DoubleValue
-65.299

@<SCITEGIC>MOL_PROPERTY
W(SA)
SciTegic.value.DoubleValue
2.103

@<SCITEGIC>MOL_PROPERTY
Valence
SciTegic.value.DoubleValue
15.226

@<SCITEGIC>MOL_PROPERTY
Coulomb
SciTegic.value.DoubleValue
-1.822

@<SCITEGIC>MOL_PROPERTY
VdW
SciTegic.value.DoubleValue
0.261

@<SCITEGIC>MOL_PROPERTY
VdW6
SciTegic.value.DoubleValue
-4.165

@<SCITEGIC>MOL_PROPERTY
VdW12
SciTegic.value.DoubleValue
4.426

@<SCITEGIC>MOL_PROPERTY
Bond
SciTegic.value.DoubleValue
0.044

@<SCITEGIC>MOL_PROPERTY
Angle
SciTegic.value.DoubleValue
2.229

@<SCITEGIC>MOL_PROPERTY
Pdih
SciTegic.value.DoubleValue
12.953

@<SCITEGIC>MOL_PROPERTY
Idih
SciTegic.value.DoubleValue
0.000

@<SCITEGIC>MOL_PROPERTY
Tether
SciTegic.value.DoubleValue
0.000

@<TRIPOS>MOLECULE
guest-s20_confgen4.mol2 : confsearch ligand conformer 983
          17          16           1
SMALL
USER_CHARGES
 
@<TRIPOS>ATOM
       1    C1      19.343564   16.409192   21.367984 C.2        1 MOL1         0.6132
       2    O1      20.309797   15.688792   21.211814 O.co2      1 MOL1        -0.6749
       3    O2      18.339128   16.067195   21.960432 O.co2      1 MOL1        -0.6749
       4    C2      19.392489   17.813423   20.780246 C.3        1 MOL1        -0.1955
       5    H1      18.362525   18.154558   20.620914 H          1 MOL1         0.0733
       6    H2      19.864245   17.746855   19.793066 H          1 MOL1         0.0733
       7    C3      20.158742   18.784088   21.658921 C.2        1 MOL1        -0.1395
       8    H3      21.227327   18.588016   21.727986 H          1 MOL1         0.0816
       9    C4      19.592792   19.805603   22.313842 C.2        1 MOL1        -0.1394
      10    H4      18.519170   19.967978   22.224092 H          1 MOL1         0.0816
      11    C5      20.296608   20.810263   23.210442 C.3        1 MOL1        -0.1826
      12    H5      20.112745   21.822351   22.825244 H          1 MOL1         0.0736
      13    H6      19.833553   20.784903   24.206162 H          1 MOL1         0.0736
      14    C6      21.819336   20.597350   23.358750 C.3        1 MOL1        -0.2882
      15    H7      22.323947   20.670338   22.386412 H          1 MOL1         0.0749
      16    H8      22.251914   21.359490   24.019846 H          1 MOL1         0.0749
      17    H9      22.038983   19.612727   23.792065 H          1 MOL1         0.0749
@<TRIPOS>BOND
    1     1     2    1
    2     1     3    2
    3     1     4    1
    4     4     5    1
    5     4     6    1
    6     4     7    1
    7     7     8    1
    8     7     9    2
    9     9    10    1
   10     9    11    1
   11    11    12    1
   12    11    13    1
   13    11    14    1
   14    14    15    1
   15    14    16    1
   16    14    17    1
@<TRIPOS>SUBSTRUCTURE
       1 MOL1            1 RESIDUE      1      MOL     
@<SCITEGIC>MOL_PROPERTY
VConf Rank
SciTegic.value.IntegerValue
983

@<SCITEGIC>MOL_PROPERTY
Conf_Id
SciTegic.value.IntegerValue
19

@<SCITEGIC>MOL_PROPERTY
Delta U+W
SciTegic.value.DoubleValue
-0.496

@<SCITEGIC>MOL_PROPERTY
U+W
SciTegic.value.DoubleValue
-49.923

@<SCITEGIC>MOL_PROPERTY
Grad RMS
SciTegic.value.DoubleValue
0.000000

@<SCITEGIC>MOL_PROPERTY
U
SciTegic.value.DoubleValue
13.863

@<SCITEGIC>MOL_PROPERTY
W
SciTegic.value.DoubleValue
-63.786

@<SCITEGIC>MOL_PROPERTY
W(PB)
SciTegic.value.DoubleValue
-65.856

@<SCITEGIC>MOL_PROPERTY
W(SA)
SciTegic.value.DoubleValue
2.070

@<SCITEGIC>MOL_PROPERTY
Valence
SciTegic.value.DoubleValue
14.117

@<SCITEGIC>MOL_PROPERTY
Coulomb
SciTegic.value.DoubleValue
-1.228

@<SCITEGIC>MOL_PROPERTY
VdW
SciTegic.value.DoubleValue
0.974

@<SCITEGIC>MOL_PROPERTY
VdW6
SciTegic.value.DoubleValue
-4.885

@<SCITEGIC>MOL_PROPERTY
VdW12
SciTegic.value.DoubleValue
5.859

@<SCITEGIC>MOL_PROPERTY
Bond
SciTegic.value.DoubleValue
0.094

@<SCITEGIC>MOL_PROPERTY
Angle
SciTegic.value.DoubleValue
2.818

@<SCITEGIC>MOL_PROPERTY
Pdih
SciTegic.value.DoubleValue
11.205

@<SCITEGIC>MOL_PROPERTY
Idih
SciTegic.value.DoubleValue
0.000

@<SCITEGIC>MOL_PROPERTY
Tether
SciTegic.value.DoubleValue
0.000

@<TRIPOS>MOLECULE
guest-s20_confgen4.mol2 : confsearch ligand conformer 984
          17          16           1
SMALL
USER_CHARGES
 
@<TRIPOS>ATOM
       1    C1      21.795572   18.594722   19.820894 C.2        1 MOL1         0.6132
       2    O1      21.358304   17.537169   19.412006 O.co2      1 MOL1        -0.6749
       3    O2      22.002109   19.557123   19.108063 O.co2      1 MOL1        -0.6749
       4    C2      22.112886   18.719718   21.305318 C.3        1 MOL1        -0.1955
       5    H1      23.063422   19.257275   21.400181 H          1 MOL1         0.0733
       6    H2      22.272315   17.712286   21.708205 H          1 MOL1         0.0733
       7    C3      21.024742   19.446223   22.072715 C.2        1 MOL1        -0.1395
       8    H3      20.913425   20.503332   21.833243 H          1 MOL1         0.0816
       9    C4      20.231498   18.868275   22.979883 C.2        1 MOL1        -0.1394
      10    H4      20.339839   17.809999   23.215199 H          1 MOL1         0.0816
      11    C5      19.145097   19.593857   23.741855 C.3        1 MOL1        -0.1826
      12    H5      19.226011   19.363635   24.812823 H          1 MOL1         0.0736
      13    H6      19.266875   20.681326   23.642910 H          1 MOL1         0.0736
      14    C6      17.747768   19.189046   23.233336 C.3        1 MOL1        -0.2882
      15    H7      17.583516   18.110473   23.356327 H          1 MOL1         0.0749
      16    H8      16.963309   19.718759   23.789300 H          1 MOL1         0.0749
      17    H9      17.634890   19.432791   22.168663 H          1 MOL1         0.0749
@<TRIPOS>BOND
    1     1     2    1
    2     1     3    2
    3     1     4    1
    4     4     5    1
    5     4     6    1
    6     4     7    1
    7     7     8    1
    8     7     9    2
    9     9    10    1
   10     9    11    1
   11    11    12    1
   12    11    13    1
   13    11    14    1
   14    14    15    1
   15    14    16    1
   16    14    17    1
@<TRIPOS>SUBSTRUCTURE
       1 MOL1            1 RESIDUE      1      MOL     
@<SCITEGIC>MOL_PROPERTY
VConf Rank
SciTegic.value.IntegerValue
984

@<SCITEGIC>MOL_PROPERTY
Conf_Id
SciTegic.value.IntegerValue
7

@<SCITEGIC>MOL_PROPERTY
Delta U+W
SciTegic.value.DoubleValue
-0.041

@<SCITEGIC>MOL_PROPERTY
U+W
SciTegic.value.DoubleValue
-49.468

@<SCITEGIC>MOL_PROPERTY
Grad RMS
SciTegic.value.DoubleValue
0.000000

@<SCITEGIC>MOL_PROPERTY
U
SciTegic.value.DoubleValue
14.121

@<SCITEGIC>MOL_PROPERTY
W
SciTegic.value.DoubleValue
-63.589

@<SCITEGIC>MOL_PROPERTY
W(PB)
SciTegic.value.DoubleValue
-65.660

@<SCITEGIC>MOL_PROPERTY
W(SA)
SciTegic.value.DoubleValue
2.071

@<SCITEGIC>MOL_PROPERTY
Valence
SciTegic.value.DoubleValue
15.230

@<SCITEGIC>MOL_PROPERTY
Coulomb
SciTegic.value.DoubleValue
-1.333

@<SCITEGIC>MOL_PROPERTY
VdW
SciTegic.value.DoubleValue
0.224

@<SCITEGIC>MOL_PROPERTY
VdW6
SciTegic.value.DoubleValue
-4.212

@<SCITEGIC>MOL_PROPERTY
VdW12
SciTegic.value.DoubleValue
4.436

@<SCITEGIC>MOL_PROPERTY
Bond
SciTegic.value.DoubleValue
0.044

@<SCITEGIC>MOL_PROPERTY
Angle
SciTegic.value.DoubleValue
2.230

@<SCITEGIC>MOL_PROPERTY
Pdih
SciTegic.value.DoubleValue
12.956

@<SCITEGIC>MOL_PROPERTY
Idih
SciTegic.value.DoubleValue
0.000

@<SCITEGIC>MOL_PROPERTY
Tether
SciTegic.value.DoubleValue
0.000

@<TRIPOS>MOLECULE
guest-s20_confgen4.mol2 : confsearch ligand conformer 985
          17          16           1
SMALL
USER_CHARGES
 
@<TRIPOS>ATOM
       1    C1      21.327487   19.644655   24.726715 C.2        1 MOL1         0.6132
       2    O1      20.360075   19.609303   25.461464 O.co2      1 MOL1        -0.6749
       3    O2      22.127436   20.559529   24.713667 O.co2      1 MOL1        -0.6749
       4    C2      21.566059   18.464278   23.790034 C.3        1 MOL1        -0.1955
       5    H1      21.191667   17.560835   24.285401 H          1 MOL1         0.0733
       6    H2      22.649248   18.327254   23.691812 H          1 MOL1         0.0733
       7    C3      20.939612   18.585060   22.408060 C.2        1 MOL1        -0.1395
       8    H3      21.122192   17.732023   21.755728 H          1 MOL1         0.0816
       9    C4      20.213077   19.616248   21.961076 C.2        1 MOL1        -0.1394
      10    H4      20.014923   20.481036   22.593222 H          1 MOL1         0.0816
      11    C5      19.612580   19.687785   20.574632 C.3        1 MOL1        -0.1826
      12    H5      19.837765   20.663553   20.123312 H          1 MOL1         0.0736
      13    H6      20.061181   18.927208   19.920847 H          1 MOL1         0.0736
      14    C6      18.085772   19.483572   20.621425 C.3        1 MOL1        -0.2882
      15    H7      17.655267   19.537846   19.613070 H          1 MOL1         0.0749
      16    H8      17.836664   18.502160   21.046125 H          1 MOL1         0.0749
      17    H9      17.606404   20.254726   21.238666 H          1 MOL1         0.0749
@<TRIPOS>BOND
    1     1     2    1
    2     1     3    2
    3     1     4    1
    4     4     5    1
    5     4     6    1
    6     4     7    1
    7     7     8    1
    8     7     9    2
    9     9    10    1
   10     9    11    1
   11    11    12    1
   12    11    13    1
   13    11    14    1
   14    14    15    1
   15    14    16    1
   16    14    17    1
@<TRIPOS>SUBSTRUCTURE
       1 MOL1            1 RESIDUE      1      MOL     
@<SCITEGIC>MOL_PROPERTY
VConf Rank
SciTegic.value.IntegerValue
985

@<SCITEGIC>MOL_PROPERTY
Conf_Id
SciTegic.value.IntegerValue
39

@<SCITEGIC>MOL_PROPERTY
Delta U+W
SciTegic.value.DoubleValue
-0.422

@<SCITEGIC>MOL_PROPERTY
U+W
SciTegic.value.DoubleValue
-49.849

@<SCITEGIC>MOL_PROPERTY
Grad RMS
SciTegic.value.DoubleValue
0.000000

@<SCITEGIC>MOL_PROPERTY
U
SciTegic.value.DoubleValue
14.465

@<SCITEGIC>MOL_PROPERTY
W
SciTegic.value.DoubleValue
-64.314

@<SCITEGIC>MOL_PROPERTY
W(PB)
SciTegic.value.DoubleValue
-66.406

@<SCITEGIC>MOL_PROPERTY
W(SA)
SciTegic.value.DoubleValue
2.093

@<SCITEGIC>MOL_PROPERTY
Valence
SciTegic.value.DoubleValue
14.072

@<SCITEGIC>MOL_PROPERTY
Coulomb
SciTegic.value.DoubleValue
-0.199

@<SCITEGIC>MOL_PROPERTY
VdW
SciTegic.value.DoubleValue
0.592

@<SCITEGIC>MOL_PROPERTY
VdW6
SciTegic.value.DoubleValue
-5.019

@<SCITEGIC>MOL_PROPERTY
VdW12
SciTegic.value.DoubleValue
5.611

@<SCITEGIC>MOL_PROPERTY
Bond
SciTegic.value.DoubleValue
0.085

@<SCITEGIC>MOL_PROPERTY
Angle
SciTegic.value.DoubleValue
2.748

@<SCITEGIC>MOL_PROPERTY
Pdih
SciTegic.value.DoubleValue
11.238

@<SCITEGIC>MOL_PROPERTY
Idih
SciTegic.value.DoubleValue
0.001

@<SCITEGIC>MOL_PROPERTY
Tether
SciTegic.value.DoubleValue
0.000

@<TRIPOS>MOLECULE
guest-s20_confgen4.mol2 : confsearch ligand conformer 986
          17          16           1
SMALL
USER_CHARGES
 
@<TRIPOS>ATOM
       1    C1      18.933067   22.083792   22.963782 C.2        1 MOL1         0.6132
       2    O1      19.179940   22.452970   24.095030 O.co2      1 MOL1        -0.6749
       3    O2      17.856376   22.245701   22.424022 O.co2      1 MOL1        -0.6749
       4    C2      20.036214   21.385244   22.179753 C.3        1 MOL1        -0.1955
       5    H1      20.975764   21.912696   22.381122 H          1 MOL1         0.0733
       6    H2      19.824752   21.503659   21.110219 H          1 MOL1         0.0733
       7    C3      20.172184   19.920125   22.548107 C.2        1 MOL1        -0.1395
       8    H3      20.537944   19.725984   23.555941 H          1 MOL1         0.0816
       9    C4      19.873634   18.908463   21.727354 C.2        1 MOL1        -0.1394
      10    H4      19.505113   19.103307   20.720732 H          1 MOL1         0.0816
      11    C5      20.006263   17.448127   22.097690 C.3        1 MOL1        -0.1826
      12    H5      20.128989   17.336626   23.183843 H          1 MOL1         0.0736
      13    H6      19.086210   16.912223   21.827793 H          1 MOL1         0.0736
      14    C6      21.206871   16.801501   21.379724 C.3        1 MOL1        -0.2882
      15    H7      22.142986   17.305218   21.654604 H          1 MOL1         0.0749
      16    H8      21.297590   15.741877   21.651852 H          1 MOL1         0.0749
      17    H9      21.091817   16.864597   20.289673 H          1 MOL1         0.0749
@<TRIPOS>BOND
    1     1     2    1
    2     1     3    2
    3     1     4    1
    4     4     5    1
    5     4     6    1
    6     4     7    1
    7     7     8    1
    8     7     9    2
    9     9    10    1
   10     9    11    1
   11    11    12    1
   12    11    13    1
   13    11    14    1
   14    14    15    1
   15    14    16    1
   16    14    17    1
@<TRIPOS>SUBSTRUCTURE
       1 MOL1            1 RESIDUE      1      MOL     
@<SCITEGIC>MOL_PROPERTY
VConf Rank
SciTegic.value.IntegerValue
986

@<SCITEGIC>MOL_PROPERTY
Conf_Id
SciTegic.value.IntegerValue
38

@<SCITEGIC>MOL_PROPERTY
Delta U+W
SciTegic.value.DoubleValue
0.000

@<SCITEGIC>MOL_PROPERTY
U+W
SciTegic.value.DoubleValue
-49.427

@<SCITEGIC>MOL_PROPERTY
Grad RMS
SciTegic.value.DoubleValue
0.000000

@<SCITEGIC>MOL_PROPERTY
U
SciTegic.value.DoubleValue
13.666

@<SCITEGIC>MOL_PROPERTY
W
SciTegic.value.DoubleValue
-63.093

@<SCITEGIC>MOL_PROPERTY
W(PB)
SciTegic.value.DoubleValue
-65.225

@<SCITEGIC>MOL_PROPERTY
W(SA)
SciTegic.value.DoubleValue
2.132

@<SCITEGIC>MOL_PROPERTY
Valence
SciTegic.value.DoubleValue
15.226

@<SCITEGIC>MOL_PROPERTY
Coulomb
SciTegic.value.DoubleValue
-1.822

@<SCITEGIC>MOL_PROPERTY
VdW
SciTegic.value.DoubleValue
0.261

@<SCITEGIC>MOL_PROPERTY
VdW6
SciTegic.value.DoubleValue
-4.165

@<SCITEGIC>MOL_PROPERTY
VdW12
SciTegic.value.DoubleValue
4.426

@<SCITEGIC>MOL_PROPERTY
Bond
SciTegic.value.DoubleValue
0.044

@<SCITEGIC>MOL_PROPERTY
Angle
SciTegic.value.DoubleValue
2.229

@<SCITEGIC>MOL_PROPERTY
Pdih
SciTegic.value.DoubleValue
12.953

@<SCITEGIC>MOL_PROPERTY
Idih
SciTegic.value.DoubleValue
0.000

@<SCITEGIC>MOL_PROPERTY
Tether
SciTegic.value.DoubleValue
0.000

@<TRIPOS>MOLECULE
guest-s20_confgen4.mol2 : confsearch ligand conformer 987
          17          16           1
SMALL
USER_CHARGES
 
@<TRIPOS>ATOM
       1    C1      19.146529   16.592741   23.511663 C.2        1 MOL1         0.6132
       2    O1      19.733059   16.472496   24.569180 O.co2      1 MOL1        -0.6749
       3    O2      18.881528   15.659050   22.780257 O.co2      1 MOL1        -0.6749
       4    C2      18.714324   17.987930   23.080095 C.3        1 MOL1        -0.1955
       5    H1      18.631824   18.614209   23.976537 H          1 MOL1         0.0733
       6    H2      17.709014   17.909211   22.650370 H          1 MOL1         0.0733
       7    C3      19.664917   18.604578   22.071699 C.2        1 MOL1        -0.1395
       8    H3      19.678812   18.126304   21.092790 H          1 MOL1         0.0816
       9    C4      20.448945   19.656999   22.324560 C.2        1 MOL1        -0.1394
      10    H4      20.436880   20.132788   23.304631 H          1 MOL1         0.0816
      11    C5      21.399117   20.268082   21.319040 C.3        1 MOL1        -0.1826
      12    H5      22.386416   20.408224   21.779620 H          1 MOL1         0.0736
      13    H6      21.542650   19.591489   20.465320 H          1 MOL1         0.0736
      14    C6      20.871647   21.624396   20.811843 C.3        1 MOL1        -0.2882
      15    H7      20.754880   22.334236   21.641253 H          1 MOL1         0.0749
      16    H8      21.565579   22.063205   20.083152 H          1 MOL1         0.0749
      17    H9      19.895404   21.505167   20.323648 H          1 MOL1         0.0749
@<TRIPOS>BOND
    1     1     2    1
    2     1     3    2
    3     1     4    1
    4     4     5    1
    5     4     6    1
    6     4     7    1
    7     7     8    1
    8     7     9    2
    9     9    10    1
   10     9    11    1
   11    11    12    1
   12    11    13    1
   13    11    14    1
   14    14    15    1
   15    14    16    1
   16    14    17    1
@<TRIPOS>SUBSTRUCTURE
       1 MOL1            1 RESIDUE      1      MOL     
@<SCITEGIC>MOL_PROPERTY
VConf Rank
SciTegic.value.IntegerValue
987

@<SCITEGIC>MOL_PROPERTY
Conf_Id
SciTegic.value.IntegerValue
35

@<SCITEGIC>MOL_PROPERTY
Delta U+W
SciTegic.value.DoubleValue
-0.102

@<SCITEGIC>MOL_PROPERTY
U+W
SciTegic.value.DoubleValue
-49.529

@<SCITEGIC>MOL_PROPERTY
Grad RMS
SciTegic.value.DoubleValue
0.000000

@<SCITEGIC>MOL_PROPERTY
U
SciTegic.value.DoubleValue
13.666

@<SCITEGIC>MOL_PROPERTY
W
SciTegic.value.DoubleValue
-63.195

@<SCITEGIC>MOL_PROPERTY
W(PB)
SciTegic.value.DoubleValue
-65.299

@<SCITEGIC>MOL_PROPERTY
W(SA)
SciTegic.value.DoubleValue
2.103

@<SCITEGIC>MOL_PROPERTY
Valence
SciTegic.value.DoubleValue
15.226

@<SCITEGIC>MOL_PROPERTY
Coulomb
SciTegic.value.DoubleValue
-1.822

@<SCITEGIC>MOL_PROPERTY
VdW
SciTegic.value.DoubleValue
0.261

@<SCITEGIC>MOL_PROPERTY
VdW6
SciTegic.value.DoubleValue
-4.165

@<SCITEGIC>MOL_PROPERTY
VdW12
SciTegic.value.DoubleValue
4.426

@<SCITEGIC>MOL_PROPERTY
Bond
SciTegic.value.DoubleValue
0.044

@<SCITEGIC>MOL_PROPERTY
Angle
SciTegic.value.DoubleValue
2.229

@<SCITEGIC>MOL_PROPERTY
Pdih
SciTegic.value.DoubleValue
12.953

@<SCITEGIC>MOL_PROPERTY
Idih
SciTegic.value.DoubleValue
0.000

@<SCITEGIC>MOL_PROPERTY
Tether
SciTegic.value.DoubleValue
0.000

@<TRIPOS>MOLECULE
guest-s20_confgen4.mol2 : confsearch ligand conformer 988
          17          16           1
SMALL
USER_CHARGES
 
@<TRIPOS>ATOM
       1    C1      20.140139   18.742689   19.275583 C.2        1 MOL1         0.6132
       2    O1      20.582588   19.732439   18.726397 O.co2      1 MOL1        -0.6749
       3    O2      20.438669   17.608155   18.958470 O.co2      1 MOL1        -0.6749
       4    C2      19.150532   18.936797   20.416939 C.3        1 MOL1        -0.1955
       5    H1      18.544069   18.027230   20.503399 H          1 MOL1         0.0733
       6    H2      18.470803   19.749551   20.136028 H          1 MOL1         0.0733
       7    C3      19.836037   19.262148   21.730573 C.2        1 MOL1        -0.1395
       8    H3      20.325786   20.233967   21.758940 H          1 MOL1         0.0816
       9    C4      19.858669   18.438088   22.785620 C.2        1 MOL1        -0.1394
      10    H4      19.360978   17.471195   22.718505 H          1 MOL1         0.0816
      11    C5      20.526833   18.697177   24.125404 C.3        1 MOL1        -0.1826
      12    H5      19.773182   18.620020   24.920742 H          1 MOL1         0.0736
      13    H6      21.249214   17.894038   24.324537 H          1 MOL1         0.0736
      14    C6      21.244969   20.059678   24.243294 C.3        1 MOL1        -0.2882
      15    H7      20.540323   20.889900   24.103272 H          1 MOL1         0.0749
      16    H8      21.700985   20.169765   25.235745 H          1 MOL1         0.0749
      17    H9      22.043088   20.150285   23.494771 H          1 MOL1         0.0749
@<TRIPOS>BOND
    1     1     2    1
    2     1     3    2
    3     1     4    1
    4     4     5    1
    5     4     6    1
    6     4     7    1
    7     7     8    1
    8     7     9    2
    9     9    10    1
   10     9    11    1
   11    11    12    1
   12    11    13    1
   13    11    14    1
   14    14    15    1
   15    14    16    1
   16    14    17    1
@<TRIPOS>SUBSTRUCTURE
       1 MOL1            1 RESIDUE      1      MOL     
@<SCITEGIC>MOL_PROPERTY
VConf Rank
SciTegic.value.IntegerValue
988

@<SCITEGIC>MOL_PROPERTY
Conf_Id
SciTegic.value.IntegerValue
19

@<SCITEGIC>MOL_PROPERTY
Delta U+W
SciTegic.value.DoubleValue
-0.496

@<SCITEGIC>MOL_PROPERTY
U+W
SciTegic.value.DoubleValue
-49.923

@<SCITEGIC>MOL_PROPERTY
Grad RMS
SciTegic.value.DoubleValue
0.000000

@<SCITEGIC>MOL_PROPERTY
U
SciTegic.value.DoubleValue
13.863

@<SCITEGIC>MOL_PROPERTY
W
SciTegic.value.DoubleValue
-63.786

@<SCITEGIC>MOL_PROPERTY
W(PB)
SciTegic.value.DoubleValue
-65.856

@<SCITEGIC>MOL_PROPERTY
W(SA)
SciTegic.value.DoubleValue
2.070

@<SCITEGIC>MOL_PROPERTY
Valence
SciTegic.value.DoubleValue
14.117

@<SCITEGIC>MOL_PROPERTY
Coulomb
SciTegic.value.DoubleValue
-1.228

@<SCITEGIC>MOL_PROPERTY
VdW
SciTegic.value.DoubleValue
0.974

@<SCITEGIC>MOL_PROPERTY
VdW6
SciTegic.value.DoubleValue
-4.885

@<SCITEGIC>MOL_PROPERTY
VdW12
SciTegic.value.DoubleValue
5.859

@<SCITEGIC>MOL_PROPERTY
Bond
SciTegic.value.DoubleValue
0.094

@<SCITEGIC>MOL_PROPERTY
Angle
SciTegic.value.DoubleValue
2.818

@<SCITEGIC>MOL_PROPERTY
Pdih
SciTegic.value.DoubleValue
11.205

@<SCITEGIC>MOL_PROPERTY
Idih
SciTegic.value.DoubleValue
0.000

@<SCITEGIC>MOL_PROPERTY
Tether
SciTegic.value.DoubleValue
0.000

@<TRIPOS>MOLECULE
guest-s20_confgen4.mol2 : confsearch ligand conformer 989
          17          16           1
SMALL
USER_CHARGES
 
@<TRIPOS>ATOM
       1    C1      18.226745   21.228785   22.666442 C.2        1 MOL1         0.6132
       2    O1      17.413321   21.038788   21.783801 O.co2      1 MOL1        -0.6749
       3    O2      17.924457   21.451158   23.822373 O.co2      1 MOL1        -0.6749
       4    C2      19.705912   21.197646   22.304610 C.3        1 MOL1        -0.1955
       5    H1      20.197131   22.022714   22.833243 H          1 MOL1         0.0733
       6    H2      19.801082   21.402218   21.231416 H          1 MOL1         0.0733
       7    C3      20.365056   19.880619   22.667560 C.2        1 MOL1        -0.1395
       8    H3      20.447198   19.680457   23.735457 H          1 MOL1         0.0816
       9    C4      20.819265   18.996549   21.774066 C.2        1 MOL1        -0.1394
      10    H4      20.732207   19.194891   20.706293 H          1 MOL1         0.0816
      11    C5      21.473581   17.682506   22.138068 C.3        1 MOL1        -0.1826
      12    H5      22.404042   17.560677   21.567172 H          1 MOL1         0.0736
      13    H6      21.752090   17.673177   23.200873 H          1 MOL1         0.0736
      14    C6      20.533158   16.496779   21.847127 C.3        1 MOL1        -0.2882
      15    H7      20.268895   16.458634   20.782169 H          1 MOL1         0.0749
      16    H8      21.012712   15.545909   22.113474 H          1 MOL1         0.0749
      17    H9      19.604724   16.584499   22.426780 H          1 MOL1         0.0749
@<TRIPOS>BOND
    1     1     2    1
    2     1     3    2
    3     1     4    1
    4     4     5    1
    5     4     6    1
    6     4     7    1
    7     7     8    1
    8     7     9    2
    9     9    10    1
   10     9    11    1
   11    11    12    1
   12    11    13    1
   13    11    14    1
   14    14    15    1
   15    14    16    1
   16    14    17    1
@<TRIPOS>SUBSTRUCTURE
       1 MOL1            1 RESIDUE      1      MOL     
@<SCITEGIC>MOL_PROPERTY
VConf Rank
SciTegic.value.IntegerValue
989

@<SCITEGIC>MOL_PROPERTY
Conf_Id
SciTegic.value.IntegerValue
7

@<SCITEGIC>MOL_PROPERTY
Delta U+W
SciTegic.value.DoubleValue
-0.041

@<SCITEGIC>MOL_PROPERTY
U+W
SciTegic.value.DoubleValue
-49.468

@<SCITEGIC>MOL_PROPERTY
Grad RMS
SciTegic.value.DoubleValue
0.000000

@<SCITEGIC>MOL_PROPERTY
U
SciTegic.value.DoubleValue
14.121

@<SCITEGIC>MOL_PROPERTY
W
SciTegic.value.DoubleValue
-63.589

@<SCITEGIC>MOL_PROPERTY
W(PB)
SciTegic.value.DoubleValue
-65.660

@<SCITEGIC>MOL_PROPERTY
W(SA)
SciTegic.value.DoubleValue
2.071

@<SCITEGIC>MOL_PROPERTY
Valence
SciTegic.value.DoubleValue
15.230

@<SCITEGIC>MOL_PROPERTY
Coulomb
SciTegic.value.DoubleValue
-1.333

@<SCITEGIC>MOL_PROPERTY
VdW
SciTegic.value.DoubleValue
0.224

@<SCITEGIC>MOL_PROPERTY
VdW6
SciTegic.value.DoubleValue
-4.212

@<SCITEGIC>MOL_PROPERTY
VdW12
SciTegic.value.DoubleValue
4.436

@<SCITEGIC>MOL_PROPERTY
Bond
SciTegic.value.DoubleValue
0.044

@<SCITEGIC>MOL_PROPERTY
Angle
SciTegic.value.DoubleValue
2.230

@<SCITEGIC>MOL_PROPERTY
Pdih
SciTegic.value.DoubleValue
12.956

@<SCITEGIC>MOL_PROPERTY
Idih
SciTegic.value.DoubleValue
0.000

@<SCITEGIC>MOL_PROPERTY
Tether
SciTegic.value.DoubleValue
0.000

@<TRIPOS>MOLECULE
guest-s20_confgen4.mol2 : confsearch ligand conformer 990
          17          16           1
SMALL
USER_CHARGES
 
@<TRIPOS>ATOM
       1    C1      21.122113   21.381611   20.784635 C.2        1 MOL1         0.6132
       2    O1      21.164123   22.255848   21.627805 O.co2      1 MOL1        -0.6749
       3    O2      20.549485   21.503192   19.719554 O.co2      1 MOL1        -0.6749
       4    C2      21.850814   20.071225   21.066525 C.3        1 MOL1        -0.1955
       5    H1      22.726577   20.299742   21.685061 H          1 MOL1         0.0733
       6    H2      22.243855   19.694283   20.115129 H          1 MOL1         0.0733
       7    C3      21.019244   18.988638   21.739855 C.2        1 MOL1        -0.1395
       8    H3      21.558503   18.061857   21.931747 H          1 MOL1         0.0816
       9    C4      19.733745   19.092306   22.097263 C.2        1 MOL1        -0.1394
      10    H4      19.171776   20.008098   21.917683 H          1 MOL1         0.0816
      11    C5      18.950852   17.983119   22.764141 C.3        1 MOL1        -0.1826
      12    H5      17.986370   17.852593   22.254970 H          1 MOL1         0.0736
      13    H6      19.485573   17.027375   22.675929 H          1 MOL1         0.0736
      14    C6      18.707294   18.295534   24.253474 C.3        1 MOL1        -0.2882
      15    H7      18.137739   17.488207   24.731898 H          1 MOL1         0.0749
      16    H8      19.659295   18.405130   24.789458 H          1 MOL1         0.0749
      17    H9      18.140049   19.228316   24.370127 H          1 MOL1         0.0749
@<TRIPOS>BOND
    1     1     2    1
    2     1     3    2
    3     1     4    1
    4     4     5    1
    5     4     6    1
    6     4     7    1
    7     7     8    1
    8     7     9    2
    9     9    10    1
   10     9    11    1
   11    11    12    1
   12    11    13    1
   13    11    14    1
   14    14    15    1
   15    14    16    1
   16    14    17    1
@<TRIPOS>SUBSTRUCTURE
       1 MOL1            1 RESIDUE      1      MOL     
@<SCITEGIC>MOL_PROPERTY
VConf Rank
SciTegic.value.IntegerValue
990

@<SCITEGIC>MOL_PROPERTY
Conf_Id
SciTegic.value.IntegerValue
39

@<SCITEGIC>MOL_PROPERTY
Delta U+W
SciTegic.value.DoubleValue
-0.422

@<SCITEGIC>MOL_PROPERTY
U+W
SciTegic.value.DoubleValue
-49.849

@<SCITEGIC>MOL_PROPERTY
Grad RMS
SciTegic.value.DoubleValue
0.000000

@<SCITEGIC>MOL_PROPERTY
U
SciTegic.value.DoubleValue
14.465

@<SCITEGIC>MOL_PROPERTY
W
SciTegic.value.DoubleValue
-64.314

@<SCITEGIC>MOL_PROPERTY
W(PB)
SciTegic.value.DoubleValue
-66.406

@<SCITEGIC>MOL_PROPERTY
W(SA)
SciTegic.value.DoubleValue
2.093

@<SCITEGIC>MOL_PROPERTY
Valence
SciTegic.value.DoubleValue
14.072

@<SCITEGIC>MOL_PROPERTY
Coulomb
SciTegic.value.DoubleValue
-0.199

@<SCITEGIC>MOL_PROPERTY
VdW
SciTegic.value.DoubleValue
0.592

@<SCITEGIC>MOL_PROPERTY
VdW6
SciTegic.value.DoubleValue
-5.019

@<SCITEGIC>MOL_PROPERTY
VdW12
SciTegic.value.DoubleValue
5.611

@<SCITEGIC>MOL_PROPERTY
Bond
SciTegic.value.DoubleValue
0.085

@<SCITEGIC>MOL_PROPERTY
Angle
SciTegic.value.DoubleValue
2.748

@<SCITEGIC>MOL_PROPERTY
Pdih
SciTegic.value.DoubleValue
11.238

@<SCITEGIC>MOL_PROPERTY
Idih
SciTegic.value.DoubleValue
0.001

@<SCITEGIC>MOL_PROPERTY
Tether
SciTegic.value.DoubleValue
0.000

@<TRIPOS>MOLECULE
guest-s20_confgen4.mol2 : confsearch ligand conformer 991
          17          16           1
SMALL
USER_CHARGES
 
@<TRIPOS>ATOM
       1    C1      17.526072   17.497674   22.541833 C.2        1 MOL1         0.6132
       2    O1      16.600597   17.688468   21.777599 O.co2      1 MOL1        -0.6749
       3    O2      17.383804   17.288404   23.730439 O.co2      1 MOL1        -0.6749
       4    C2      18.939982   17.516959   21.976068 C.3        1 MOL1        -0.1955
       5    H1      18.921946   16.996430   21.011582 H          1 MOL1         0.0733
       6    H2      19.584705   16.932884   22.643772 H          1 MOL1         0.0733
       7    C3      19.475209   18.924999   21.798019 C.2        1 MOL1        -0.1395
       8    H3      18.981286   19.516315   21.027573 H          1 MOL1         0.0816
       9    C4      20.476878   19.443988   22.514634 C.2        1 MOL1        -0.1394
      10    H4      20.968357   18.853153   23.286919 H          1 MOL1         0.0816
      11    C5      21.006747   20.849497   22.338277 C.3        1 MOL1        -0.1826
      12    H5      20.308120   21.451559   21.741064 H          1 MOL1         0.0736
      13    H6      21.088463   21.340431   23.317481 H          1 MOL1         0.0736
      14    C6      22.386598   20.839159   21.652008 C.3        1 MOL1        -0.2882
      15    H7      22.324551   20.375315   20.658730 H          1 MOL1         0.0749
      16    H8      22.766172   21.861644   21.527369 H          1 MOL1         0.0749
      17    H9      23.116227   20.275229   22.247872 H          1 MOL1         0.0749
@<TRIPOS>BOND
    1     1     2    1
    2     1     3    2
    3     1     4    1
    4     4     5    1
    5     4     6    1
    6     4     7    1
    7     7     8    1
    8     7     9    2
    9     9    10    1
   10     9    11    1
   11    11    12    1
   12    11    13    1
   13    11    14    1
   14    14    15    1
   15    14    16    1
   16    14    17    1
@<TRIPOS>SUBSTRUCTURE
       1 MOL1            1 RESIDUE      1      MOL     
@<SCITEGIC>MOL_PROPERTY
VConf Rank
SciTegic.value.IntegerValue
991

@<SCITEGIC>MOL_PROPERTY
Conf_Id
SciTegic.value.IntegerValue
38

@<SCITEGIC>MOL_PROPERTY
Delta U+W
SciTegic.value.DoubleValue
0.000

@<SCITEGIC>MOL_PROPERTY
U+W
SciTegic.value.DoubleValue
-49.427

@<SCITEGIC>MOL_PROPERTY
Grad RMS
SciTegic.value.DoubleValue
0.000000

@<SCITEGIC>MOL_PROPERTY
U
SciTegic.value.DoubleValue
13.666

@<SCITEGIC>MOL_PROPERTY
W
SciTegic.value.DoubleValue
-63.093

@<SCITEGIC>MOL_PROPERTY
W(PB)
SciTegic.value.DoubleValue
-65.225

@<SCITEGIC>MOL_PROPERTY
W(SA)
SciTegic.value.DoubleValue
2.132

@<SCITEGIC>MOL_PROPERTY
Valence
SciTegic.value.DoubleValue
15.226

@<SCITEGIC>MOL_PROPERTY
Coulomb
SciTegic.value.DoubleValue
-1.822

@<SCITEGIC>MOL_PROPERTY
VdW
SciTegic.value.DoubleValue
0.261

@<SCITEGIC>MOL_PROPERTY
VdW6
SciTegic.value.DoubleValue
-4.165

@<SCITEGIC>MOL_PROPERTY
VdW12
SciTegic.value.DoubleValue
4.426

@<SCITEGIC>MOL_PROPERTY
Bond
SciTegic.value.DoubleValue
0.044

@<SCITEGIC>MOL_PROPERTY
Angle
SciTegic.value.DoubleValue
2.229

@<SCITEGIC>MOL_PROPERTY
Pdih
SciTegic.value.DoubleValue
12.953

@<SCITEGIC>MOL_PROPERTY
Idih
SciTegic.value.DoubleValue
0.000

@<SCITEGIC>MOL_PROPERTY
Tether
SciTegic.value.DoubleValue
0.000

@<TRIPOS>MOLECULE
guest-s20_confgen4.mol2 : confsearch ligand conformer 992
          17          16           1
SMALL
USER_CHARGES
 
@<TRIPOS>ATOM
       1    C1      22.245202   19.291360   19.791214 C.2        1 MOL1         0.6132
       2    O1      23.249735   18.728098   20.179113 O.co2      1 MOL1        -0.6749
       3    O2      22.259222   20.270846   19.071929 O.co2      1 MOL1        -0.6749
       4    C2      20.893980   18.738086   20.224450 C.3        1 MOL1        -0.1955
       5    H1      21.022482   17.679183   20.479110 H          1 MOL1         0.0733
       6    H2      20.221784   18.780564   19.359664 H          1 MOL1         0.0733
       7    C3      20.296597   19.508146   21.386725 C.2        1 MOL1        -0.1395
       8    H3      19.991473   20.529325   21.160242 H          1 MOL1         0.0816
       9    C4      20.140029   19.009548   22.616813 C.2        1 MOL1        -0.1394
      10    H4      20.448284   17.989401   22.843392 H          1 MOL1         0.0816
      11    C5      19.547796   19.780206   23.775548 C.3        1 MOL1        -0.1826
      12    H5      20.192284   19.674947   24.658774 H          1 MOL1         0.0736
      13    H6      19.505528   20.853032   23.542142 H          1 MOL1         0.0736
      14    C6      18.130889   19.274879   24.110331 C.3        1 MOL1        -0.2882
      15    H7      18.148819   18.212077   24.385208 H          1 MOL1         0.0749
      16    H8      17.706673   19.837301   24.952239 H          1 MOL1         0.0749
      17    H9      17.460750   19.394105   23.248763 H          1 MOL1         0.0749
@<TRIPOS>BOND
    1     1     2    1
    2     1     3    2
    3     1     4    1
    4     4     5    1
    5     4     6    1
    6     4     7    1
    7     7     8    1
    8     7     9    2
    9     9    10    1
   10     9    11    1
   11    11    12    1
   12    11    13    1
   13    11    14    1
   14    14    15    1
   15    14    16    1
   16    14    17    1
@<TRIPOS>SUBSTRUCTURE
       1 MOL1            1 RESIDUE      1      MOL     
@<SCITEGIC>MOL_PROPERTY
VConf Rank
SciTegic.value.IntegerValue
992

@<SCITEGIC>MOL_PROPERTY
Conf_Id
SciTegic.value.IntegerValue
35

@<SCITEGIC>MOL_PROPERTY
Delta U+W
SciTegic.value.DoubleValue
-0.102

@<SCITEGIC>MOL_PROPERTY
U+W
SciTegic.value.DoubleValue
-49.529

@<SCITEGIC>MOL_PROPERTY
Grad RMS
SciTegic.value.DoubleValue
0.000000

@<SCITEGIC>MOL_PROPERTY
U
SciTegic.value.DoubleValue
13.666

@<SCITEGIC>MOL_PROPERTY
W
SciTegic.value.DoubleValue
-63.195

@<SCITEGIC>MOL_PROPERTY
W(PB)
SciTegic.value.DoubleValue
-65.299

@<SCITEGIC>MOL_PROPERTY
W(SA)
SciTegic.value.DoubleValue
2.103

@<SCITEGIC>MOL_PROPERTY
Valence
SciTegic.value.DoubleValue
15.226

@<SCITEGIC>MOL_PROPERTY
Coulomb
SciTegic.value.DoubleValue
-1.822

@<SCITEGIC>MOL_PROPERTY
VdW
SciTegic.value.DoubleValue
0.261

@<SCITEGIC>MOL_PROPERTY
VdW6
SciTegic.value.DoubleValue
-4.165

@<SCITEGIC>MOL_PROPERTY
VdW12
SciTegic.value.DoubleValue
4.426

@<SCITEGIC>MOL_PROPERTY
Bond
SciTegic.value.DoubleValue
0.044

@<SCITEGIC>MOL_PROPERTY
Angle
SciTegic.value.DoubleValue
2.229

@<SCITEGIC>MOL_PROPERTY
Pdih
SciTegic.value.DoubleValue
12.953

@<SCITEGIC>MOL_PROPERTY
Idih
SciTegic.value.DoubleValue
0.000

@<SCITEGIC>MOL_PROPERTY
Tether
SciTegic.value.DoubleValue
0.000

@<TRIPOS>MOLECULE
guest-s20_confgen4.mol2 : confsearch ligand conformer 993
          17          16           1
SMALL
USER_CHARGES
 
@<TRIPOS>ATOM
       1    C1      18.244198   21.221491   22.738600 C.2        1 MOL1         0.6132
       2    O1      18.037771   21.858910   21.724669 O.co2      1 MOL1        -0.6749
       3    O2      17.362311   20.829466   23.477139 O.co2      1 MOL1        -0.6749
       4    C2      19.687988   20.906016   23.106891 C.3        1 MOL1        -0.1955
       5    H1      19.736386   20.735303   24.189065 H          1 MOL1         0.0733
       6    H2      20.289708   21.797625   22.895997 H          1 MOL1         0.0733
       7    C3      20.235377   19.715772   22.341978 C.2        1 MOL1        -0.1395
       8    H3      20.361538   19.881459   21.273465 H          1 MOL1         0.0816
       9    C4      20.542340   18.541478   22.907238 C.2        1 MOL1        -0.1394
      10    H4      20.398498   18.411331   23.979364 H          1 MOL1         0.0816
      11    C5      21.088945   17.310809   22.203484 C.3        1 MOL1        -0.1826
      12    H5      22.044137   17.029488   22.667135 H          1 MOL1         0.0736
      13    H6      20.411853   16.465493   22.386534 H          1 MOL1         0.0736
      14    C6      21.295917   17.468359   20.680865 C.3        1 MOL1        -0.2882
      15    H7      22.011328   18.271772   20.461512 H          1 MOL1         0.0749
      16    H8      21.690259   16.539855   20.247964 H          1 MOL1         0.0749
      17    H9      20.348311   17.698496   20.176316 H          1 MOL1         0.0749
@<TRIPOS>BOND
    1     1     2    1
    2     1     3    2
    3     1     4    1
    4     4     5    1
    5     4     6    1
    6     4     7    1
    7     7     8    1
    8     7     9    2
    9     9    10    1
   10     9    11    1
   11    11    12    1
   12    11    13    1
   13    11    14    1
   14    14    15    1
   15    14    16    1
   16    14    17    1
@<TRIPOS>SUBSTRUCTURE
       1 MOL1            1 RESIDUE      1      MOL     
@<SCITEGIC>MOL_PROPERTY
VConf Rank
SciTegic.value.IntegerValue
993

@<SCITEGIC>MOL_PROPERTY
Conf_Id
SciTegic.value.IntegerValue
19

@<SCITEGIC>MOL_PROPERTY
Delta U+W
SciTegic.value.DoubleValue
-0.496

@<SCITEGIC>MOL_PROPERTY
U+W
SciTegic.value.DoubleValue
-49.923

@<SCITEGIC>MOL_PROPERTY
Grad RMS
SciTegic.value.DoubleValue
0.000000

@<SCITEGIC>MOL_PROPERTY
U
SciTegic.value.DoubleValue
13.863

@<SCITEGIC>MOL_PROPERTY
W
SciTegic.value.DoubleValue
-63.786

@<SCITEGIC>MOL_PROPERTY
W(PB)
SciTegic.value.DoubleValue
-65.856

@<SCITEGIC>MOL_PROPERTY
W(SA)
SciTegic.value.DoubleValue
2.070

@<SCITEGIC>MOL_PROPERTY
Valence
SciTegic.value.DoubleValue
14.117

@<SCITEGIC>MOL_PROPERTY
Coulomb
SciTegic.value.DoubleValue
-1.228

@<SCITEGIC>MOL_PROPERTY
VdW
SciTegic.value.DoubleValue
0.974

@<SCITEGIC>MOL_PROPERTY
VdW6
SciTegic.value.DoubleValue
-4.885

@<SCITEGIC>MOL_PROPERTY
VdW12
SciTegic.value.DoubleValue
5.859

@<SCITEGIC>MOL_PROPERTY
Bond
SciTegic.value.DoubleValue
0.094

@<SCITEGIC>MOL_PROPERTY
Angle
SciTegic.value.DoubleValue
2.818

@<SCITEGIC>MOL_PROPERTY
Pdih
SciTegic.value.DoubleValue
11.205

@<SCITEGIC>MOL_PROPERTY
Idih
SciTegic.value.DoubleValue
0.000

@<SCITEGIC>MOL_PROPERTY
Tether
SciTegic.value.DoubleValue
0.000

@<TRIPOS>MOLECULE
guest-s20_confgen4.mol2 : confsearch ligand conformer 994
          17          16           1
SMALL
USER_CHARGES
 
@<TRIPOS>ATOM
       1    C1      20.971037   17.301200   24.413887 C.2        1 MOL1         0.6132
       2    O1      22.122494   17.639940   24.604184 O.co2      1 MOL1        -0.6749
       3    O2      20.161733   17.140173   25.306131 O.co2      1 MOL1        -0.6749
       4    C2      20.518157   17.054023   22.980837 C.3        1 MOL1        -0.1955
       5    H1      19.895767   16.151745   22.977532 H          1 MOL1         0.0733
       6    H2      21.404700   16.834600   22.373755 H          1 MOL1         0.0733
       7    C3      19.742232   18.224185   22.406882 C.2        1 MOL1        -0.1395
       8    H3      18.769717   18.406000   22.863361 H          1 MOL1         0.0816
       9    C4      20.185300   19.006802   21.418238 C.2        1 MOL1        -0.1394
      10    H4      21.160054   18.827696   20.965650 H          1 MOL1         0.0816
      11    C5      19.411244   20.174940   20.849355 C.3        1 MOL1        -0.1826
      12    H5      19.409216   20.119679   19.752330 H          1 MOL1         0.0736
      13    H6      18.360977   20.132463   21.169266 H          1 MOL1         0.0736
      14    C6      20.026084   21.515898   21.295219 C.3        1 MOL1        -0.2882
      15    H7      21.066256   21.602331   20.954637 H          1 MOL1         0.0749
      16    H8      19.460330   22.360049   20.880011 H          1 MOL1         0.0749
      17    H9      20.016279   21.604286   22.389647 H          1 MOL1         0.0749
@<TRIPOS>BOND
    1     1     2    1
    2     1     3    2
    3     1     4    1
    4     4     5    1
    5     4     6    1
    6     4     7    1
    7     7     8    1
    8     7     9    2
    9     9    10    1
   10     9    11    1
   11    11    12    1
   12    11    13    1
   13    11    14    1
   14    14    15    1
   15    14    16    1
   16    14    17    1
@<TRIPOS>SUBSTRUCTURE
       1 MOL1            1 RESIDUE      1      MOL     
@<SCITEGIC>MOL_PROPERTY
VConf Rank
SciTegic.value.IntegerValue
994

@<SCITEGIC>MOL_PROPERTY
Conf_Id
SciTegic.value.IntegerValue
7

@<SCITEGIC>MOL_PROPERTY
Delta U+W
SciTegic.value.DoubleValue
-0.041

@<SCITEGIC>MOL_PROPERTY
U+W
SciTegic.value.DoubleValue
-49.468

@<SCITEGIC>MOL_PROPERTY
Grad RMS
SciTegic.value.DoubleValue
0.000000

@<SCITEGIC>MOL_PROPERTY
U
SciTegic.value.DoubleValue
14.121

@<SCITEGIC>MOL_PROPERTY
W
SciTegic.value.DoubleValue
-63.589

@<SCITEGIC>MOL_PROPERTY
W(PB)
SciTegic.value.DoubleValue
-65.660

@<SCITEGIC>MOL_PROPERTY
W(SA)
SciTegic.value.DoubleValue
2.071

@<SCITEGIC>MOL_PROPERTY
Valence
SciTegic.value.DoubleValue
15.230

@<SCITEGIC>MOL_PROPERTY
Coulomb
SciTegic.value.DoubleValue
-1.333

@<SCITEGIC>MOL_PROPERTY
VdW
SciTegic.value.DoubleValue
0.224

@<SCITEGIC>MOL_PROPERTY
VdW6
SciTegic.value.DoubleValue
-4.212

@<SCITEGIC>MOL_PROPERTY
VdW12
SciTegic.value.DoubleValue
4.436

@<SCITEGIC>MOL_PROPERTY
Bond
SciTegic.value.DoubleValue
0.044

@<SCITEGIC>MOL_PROPERTY
Angle
SciTegic.value.DoubleValue
2.230

@<SCITEGIC>MOL_PROPERTY
Pdih
SciTegic.value.DoubleValue
12.956

@<SCITEGIC>MOL_PROPERTY
Idih
SciTegic.value.DoubleValue
0.000

@<SCITEGIC>MOL_PROPERTY
Tether
SciTegic.value.DoubleValue
0.000

@<TRIPOS>MOLECULE
guest-s20_confgen4.mol2 : confsearch ligand conformer 995
          17          16           1
SMALL
USER_CHARGES
 
@<TRIPOS>ATOM
       1    C1      17.507917   18.449983   22.540633 C.2        1 MOL1         0.6132
       2    O1      17.248703   18.872952   23.650091 O.co2      1 MOL1        -0.6749
       3    O2      17.354552   17.290092   22.211675 O.co2      1 MOL1        -0.6749
       4    C2      18.027467   19.433412   21.496357 C.3        1 MOL1        -0.1955
       5    H1      17.576359   20.411267   21.701470 H          1 MOL1         0.0733
       6    H2      17.639885   19.121639   20.519475 H          1 MOL1         0.0733
       7    C3      19.541200   19.575265   21.423115 C.2        1 MOL1        -0.1395
       8    H3      19.890534   20.281876   20.671309 H          1 MOL1         0.0816
       9    C4      20.429968   18.924816   22.183381 C.2        1 MOL1        -0.1394
      10    H4      20.107240   18.213732   22.942946 H          1 MOL1         0.0816
      11    C5      21.927894   19.101253   22.069241 C.3        1 MOL1        -0.1826
      12    H5      22.414975   18.117450   22.031772 H          1 MOL1         0.0736
      13    H6      22.184913   19.615915   21.133176 H          1 MOL1         0.0736
      14    C6      22.483184   19.904247   23.261671 C.3        1 MOL1        -0.2882
      15    H7      23.570441   20.027999   23.174384 H          1 MOL1         0.0749
      16    H8      22.028728   20.902860   23.304528 H          1 MOL1         0.0749
      17    H9      22.273445   19.392312   24.210032 H          1 MOL1         0.0749
@<TRIPOS>BOND
    1     1     2    1
    2     1     3    2
    3     1     4    1
    4     4     5    1
    5     4     6    1
    6     4     7    1
    7     7     8    1
    8     7     9    2
    9     9    10    1
   10     9    11    1
   11    11    12    1
   12    11    13    1
   13    11    14    1
   14    14    15    1
   15    14    16    1
   16    14    17    1
@<TRIPOS>SUBSTRUCTURE
       1 MOL1            1 RESIDUE      1      MOL     
@<SCITEGIC>MOL_PROPERTY
VConf Rank
SciTegic.value.IntegerValue
995

@<SCITEGIC>MOL_PROPERTY
Conf_Id
SciTegic.value.IntegerValue
39

@<SCITEGIC>MOL_PROPERTY
Delta U+W
SciTegic.value.DoubleValue
-0.422

@<SCITEGIC>MOL_PROPERTY
U+W
SciTegic.value.DoubleValue
-49.849

@<SCITEGIC>MOL_PROPERTY
Grad RMS
SciTegic.value.DoubleValue
0.000000

@<SCITEGIC>MOL_PROPERTY
U
SciTegic.value.DoubleValue
14.465

@<SCITEGIC>MOL_PROPERTY
W
SciTegic.value.DoubleValue
-64.314

@<SCITEGIC>MOL_PROPERTY
W(PB)
SciTegic.value.DoubleValue
-66.406

@<SCITEGIC>MOL_PROPERTY
W(SA)
SciTegic.value.DoubleValue
2.093

@<SCITEGIC>MOL_PROPERTY
Valence
SciTegic.value.DoubleValue
14.072

@<SCITEGIC>MOL_PROPERTY
Coulomb
SciTegic.value.DoubleValue
-0.199

@<SCITEGIC>MOL_PROPERTY
VdW
SciTegic.value.DoubleValue
0.592

@<SCITEGIC>MOL_PROPERTY
VdW6
SciTegic.value.DoubleValue
-5.019

@<SCITEGIC>MOL_PROPERTY
VdW12
SciTegic.value.DoubleValue
5.611

@<SCITEGIC>MOL_PROPERTY
Bond
SciTegic.value.DoubleValue
0.085

@<SCITEGIC>MOL_PROPERTY
Angle
SciTegic.value.DoubleValue
2.748

@<SCITEGIC>MOL_PROPERTY
Pdih
SciTegic.value.DoubleValue
11.238

@<SCITEGIC>MOL_PROPERTY
Idih
SciTegic.value.DoubleValue
0.001

@<SCITEGIC>MOL_PROPERTY
Tether
SciTegic.value.DoubleValue
0.000

@<TRIPOS>MOLECULE
guest-s20_confgen4.mol2 : confsearch ligand conformer 996
          17          16           1
SMALL
USER_CHARGES
 
@<TRIPOS>ATOM
       1    C1      18.564694   19.592524   24.849432 C.2        1 MOL1         0.6132
       2    O1      18.025222   20.663364   25.047503 O.co2      1 MOL1        -0.6749
       3    O2      19.150229   18.965670   25.710258 O.co2      1 MOL1        -0.6749
       4    C2      18.497419   19.003348   23.446596 C.3        1 MOL1        -0.1955
       5    H1      17.487270   19.177454   23.058272 H          1 MOL1         0.0733
       6    H2      18.628563   17.917318   23.523930 H          1 MOL1         0.0733
       7    C3      19.526447   19.610029   22.511832 C.2        1 MOL1        -0.1395
       8    H3      19.364540   20.657364   22.258698 H          1 MOL1         0.0816
       9    C4      20.572962   18.944795   22.013337 C.2        1 MOL1        -0.1394
      10    H4      20.735920   17.898364   22.269239 H          1 MOL1         0.0816
      11    C5      21.600145   19.552446   21.084371 C.3        1 MOL1        -0.1826
      12    H5      21.516965   20.648029   21.083236 H          1 MOL1         0.0736
      13    H6      22.610818   19.313454   21.442081 H          1 MOL1         0.0736
      14    C6      21.426336   19.026273   19.646319 C.3        1 MOL1        -0.2882
      15    H7      20.430463   19.276373   19.257362 H          1 MOL1         0.0749
      16    H8      22.174773   19.470192   18.977093 H          1 MOL1         0.0749
      17    H9      21.542947   17.935112   19.611680 H          1 MOL1         0.0749
@<TRIPOS>BOND
    1     1     2    1
    2     1     3    2
    3     1     4    1
    4     4     5    1
    5     4     6    1
    6     4     7    1
    7     7     8    1
    8     7     9    2
    9     9    10    1
   10     9    11    1
   11    11    12    1
   12    11    13    1
   13    11    14    1
   14    14    15    1
   15    14    16    1
   16    14    17    1
@<TRIPOS>SUBSTRUCTURE
       1 MOL1            1 RESIDUE      1      MOL     
@<SCITEGIC>MOL_PROPERTY
VConf Rank
SciTegic.value.IntegerValue
996

@<SCITEGIC>MOL_PROPERTY
Conf_Id
SciTegic.value.IntegerValue
38

@<SCITEGIC>MOL_PROPERTY
Delta U+W
SciTegic.value.DoubleValue
0.000

@<SCITEGIC>MOL_PROPERTY
U+W
SciTegic.value.DoubleValue
-49.427

@<SCITEGIC>MOL_PROPERTY
Grad RMS
SciTegic.value.DoubleValue
0.000000

@<SCITEGIC>MOL_PROPERTY
U
SciTegic.value.DoubleValue
13.666

@<SCITEGIC>MOL_PROPERTY
W
SciTegic.value.DoubleValue
-63.093

@<SCITEGIC>MOL_PROPERTY
W(PB)
SciTegic.value.DoubleValue
-65.225

@<SCITEGIC>MOL_PROPERTY
W(SA)
SciTegic.value.DoubleValue
2.132

@<SCITEGIC>MOL_PROPERTY
Valence
SciTegic.value.DoubleValue
15.226

@<SCITEGIC>MOL_PROPERTY
Coulomb
SciTegic.value.DoubleValue
-1.822

@<SCITEGIC>MOL_PROPERTY
VdW
SciTegic.value.DoubleValue
0.261

@<SCITEGIC>MOL_PROPERTY
VdW6
SciTegic.value.DoubleValue
-4.165

@<SCITEGIC>MOL_PROPERTY
VdW12
SciTegic.value.DoubleValue
4.426

@<SCITEGIC>MOL_PROPERTY
Bond
SciTegic.value.DoubleValue
0.044

@<SCITEGIC>MOL_PROPERTY
Angle
SciTegic.value.DoubleValue
2.229

@<SCITEGIC>MOL_PROPERTY
Pdih
SciTegic.value.DoubleValue
12.953

@<SCITEGIC>MOL_PROPERTY
Idih
SciTegic.value.DoubleValue
0.000

@<SCITEGIC>MOL_PROPERTY
Tether
SciTegic.value.DoubleValue
0.000

@<TRIPOS>MOLECULE
guest-s20_confgen4.mol2 : confsearch ligand conformer 997
          17          16           1
SMALL
USER_CHARGES
 
@<TRIPOS>ATOM
       1    C1      17.829895   18.358636   24.129962 C.2        1 MOL1         0.6132
       2    O1      17.356403   19.341633   24.665070 O.co2      1 MOL1        -0.6749
       3    O2      18.008712   17.302003   24.703120 O.co2      1 MOL1        -0.6749
       4    C2      18.215883   18.452119   22.659629 C.3        1 MOL1        -0.1955
       5    H1      17.629406   19.257590   22.201479 H          1 MOL1         0.0733
       6    H2      17.912000   17.517855   22.173507 H          1 MOL1         0.0733
       7    C3      19.702177   18.682140   22.462744 C.2        1 MOL1        -0.1395
       8    H3      20.343598   17.849086   22.748752 H          1 MOL1         0.0816
       9    C4      20.229970   19.810748   21.979105 C.2        1 MOL1        -0.1394
      10    H4      19.588208   20.644546   21.696291 H          1 MOL1         0.0816
      11    C5      21.712543   20.039799   21.787181 C.3        1 MOL1        -0.1826
      12    H5      21.996189   21.010558   22.215789 H          1 MOL1         0.0736
      13    H6      22.292148   19.276491   22.324432 H          1 MOL1         0.0736
      14    C6      22.088997   20.008179   20.293078 C.3        1 MOL1        -0.2882
      15    H7      21.551801   20.787815   19.737184 H          1 MOL1         0.0749
      16    H8      23.165731   20.175653   20.160103 H          1 MOL1         0.0749
      17    H9      21.837863   19.036252   19.848232 H          1 MOL1         0.0749
@<TRIPOS>BOND
    1     1     2    1
    2     1     3    2
    3     1     4    1
    4     4     5    1
    5     4     6    1
    6     4     7    1
    7     7     8    1
    8     7     9    2
    9     9    10    1
   10     9    11    1
   11    11    12    1
   12    11    13    1
   13    11    14    1
   14    14    15    1
   15    14    16    1
   16    14    17    1
@<TRIPOS>SUBSTRUCTURE
       1 MOL1            1 RESIDUE      1      MOL     
@<SCITEGIC>MOL_PROPERTY
VConf Rank
SciTegic.value.IntegerValue
997

@<SCITEGIC>MOL_PROPERTY
Conf_Id
SciTegic.value.IntegerValue
35

@<SCITEGIC>MOL_PROPERTY
Delta U+W
SciTegic.value.DoubleValue
-0.102

@<SCITEGIC>MOL_PROPERTY
U+W
SciTegic.value.DoubleValue
-49.529

@<SCITEGIC>MOL_PROPERTY
Grad RMS
SciTegic.value.DoubleValue
0.000000

@<SCITEGIC>MOL_PROPERTY
U
SciTegic.value.DoubleValue
13.666

@<SCITEGIC>MOL_PROPERTY
W
SciTegic.value.DoubleValue
-63.195

@<SCITEGIC>MOL_PROPERTY
W(PB)
SciTegic.value.DoubleValue
-65.299

@<SCITEGIC>MOL_PROPERTY
W(SA)
SciTegic.value.DoubleValue
2.103

@<SCITEGIC>MOL_PROPERTY
Valence
SciTegic.value.DoubleValue
15.226

@<SCITEGIC>MOL_PROPERTY
Coulomb
SciTegic.value.DoubleValue
-1.822

@<SCITEGIC>MOL_PROPERTY
VdW
SciTegic.value.DoubleValue
0.261

@<SCITEGIC>MOL_PROPERTY
VdW6
SciTegic.value.DoubleValue
-4.165

@<SCITEGIC>MOL_PROPERTY
VdW12
SciTegic.value.DoubleValue
4.426

@<SCITEGIC>MOL_PROPERTY
Bond
SciTegic.value.DoubleValue
0.044

@<SCITEGIC>MOL_PROPERTY
Angle
SciTegic.value.DoubleValue
2.229

@<SCITEGIC>MOL_PROPERTY
Pdih
SciTegic.value.DoubleValue
12.953

@<SCITEGIC>MOL_PROPERTY
Idih
SciTegic.value.DoubleValue
0.000

@<SCITEGIC>MOL_PROPERTY
Tether
SciTegic.value.DoubleValue
0.000

@<TRIPOS>MOLECULE
guest-s20_confgen4.mol2 : confsearch ligand conformer 998
          17          16           1
SMALL
USER_CHARGES
 
@<TRIPOS>ATOM
       1    C1      21.665839   16.624128   21.497357 C.2        1 MOL1         0.6132
       2    O1      22.851795   16.858689   21.373021 O.co2      1 MOL1        -0.6749
       3    O2      21.230376   15.667609   22.107516 O.co2      1 MOL1        -0.6749
       4    C2      20.673191   17.576842   20.844149 C.3        1 MOL1        -0.1955
       5    H1      19.737519   17.031655   20.671307 H          1 MOL1         0.0733
       6    H2      21.070532   17.851266   19.860116 H          1 MOL1         0.0733
       7    C3      20.432638   18.823477   21.674474 C.2        1 MOL1        -0.1395
       8    H3      21.289151   19.491111   21.750243 H          1 MOL1         0.0816
       9    C4      19.272950   19.104224   22.281941 C.2        1 MOL1        -0.1394
      10    H4      18.438846   18.409701   22.187106 H          1 MOL1         0.0816
      11    C5      18.964844   20.327594   23.128716 C.3        1 MOL1        -0.1826
      12    H5      18.101923   20.852296   22.696788 H          1 MOL1         0.0736
      13    H6      18.641431   19.998678   24.125581 H          1 MOL1         0.0736
      14    C6      20.134219   21.324922   23.283395 C.3        1 MOL1        -0.2882
      15    H7      20.449130   21.717304   22.307552 H          1 MOL1         0.0749
      16    H8      19.833517   22.176857   23.906945 H          1 MOL1         0.0749
      17    H9      20.998963   20.846768   23.762014 H          1 MOL1         0.0749
@<TRIPOS>BOND
    1     1     2    1
    2     1     3    2
    3     1     4    1
    4     4     5    1
    5     4     6    1
    6     4     7    1
    7     7     8    1
    8     7     9    2
    9     9    10    1
   10     9    11    1
   11    11    12    1
   12    11    13    1
   13    11    14    1
   14    14    15    1
   15    14    16    1
   16    14    17    1
@<TRIPOS>SUBSTRUCTURE
       1 MOL1            1 RESIDUE      1      MOL     
@<SCITEGIC>MOL_PROPERTY
VConf Rank
SciTegic.value.IntegerValue
998

@<SCITEGIC>MOL_PROPERTY
Conf_Id
SciTegic.value.IntegerValue
19

@<SCITEGIC>MOL_PROPERTY
Delta U+W
SciTegic.value.DoubleValue
-0.496

@<SCITEGIC>MOL_PROPERTY
U+W
SciTegic.value.DoubleValue
-49.923

@<SCITEGIC>MOL_PROPERTY
Grad RMS
SciTegic.value.DoubleValue
0.000000

@<SCITEGIC>MOL_PROPERTY
U
SciTegic.value.DoubleValue
13.863

@<SCITEGIC>MOL_PROPERTY
W
SciTegic.value.DoubleValue
-63.786

@<SCITEGIC>MOL_PROPERTY
W(PB)
SciTegic.value.DoubleValue
-65.856

@<SCITEGIC>MOL_PROPERTY
W(SA)
SciTegic.value.DoubleValue
2.070

@<SCITEGIC>MOL_PROPERTY
Valence
SciTegic.value.DoubleValue
14.117

@<SCITEGIC>MOL_PROPERTY
Coulomb
SciTegic.value.DoubleValue
-1.228

@<SCITEGIC>MOL_PROPERTY
VdW
SciTegic.value.DoubleValue
0.974

@<SCITEGIC>MOL_PROPERTY
VdW6
SciTegic.value.DoubleValue
-4.885

@<SCITEGIC>MOL_PROPERTY
VdW12
SciTegic.value.DoubleValue
5.859

@<SCITEGIC>MOL_PROPERTY
Bond
SciTegic.value.DoubleValue
0.094

@<SCITEGIC>MOL_PROPERTY
Angle
SciTegic.value.DoubleValue
2.818

@<SCITEGIC>MOL_PROPERTY
Pdih
SciTegic.value.DoubleValue
11.205

@<SCITEGIC>MOL_PROPERTY
Idih
SciTegic.value.DoubleValue
0.000

@<SCITEGIC>MOL_PROPERTY
Tether
SciTegic.value.DoubleValue
0.000

@<TRIPOS>MOLECULE
guest-s20_confgen4.mol2 : confsearch ligand conformer 999
          17          16           1
SMALL
USER_CHARGES
 
@<TRIPOS>ATOM
       1    C1      20.210032   16.455295   20.866774 C.2        1 MOL1         0.6132
       2    O1      20.409401   16.765602   19.708856 O.co2      1 MOL1        -0.6749
       3    O2      20.808739   15.564118   21.436296 O.co2      1 MOL1        -0.6749
       4    C2      19.144826   17.216119   21.645434 C.3        1 MOL1        -0.1955
       5    H1      18.577529   16.487404   22.235887 H          1 MOL1         0.0733
       6    H2      18.445954   17.660441   20.926539 H          1 MOL1         0.0733
       7    C3      19.736302   18.276164   22.554952 C.2        1 MOL1        -0.1395
       8    H3      20.320554   17.896740   23.392748 H          1 MOL1         0.0816
       9    C4      19.583498   19.591516   22.374072 C.2        1 MOL1        -0.1394
      10    H4      19.003476   19.970452   21.533215 H          1 MOL1         0.0816
      11    C5      20.176584   20.646940   23.280528 C.3        1 MOL1        -0.1826
      12    H5      19.406742   21.384746   23.544172 H          1 MOL1         0.0736
      13    H6      20.517828   20.196669   24.222875 H          1 MOL1         0.0736
      14    C6      21.360120   21.360488   22.598559 C.3        1 MOL1        -0.2882
      15    H7      21.038794   21.853489   21.671669 H          1 MOL1         0.0749
      16    H8      21.786950   22.124907   23.260788 H          1 MOL1         0.0749
      17    H9      22.154250   20.644919   22.347558 H          1 MOL1         0.0749
@<TRIPOS>BOND
    1     1     2    1
    2     1     3    2
    3     1     4    1
    4     4     5    1
    5     4     6    1
    6     4     7    1
    7     7     8    1
    8     7     9    2
    9     9    10    1
   10     9    11    1
   11    11    12    1
   12    11    13    1
   13    11    14    1
   14    14    15    1
   15    14    16    1
   16    14    17    1
@<TRIPOS>SUBSTRUCTURE
       1 MOL1            1 RESIDUE      1      MOL     
@<SCITEGIC>MOL_PROPERTY
VConf Rank
SciTegic.value.IntegerValue
999

@<SCITEGIC>MOL_PROPERTY
Conf_Id
SciTegic.value.IntegerValue
7

@<SCITEGIC>MOL_PROPERTY
Delta U+W
SciTegic.value.DoubleValue
-0.041

@<SCITEGIC>MOL_PROPERTY
U+W
SciTegic.value.DoubleValue
-49.468

@<SCITEGIC>MOL_PROPERTY
Grad RMS
SciTegic.value.DoubleValue
0.000000

@<SCITEGIC>MOL_PROPERTY
U
SciTegic.value.DoubleValue
14.121

@<SCITEGIC>MOL_PROPERTY
W
SciTegic.value.DoubleValue
-63.589

@<SCITEGIC>MOL_PROPERTY
W(PB)
SciTegic.value.DoubleValue
-65.660

@<SCITEGIC>MOL_PROPERTY
W(SA)
SciTegic.value.DoubleValue
2.071

@<SCITEGIC>MOL_PROPERTY
Valence
SciTegic.value.DoubleValue
15.230

@<SCITEGIC>MOL_PROPERTY
Coulomb
SciTegic.value.DoubleValue
-1.333

@<SCITEGIC>MOL_PROPERTY
VdW
SciTegic.value.DoubleValue
0.224

@<SCITEGIC>MOL_PROPERTY
VdW6
SciTegic.value.DoubleValue
-4.212

@<SCITEGIC>MOL_PROPERTY
VdW12
SciTegic.value.DoubleValue
4.436

@<SCITEGIC>MOL_PROPERTY
Bond
SciTegic.value.DoubleValue
0.044

@<SCITEGIC>MOL_PROPERTY
Angle
SciTegic.value.DoubleValue
2.230

@<SCITEGIC>MOL_PROPERTY
Pdih
SciTegic.value.DoubleValue
12.956

@<SCITEGIC>MOL_PROPERTY
Idih
SciTegic.value.DoubleValue
0.000

@<SCITEGIC>MOL_PROPERTY
Tether
SciTegic.value.DoubleValue
0.000

@<TRIPOS>MOLECULE
guest-s20_confgen4.mol2 : confsearch ligand conformer 1000
          17          16           1
SMALL
USER_CHARGES
 
@<TRIPOS>ATOM
       1    C1      17.425813   19.707486   22.621206 C.2        1 MOL1         0.6132
       2    O1      17.059629   18.604006   22.975091 O.co2      1 MOL1        -0.6749
       3    O2      16.932338   20.311677   21.689264 O.co2      1 MOL1        -0.6749
       4    C2      18.546393   20.382424   23.406277 C.3        1 MOL1        -0.1955
       5    H1      18.470140   20.055385   24.449829 H          1 MOL1         0.0733
       6    H2      18.349124   21.460736   23.413185 H          1 MOL1         0.0733
       7    C3      19.955923   20.124830   22.892714 C.2        1 MOL1        -0.1395
       8    H3      20.740339   20.615876   23.467268 H          1 MOL1         0.0816
       9    C4      20.282758   19.371249   21.836168 C.2        1 MOL1        -0.1394
      10    H4      19.517978   18.868601   21.245245 H          1 MOL1         0.0816
      11    C5      21.702773   19.148033   21.365345 C.3        1 MOL1        -0.1826
      12    H5      21.763016   19.309322   20.280506 H          1 MOL1         0.0736
      13    H6      22.381684   19.876085   21.830289 H          1 MOL1         0.0736
      14    C6      22.178992   17.720986   21.699697 C.3        1 MOL1        -0.2882
      15    H7      23.209237   17.564173   21.354639 H          1 MOL1         0.0749
      16    H8      22.151774   17.544858   22.783132 H          1 MOL1         0.0749
      17    H9      21.539496   16.971345   21.215402 H          1 MOL1         0.0749
@<TRIPOS>BOND
    1     1     2    1
    2     1     3    2
    3     1     4    1
    4     4     5    1
    5     4     6    1
    6     4     7    1
    7     7     8    1
    8     7     9    2
    9     9    10    1
   10     9    11    1
   11    11    12    1
   12    11    13    1
   13    11    14    1
   14    14    15    1
   15    14    16    1
   16    14    17    1
@<TRIPOS>SUBSTRUCTURE
       1 MOL1            1 RESIDUE      1      MOL     
@<SCITEGIC>MOL_PROPERTY
VConf Rank
SciTegic.value.IntegerValue
1000

@<SCITEGIC>MOL_PROPERTY
Conf_Id
SciTegic.value.IntegerValue
39

@<SCITEGIC>MOL_PROPERTY
Delta U+W
SciTegic.value.DoubleValue
-0.422

@<SCITEGIC>MOL_PROPERTY
U+W
SciTegic.value.DoubleValue
-49.849

@<SCITEGIC>MOL_PROPERTY
Grad RMS
SciTegic.value.DoubleValue
0.000000

@<SCITEGIC>MOL_PROPERTY
U
SciTegic.value.DoubleValue
14.465

@<SCITEGIC>MOL_PROPERTY
W
SciTegic.value.DoubleValue
-64.314

@<SCITEGIC>MOL_PROPERTY
W(PB)
SciTegic.value.DoubleValue
-66.406

@<SCITEGIC>MOL_PROPERTY
W(SA)
SciTegic.value.DoubleValue
2.093

@<SCITEGIC>MOL_PROPERTY
Valence
SciTegic.value.DoubleValue
14.072

@<SCITEGIC>MOL_PROPERTY
Coulomb
SciTegic.value.DoubleValue
-0.199

@<SCITEGIC>MOL_PROPERTY
VdW
SciTegic.value.DoubleValue
0.592

@<SCITEGIC>MOL_PROPERTY
VdW6
SciTegic.value.DoubleValue
-5.019

@<SCITEGIC>MOL_PROPERTY
VdW12
SciTegic.value.DoubleValue
5.611

@<SCITEGIC>MOL_PROPERTY
Bond
SciTegic.value.DoubleValue
0.085

@<SCITEGIC>MOL_PROPERTY
Angle
SciTegic.value.DoubleValue
2.748

@<SCITEGIC>MOL_PROPERTY
Pdih
SciTegic.value.DoubleValue
11.238

@<SCITEGIC>MOL_PROPERTY
Idih
SciTegic.value.DoubleValue
0.001

@<SCITEGIC>MOL_PROPERTY
Tether
SciTegic.value.DoubleValue
0.000

