VeraChem MOL file


 19 18  0  0  0  0  0  0  0  0999 V2000     
   19.9539   19.2771   25.5145 C   0  0  0  0  0  0  0  0  0  0  0  0
   20.6501   18.4763   26.1064 O   0  5  0  0  0  0  0  0  0  0  0  0
   19.7318   20.4018   25.9167 O   0  0  0  0  0  0  0  0  0  0  0  0
   19.3419   18.8541   24.1837 C   0  0  0  0  0  0  0  0  0  0  0  0
   18.3779   19.3653   24.0741 H   0  0  0  0  0  0  0  0  0  0  0  0
   19.1347   17.7782   24.2304 H   0  0  0  0  0  0  0  0  0  0  0  0
   20.2549   19.1703   22.9735 C   0  0  0  0  0  0  0  0  0  0  0  0
   20.4633   20.2489   22.9483 H   0  0  0  0  0  0  0  0  0  0  0  0
   21.2201   18.6617   23.1046 H   0  0  0  0  0  0  0  0  0  0  0  0
   19.6128   18.7327   21.6394 C   0  0  0  0  0  0  0  0  0  0  0  0
   18.6474   19.2417   21.5120 H   0  0  0  0  0  0  0  0  0  0  0  0
   19.4045   17.6543   21.6682 H   0  0  0  0  0  0  0  0  0  0  0  0
   20.5244   19.0490   20.4356 C   0  0  0  0  0  0  0  0  0  0  0  0
   20.7334   20.1273   20.4021 H   0  0  0  0  0  0  0  0  0  0  0  0
   21.4905   18.5401   20.5584 H   0  0  0  0  0  0  0  0  0  0  0  0
   19.8802   18.6107   19.1052 C   0  0  0  0  0  0  0  0  0  0  0  0
   18.9261   19.1287   18.9413 H   0  0  0  0  0  0  0  0  0  0  0  0
   20.5415   18.8430   18.2602 H   0  0  0  0  0  0  0  0  0  0  0  0
   19.6890   17.5296   19.0988 H   0  0  0  0  0  0  0  0  0  0  0  0
  1  2  1  0  0  0  0
  1  3  2  0  0  0  0
  1  4  1  0  0  0  0
  4  5  1  0  0  0  0
  4  6  1  0  0  0  0
  4  7  1  0  0  0  0
  7  8  1  0  0  0  0
  7  9  1  0  0  0  0
  7 10  1  0  0  0  0
 10 11  1  0  0  0  0
 10 12  1  0  0  0  0
 10 13  1  0  0  0  0
 13 14  1  0  0  0  0
 13 15  1  0  0  0  0
 13 16  1  0  0  0  0
 16 17  1  0  0  0  0
 16 18  1  0  0  0  0
 16 19  1  0  0  0  0
M  END
> <VM2 Rank>
1

> <Conf_Id>
69

> <Probability>
41.09

> <Sum Probability>
41.09

> <Delta G>
0.000

> <G>
-26.151

> <E>
-40.888

> <-TS>
14.737

> <U+W>
-56.091

> <U>
5.975

> <W>
-62.065

> <W(PB)>
-64.218

> <W(SA)>
2.153

> <Valence>
6.673

> <Coulomb>
-1.307

> <VdW>
0.610

> <VdW6>
-5.351

> <VdW12>
5.961

> <Bond>
0.086

> <Angle>
2.253

> <Pdih>
4.333

> <Idih>
0.001

> <Tether>
0.000

$$$$
VeraChem MOL file


 19 18  0  0  0  0  0  0  0  0999 V2000     
   19.8292   19.3145   25.3695 C   0  0  0  0  0  0  0  0  0  0  0  0
   20.1457   18.4558   26.1687 O   0  5  0  0  0  0  0  0  0  0  0  0
   19.7258   20.4915   25.6530 O   0  0  0  0  0  0  0  0  0  0  0  0
   19.5682   18.8951   23.9272 C   0  0  0  0  0  0  0  0  0  0  0  0
   18.7936   19.5563   23.5227 H   0  0  0  0  0  0  0  0  0  0  0  0
   19.1561   17.8789   23.9375 H   0  0  0  0  0  0  0  0  0  0  0  0
   20.8442   18.9457   23.0471 C   0  0  0  0  0  0  0  0  0  0  0  0
   21.2224   19.9765   23.0081 H   0  0  0  0  0  0  0  0  0  0  0  0
   21.6285   18.3456   23.5289 H   0  0  0  0  0  0  0  0  0  0  0  0
   20.6256   18.4141   21.6108 C   0  0  0  0  0  0  0  0  0  0  0  0
   20.2556   17.3804   21.6531 H   0  0  0  0  0  0  0  0  0  0  0  0
   21.5983   18.3753   21.1016 H   0  0  0  0  0  0  0  0  0  0  0  0
   19.6561   19.2805   20.7759 C   0  0  0  0  0  0  0  0  0  0  0  0
   18.6553   19.2710   21.2273 H   0  0  0  0  0  0  0  0  0  0  0  0
   19.9984   20.3246   20.7759 H   0  0  0  0  0  0  0  0  0  0  0  0
   19.5552   18.7749   19.3229 C   0  0  0  0  0  0  0  0  0  0  0  0
   19.1885   17.7405   19.2918 H   0  0  0  0  0  0  0  0  0  0  0  0
   18.8613   19.3981   18.7439 H   0  0  0  0  0  0  0  0  0  0  0  0
   20.5340   18.8069   18.8265 H   0  0  0  0  0  0  0  0  0  0  0  0
  1  2  1  0  0  0  0
  1  3  2  0  0  0  0
  1  4  1  0  0  0  0
  4  5  1  0  0  0  0
  4  6  1  0  0  0  0
  4  7  1  0  0  0  0
  7  8  1  0  0  0  0
  7  9  1  0  0  0  0
  7 10  1  0  0  0  0
 10 11  1  0  0  0  0
 10 12  1  0  0  0  0
 10 13  1  0  0  0  0
 13 14  1  0  0  0  0
 13 15  1  0  0  0  0
 13 16  1  0  0  0  0
 16 17  1  0  0  0  0
 16 18  1  0  0  0  0
 16 19  1  0  0  0  0
M  END
> <VM2 Rank>
2

> <Conf_Id>
319

> <Probability>
11.82

> <Sum Probability>
52.92

> <Delta G>
0.743

> <G>
-25.408

> <E>
-40.254

> <-TS>
14.845

> <U+W>
-55.456

> <U>
6.914

> <W>
-62.370

> <W(PB)>
-64.446

> <W(SA)>
2.076

> <Valence>
7.196

> <Coulomb>
-1.020

> <VdW>
0.738

> <VdW6>
-6.010

> <VdW12>
6.749

> <Bond>
0.126

> <Angle>
2.499

> <Pdih>
4.570

> <Idih>
0.001

> <Tether>
0.000

$$$$
VeraChem MOL file


 19 18  0  0  0  0  0  0  0  0999 V2000     
   20.1747   19.3731   25.3607 C   0  0  0  0  0  0  0  0  0  0  0  0
   20.1982   18.4647   26.1673 O   0  5  0  0  0  0  0  0  0  0  0  0
   19.8984   20.5207   25.6485 O   0  0  0  0  0  0  0  0  0  0  0  0
   20.4875   19.0508   23.9038 C   0  0  0  0  0  0  0  0  0  0  0  0
   21.2110   18.2270   23.8852 H   0  0  0  0  0  0  0  0  0  0  0  0
   20.9803   19.9267   23.4670 H   0  0  0  0  0  0  0  0  0  0  0  0
   19.2240   18.6712   23.0884 C   0  0  0  0  0  0  0  0  0  0  0  0
   18.7057   17.8505   23.6034 H   0  0  0  0  0  0  0  0  0  0  0  0
   18.5262   19.5199   23.0768 H   0  0  0  0  0  0  0  0  0  0  0  0
   19.5341   18.2292   21.6386 C   0  0  0  0  0  0  0  0  0  0  0  0
   18.6043   17.8682   21.1778 H   0  0  0  0  0  0  0  0  0  0  0  0
   20.2252   17.3753   21.6539 H   0  0  0  0  0  0  0  0  0  0  0  0
   20.1218   19.3594   20.7641 C   0  0  0  0  0  0  0  0  0  0  0  0
   19.4553   20.2326   20.7896 H   0  0  0  0  0  0  0  0  0  0  0  0
   21.0910   19.6836   21.1652 H   0  0  0  0  0  0  0  0  0  0  0  0
   20.3114   18.9029   19.3036 C   0  0  0  0  0  0  0  0  0  0  0  0
   20.9962   18.0467   19.2458 H   0  0  0  0  0  0  0  0  0  0  0  0
   19.3534   18.6068   18.8565 H   0  0  0  0  0  0  0  0  0  0  0  0
   20.7319   19.7149   18.6962 H   0  0  0  0  0  0  0  0  0  0  0  0
  1  2  1  0  0  0  0
  1  3  2  0  0  0  0
  1  4  1  0  0  0  0
  4  5  1  0  0  0  0
  4  6  1  0  0  0  0
  4  7  1  0  0  0  0
  7  8  1  0  0  0  0
  7  9  1  0  0  0  0
  7 10  1  0  0  0  0
 10 11  1  0  0  0  0
 10 12  1  0  0  0  0
 10 13  1  0  0  0  0
 13 14  1  0  0  0  0
 13 15  1  0  0  0  0
 13 16  1  0  0  0  0
 16 17  1  0  0  0  0
 16 18  1  0  0  0  0
 16 19  1  0  0  0  0
M  END
> <VM2 Rank>
3

> <Conf_Id>
33

> <Probability>
11.08

> <Sum Probability>
64.00

> <Delta G>
0.781

> <G>
-25.370

> <E>
-40.215

> <-TS>
14.846

> <U+W>
-55.418

> <U>
6.914

> <W>
-62.332

> <W(PB)>
-64.421

> <W(SA)>
2.090

> <Valence>
7.196

> <Coulomb>
-1.020

> <VdW>
0.738

> <VdW6>
-6.010

> <VdW12>
6.748

> <Bond>
0.126

> <Angle>
2.499

> <Pdih>
4.570

> <Idih>
0.001

> <Tether>
0.000

$$$$
VeraChem MOL file


 19 18  0  0  0  0  0  0  0  0999 V2000     
   20.0106   19.3758   25.3743 C   0  0  0  0  0  0  0  0  0  0  0  0
   20.8026   18.7067   26.0078 O   0  5  0  0  0  0  0  0  0  0  0  0
   19.7500   20.5339   25.6333 O   0  0  0  0  0  0  0  0  0  0  0  0
   19.3188   18.7319   24.1779 C   0  0  0  0  0  0  0  0  0  0  0  0
   18.3202   19.1751   24.0821 H   0  0  0  0  0  0  0  0  0  0  0  0
   19.1808   17.6663   24.3972 H   0  0  0  0  0  0  0  0  0  0  0  0
   20.1097   18.9084   22.8581 C   0  0  0  0  0  0  0  0  0  0  0  0
   20.2514   19.9808   22.6695 H   0  0  0  0  0  0  0  0  0  0  0  0
   21.1098   18.4682   22.9730 H   0  0  0  0  0  0  0  0  0  0  0  0
   19.3840   18.2496   21.6623 C   0  0  0  0  0  0  0  0  0  0  0  0
   18.4036   18.7236   21.5170 H   0  0  0  0  0  0  0  0  0  0  0  0
   19.1879   17.1951   21.9001 H   0  0  0  0  0  0  0  0  0  0  0  0
   20.1897   18.3139   20.3443 C   0  0  0  0  0  0  0  0  0  0  0  0
   21.1690   17.8355   20.4840 H   0  0  0  0  0  0  0  0  0  0  0  0
   19.6632   17.7255   19.5802 H   0  0  0  0  0  0  0  0  0  0  0  0
   20.3846   19.7519   19.8170 C   0  0  0  0  0  0  0  0  0  0  0  0
   20.8828   19.7377   18.8389 H   0  0  0  0  0  0  0  0  0  0  0  0
   19.4193   20.2607   19.6972 H   0  0  0  0  0  0  0  0  0  0  0  0
   21.0061   20.3474   20.4973 H   0  0  0  0  0  0  0  0  0  0  0  0
  1  2  1  0  0  0  0
  1  3  2  0  0  0  0
  1  4  1  0  0  0  0
  4  5  1  0  0  0  0
  4  6  1  0  0  0  0
  4  7  1  0  0  0  0
  7  8  1  0  0  0  0
  7  9  1  0  0  0  0
  7 10  1  0  0  0  0
 10 11  1  0  0  0  0
 10 12  1  0  0  0  0
 10 13  1  0  0  0  0
 13 14  1  0  0  0  0
 13 15  1  0  0  0  0
 13 16  1  0  0  0  0
 16 17  1  0  0  0  0
 16 18  1  0  0  0  0
 16 19  1  0  0  0  0
M  END
> <VM2 Rank>
4

> <Conf_Id>
201

> <Probability>
9.42

> <Sum Probability>
73.42

> <Delta G>
0.878

> <G>
-25.273

> <E>
-40.126

> <-TS>
14.853

> <U+W>
-55.328

> <U>
7.244

> <W>
-62.571

> <W(PB)>
-64.666

> <W(SA)>
2.094

> <Valence>
7.174

> <Coulomb>
-0.669

> <VdW>
0.739

> <VdW6>
-5.969

> <VdW12>
6.708

> <Bond>
0.116

> <Angle>
2.481

> <Pdih>
4.576

> <Idih>
0.000

> <Tether>
0.000

$$$$
VeraChem MOL file


 19 18  0  0  0  0  0  0  0  0999 V2000     
   19.8729   19.2877   25.3817 C   0  0  0  0  0  0  0  0  0  0  0  0
   20.1970   18.3193   26.0401 O   0  5  0  0  0  0  0  0  0  0  0  0
   18.9514   20.0230   25.6757 O   0  0  0  0  0  0  0  0  0  0  0  0
   20.6539   19.5859   24.1067 C   0  0  0  0  0  0  0  0  0  0  0  0
   21.6934   19.2734   24.2632 H   0  0  0  0  0  0  0  0  0  0  0  0
   20.6609   20.6723   23.9573 H   0  0  0  0  0  0  0  0  0  0  0  0
   20.0649   18.8797   22.8606 C   0  0  0  0  0  0  0  0  0  0  0  0
   20.0560   17.7940   23.0292 H   0  0  0  0  0  0  0  0  0  0  0  0
   19.0200   19.1930   22.7353 H   0  0  0  0  0  0  0  0  0  0  0  0
   20.8735   19.2025   21.5829 C   0  0  0  0  0  0  0  0  0  0  0  0
   21.9287   18.9485   21.7538 H   0  0  0  0  0  0  0  0  0  0  0  0
   20.8411   20.2831   21.3870 H   0  0  0  0  0  0  0  0  0  0  0  0
   20.3802   18.4359   20.3341 C   0  0  0  0  0  0  0  0  0  0  0  0
   21.0747   18.6288   19.5048 H   0  0  0  0  0  0  0  0  0  0  0  0
   20.4166   17.3542   20.5241 H   0  0  0  0  0  0  0  0  0  0  0  0
   18.9562   18.8381   19.8933 C   0  0  0  0  0  0  0  0  0  0  0  0
   18.6878   18.3335   18.9561 H   0  0  0  0  0  0  0  0  0  0  0  0
   18.2094   18.5581   20.6467 H   0  0  0  0  0  0  0  0  0  0  0  0
   18.8879   19.9209   19.7257 H   0  0  0  0  0  0  0  0  0  0  0  0
  1  2  1  0  0  0  0
  1  3  2  0  0  0  0
  1  4  1  0  0  0  0
  4  5  1  0  0  0  0
  4  6  1  0  0  0  0
  4  7  1  0  0  0  0
  7  8  1  0  0  0  0
  7  9  1  0  0  0  0
  7 10  1  0  0  0  0
 10 11  1  0  0  0  0
 10 12  1  0  0  0  0
 10 13  1  0  0  0  0
 13 14  1  0  0  0  0
 13 15  1  0  0  0  0
 13 16  1  0  0  0  0
 16 17  1  0  0  0  0
 16 18  1  0  0  0  0
 16 19  1  0  0  0  0
M  END
> <VM2 Rank>
5

> <Conf_Id>
269

> <Probability>
9.17

> <Sum Probability>
82.58

> <Delta G>
0.894

> <G>
-25.257

> <E>
-40.109

> <-TS>
14.853

> <U+W>
-55.312

> <U>
7.244

> <W>
-62.556

> <W(PB)>
-64.658

> <W(SA)>
2.103

> <Valence>
7.173

> <Coulomb>
-0.669

> <VdW>
0.739

> <VdW6>
-5.969

> <VdW12>
6.708

> <Bond>
0.116

> <Angle>
2.481

> <Pdih>
4.576

> <Idih>
0.000

> <Tether>
0.000

$$$$
VeraChem MOL file


 19 18  0  0  0  0  0  0  0  0999 V2000     
   20.1397   19.2125   25.1803 C   0  0  0  0  0  0  0  0  0  0  0  0
   20.9105   18.2974   25.3929 O   0  5  0  0  0  0  0  0  0  0  0  0
   20.3192   20.3476   25.5751 O   0  0  0  0  0  0  0  0  0  0  0  0
   18.8655   18.9176   24.3937 C   0  0  0  0  0  0  0  0  0  0  0  0
   18.0325   19.3859   24.9312 H   0  0  0  0  0  0  0  0  0  0  0  0
   18.6857   17.8357   24.4105 H   0  0  0  0  0  0  0  0  0  0  0  0
   18.8927   19.4329   22.9312 C   0  0  0  0  0  0  0  0  0  0  0  0
   17.8955   19.3035   22.4892 H   0  0  0  0  0  0  0  0  0  0  0  0
   19.1020   20.5117   22.9293 H   0  0  0  0  0  0  0  0  0  0  0  0
   19.9351   18.6960   22.0608 C   0  0  0  0  0  0  0  0  0  0  0  0
   19.7294   17.6169   22.0763 H   0  0  0  0  0  0  0  0  0  0  0  0
   20.9383   18.8349   22.4872 H   0  0  0  0  0  0  0  0  0  0  0  0
   19.9231   19.2026   20.6035 C   0  0  0  0  0  0  0  0  0  0  0  0
   18.9231   19.0623   20.1702 H   0  0  0  0  0  0  0  0  0  0  0  0
   20.1310   20.2815   20.5849 H   0  0  0  0  0  0  0  0  0  0  0  0
   20.9641   18.4654   19.7376 C   0  0  0  0  0  0  0  0  0  0  0  0
   21.9783   18.6148   20.1307 H   0  0  0  0  0  0  0  0  0  0  0  0
   20.7614   17.3867   19.7131 H   0  0  0  0  0  0  0  0  0  0  0  0
   20.9424   18.8381   18.7052 H   0  0  0  0  0  0  0  0  0  0  0  0
  1  2  1  0  0  0  0
  1  3  2  0  0  0  0
  1  4  1  0  0  0  0
  4  5  1  0  0  0  0
  4  6  1  0  0  0  0
  4  7  1  0  0  0  0
  7  8  1  0  0  0  0
  7  9  1  0  0  0  0
  7 10  1  0  0  0  0
 10 11  1  0  0  0  0
 10 12  1  0  0  0  0
 10 13  1  0  0  0  0
 13 14  1  0  0  0  0
 13 15  1  0  0  0  0
 13 16  1  0  0  0  0
 16 17  1  0  0  0  0
 16 18  1  0  0  0  0
 16 19  1  0  0  0  0
M  END
> <VM2 Rank>
6

> <Conf_Id>
278

> <Probability>
3.74

> <Sum Probability>
86.32

> <Delta G>
1.429

> <G>
-24.722

> <E>
-39.769

> <-TS>
15.047

> <U+W>
-54.971

> <U>
8.266

> <W>
-63.238

> <W(PB)>
-65.341

> <W(SA)>
2.103

> <Valence>
6.935

> <Coulomb>
0.874

> <VdW>
0.457

> <VdW6>
-6.205

> <VdW12>
6.662

> <Bond>
0.107

> <Angle>
2.420

> <Pdih>
4.407

> <Idih>
0.001

> <Tether>
0.000

$$$$
VeraChem MOL file


 19 18  0  0  0  0  0  0  0  0999 V2000     
   20.0469   19.4069   25.1612 C   0  0  0  0  0  0  0  0  0  0  0  0
   21.0055   18.9084   25.7173 O   0  5  0  0  0  0  0  0  0  0  0  0
   19.8126   20.5992   25.1659 O   0  0  0  0  0  0  0  0  0  0  0  0
   19.0739   18.4808   24.4366 C   0  0  0  0  0  0  0  0  0  0  0  0
   18.1247   19.0118   24.2945 H   0  0  0  0  0  0  0  0  0  0  0  0
   18.8677   17.6353   25.1035 H   0  0  0  0  0  0  0  0  0  0  0  0
   19.5997   17.9514   23.0771 C   0  0  0  0  0  0  0  0  0  0  0  0
   20.5641   17.4477   23.2312 H   0  0  0  0  0  0  0  0  0  0  0  0
   18.9032   17.1917   22.6972 H   0  0  0  0  0  0  0  0  0  0  0  0
   19.7563   19.0710   22.0238 C   0  0  0  0  0  0  0  0  0  0  0  0
   20.4649   19.8269   22.3895 H   0  0  0  0  0  0  0  0  0  0  0  0
   18.7928   19.5798   21.8829 H   0  0  0  0  0  0  0  0  0  0  0  0
   20.2501   18.5174   20.6709 C   0  0  0  0  0  0  0  0  0  0  0  0
   21.2151   18.0101   20.8086 H   0  0  0  0  0  0  0  0  0  0  0  0
   19.5430   17.7635   20.2982 H   0  0  0  0  0  0  0  0  0  0  0  0
   20.4051   19.6368   19.6221 C   0  0  0  0  0  0  0  0  0  0  0  0
   19.4467   20.1412   19.4416 H   0  0  0  0  0  0  0  0  0  0  0  0
   21.1312   20.3896   19.9558 H   0  0  0  0  0  0  0  0  0  0  0  0
   20.7572   19.2260   18.6670 H   0  0  0  0  0  0  0  0  0  0  0  0
  1  2  1  0  0  0  0
  1  3  2  0  0  0  0
  1  4  1  0  0  0  0
  4  5  1  0  0  0  0
  4  6  1  0  0  0  0
  4  7  1  0  0  0  0
  7  8  1  0  0  0  0
  7  9  1  0  0  0  0
  7 10  1  0  0  0  0
 10 11  1  0  0  0  0
 10 12  1  0  0  0  0
 10 13  1  0  0  0  0
 13 14  1  0  0  0  0
 13 15  1  0  0  0  0
 13 16  1  0  0  0  0
 16 17  1  0  0  0  0
 16 18  1  0  0  0  0
 16 19  1  0  0  0  0
M  END
> <VM2 Rank>
7

> <Conf_Id>
284

> <Probability>
3.73

> <Sum Probability>
90.05

> <Delta G>
1.430

> <G>
-24.721

> <E>
-39.768

> <-TS>
15.047

> <U+W>
-54.970

> <U>
8.266

> <W>
-63.236

> <W(PB)>
-65.331

> <W(SA)>
2.095

> <Valence>
6.935

> <Coulomb>
0.874

> <VdW>
0.457

> <VdW6>
-6.205

> <VdW12>
6.662

> <Bond>
0.107

> <Angle>
2.420

> <Pdih>
4.407

> <Idih>
0.001

> <Tether>
0.000

$$$$
VeraChem MOL file


 19 18  0  0  0  0  0  0  0  0999 V2000     
   20.0073   19.2236   25.5349 C   0  0  0  0  0  0  0  0  0  0  0  0
   19.9566   18.5581   26.5499 O   0  5  0  0  0  0  0  0  0  0  0  0
   20.1008   20.4358   25.5405 O   0  0  0  0  0  0  0  0  0  0  0  0
   19.9481   18.4725   24.2038 C   0  0  0  0  0  0  0  0  0  0  0  0
   19.0189   17.8906   24.1975 H   0  0  0  0  0  0  0  0  0  0  0  0
   20.7765   17.7544   24.1962 H   0  0  0  0  0  0  0  0  0  0  0  0
   20.0163   19.3645   22.9356 C   0  0  0  0  0  0  0  0  0  0  0  0
   19.1872   20.0854   22.9521 H   0  0  0  0  0  0  0  0  0  0  0  0
   20.9465   19.9491   22.9509 H   0  0  0  0  0  0  0  0  0  0  0  0
   19.9504   18.5267   21.6402 C   0  0  0  0  0  0  0  0  0  0  0  0
   19.0198   17.9429   21.6271 H   0  0  0  0  0  0  0  0  0  0  0  0
   20.7801   17.8065   21.6258 H   0  0  0  0  0  0  0  0  0  0  0  0
   20.0183   19.4152   20.3808 C   0  0  0  0  0  0  0  0  0  0  0  0
   19.1888   20.1359   20.3905 H   0  0  0  0  0  0  0  0  0  0  0  0
   20.9490   19.9995   20.3891 H   0  0  0  0  0  0  0  0  0  0  0  0
   19.9522   18.5756   19.0894 C   0  0  0  0  0  0  0  0  0  0  0  0
   19.0159   18.0044   19.0398 H   0  0  0  0  0  0  0  0  0  0  0  0
   20.0017   19.2229   18.2042 H   0  0  0  0  0  0  0  0  0  0  0  0
   20.7893   17.8669   19.0384 H   0  0  0  0  0  0  0  0  0  0  0  0
  1  2  1  0  0  0  0
  1  3  2  0  0  0  0
  1  4  1  0  0  0  0
  4  5  1  0  0  0  0
  4  6  1  0  0  0  0
  4  7  1  0  0  0  0
  7  8  1  0  0  0  0
  7  9  1  0  0  0  0
  7 10  1  0  0  0  0
 10 11  1  0  0  0  0
 10 12  1  0  0  0  0
 10 13  1  0  0  0  0
 13 14  1  0  0  0  0
 13 15  1  0  0  0  0
 13 16  1  0  0  0  0
 16 17  1  0  0  0  0
 16 18  1  0  0  0  0
 16 19  1  0  0  0  0
M  END
> <VM2 Rank>
8

> <Conf_Id>
0

> <Probability>
2.34

> <Sum Probability>
92.40

> <Delta G>
1.708

> <G>
-24.443

> <E>
-39.689

> <-TS>
15.246

> <U+W>
-54.891

> <U>
6.966

> <W>
-61.857

> <W(PB)>
-63.965

> <W(SA)>
2.108

> <Valence>
7.175

> <Coulomb>
-1.360

> <VdW>
1.151

> <VdW6>
-5.641

> <VdW12>
6.792

> <Bond>
0.119

> <Angle>
2.715

> <Pdih>
4.340

> <Idih>
0.000

> <Tether>
0.000

$$$$
VeraChem MOL file


 19 18  0  0  0  0  0  0  0  0999 V2000     
   19.8396   19.3990   25.1884 C   0  0  0  0  0  0  0  0  0  0  0  0
   20.2289   18.7002   26.1030 O   0  5  0  0  0  0  0  0  0  0  0  0
   19.6640   20.5973   25.2859 O   0  0  0  0  0  0  0  0  0  0  0  0
   19.5755   18.7387   23.8399 C   0  0  0  0  0  0  0  0  0  0  0  0
   18.7541   19.2811   23.3579 H   0  0  0  0  0  0  0  0  0  0  0  0
   19.2272   17.7153   24.0236 H   0  0  0  0  0  0  0  0  0  0  0  0
   20.8267   18.7216   22.9241 C   0  0  0  0  0  0  0  0  0  0  0  0
   21.1435   19.7522   22.7159 H   0  0  0  0  0  0  0  0  0  0  0  0
   21.6569   18.2532   23.4704 H   0  0  0  0  0  0  0  0  0  0  0  0
   20.6126   17.9505   21.5973 C   0  0  0  0  0  0  0  0  0  0  0  0
   20.3971   16.8983   21.8282 H   0  0  0  0  0  0  0  0  0  0  0  0
   21.5555   17.9502   21.0337 H   0  0  0  0  0  0  0  0  0  0  0  0
   19.4866   18.5015   20.6882 C   0  0  0  0  0  0  0  0  0  0  0  0
   19.4202   17.8693   19.7921 H   0  0  0  0  0  0  0  0  0  0  0  0
   18.5152   18.4149   21.1927 H   0  0  0  0  0  0  0  0  0  0  0  0
   19.7162   19.9633   20.2482 C   0  0  0  0  0  0  0  0  0  0  0  0
   20.6932   20.0782   19.7610 H   0  0  0  0  0  0  0  0  0  0  0  0
   18.9430   20.2758   19.5346 H   0  0  0  0  0  0  0  0  0  0  0  0
   19.6749   20.6485   21.1044 H   0  0  0  0  0  0  0  0  0  0  0  0
  1  2  1  0  0  0  0
  1  3  2  0  0  0  0
  1  4  1  0  0  0  0
  4  5  1  0  0  0  0
  4  6  1  0  0  0  0
  4  7  1  0  0  0  0
  7  8  1  0  0  0  0
  7  9  1  0  0  0  0
  7 10  1  0  0  0  0
 10 11  1  0  0  0  0
 10 12  1  0  0  0  0
 10 13  1  0  0  0  0
 13 14  1  0  0  0  0
 13 15  1  0  0  0  0
 13 16  1  0  0  0  0
 16 17  1  0  0  0  0
 16 18  1  0  0  0  0
 16 19  1  0  0  0  0
M  END
> <VM2 Rank>
9

> <Conf_Id>
22

> <Probability>
1.64

> <Sum Probability>
94.04

> <Delta G>
1.920

> <G>
-24.231

> <E>
-39.379

> <-TS>
15.148

> <U+W>
-54.582

> <U>
8.219

> <W>
-62.801

> <W(PB)>
-64.858

> <W(SA)>
2.057

> <Valence>
7.609

> <Coulomb>
-0.088

> <VdW>
0.699

> <VdW6>
-6.924

> <VdW12>
7.623

> <Bond>
0.163

> <Angle>
2.870

> <Pdih>
4.576

> <Idih>
0.001

> <Tether>
0.000

$$$$
VeraChem MOL file


 19 18  0  0  0  0  0  0  0  0999 V2000     
   20.0745   19.4634   25.1809 C   0  0  0  0  0  0  0  0  0  0  0  0
   20.1504   18.6787   26.1056 O   0  5  0  0  0  0  0  0  0  0  0  0
   19.6201   20.5852   25.2871 O   0  0  0  0  0  0  0  0  0  0  0  0
   20.5581   19.0080   23.8087 C   0  0  0  0  0  0  0  0  0  0  0  0
   21.3893   18.3080   23.9550 H   0  0  0  0  0  0  0  0  0  0  0  0
   20.9585   19.8854   23.2879 H   0  0  0  0  0  0  0  0  0  0  0  0
   19.4387   18.3411   22.9681 C   0  0  0  0  0  0  0  0  0  0  0  0
   18.9968   17.5240   23.5548 H   0  0  0  0  0  0  0  0  0  0  0  0
   18.6294   19.0630   22.7957 H   0  0  0  0  0  0  0  0  0  0  0  0
   19.9371   17.7653   21.6187 C   0  0  0  0  0  0  0  0  0  0  0  0
   19.0945   17.2756   21.1118 H   0  0  0  0  0  0  0  0  0  0  0  0
   20.6716   16.9736   21.8195 H   0  0  0  0  0  0  0  0  0  0  0  0
   20.5695   18.7983   20.6539 C   0  0  0  0  0  0  0  0  0  0  0  0
   21.4773   19.2268   21.0988 H   0  0  0  0  0  0  0  0  0  0  0  0
   20.8957   18.2738   19.7453 H   0  0  0  0  0  0  0  0  0  0  0  0
   19.6017   19.9320   20.2519 C   0  0  0  0  0  0  0  0  0  0  0  0
   19.3386   20.5564   21.1152 H   0  0  0  0  0  0  0  0  0  0  0  0
   20.0644   20.5832   19.4991 H   0  0  0  0  0  0  0  0  0  0  0  0
   18.6758   19.5252   19.8250 H   0  0  0  0  0  0  0  0  0  0  0  0
  1  2  1  0  0  0  0
  1  3  2  0  0  0  0
  1  4  1  0  0  0  0
  4  5  1  0  0  0  0
  4  6  1  0  0  0  0
  4  7  1  0  0  0  0
  7  8  1  0  0  0  0
  7  9  1  0  0  0  0
  7 10  1  0  0  0  0
 10 11  1  0  0  0  0
 10 12  1  0  0  0  0
 10 13  1  0  0  0  0
 13 14  1  0  0  0  0
 13 15  1  0  0  0  0
 13 16  1  0  0  0  0
 16 17  1  0  0  0  0
 16 18  1  0  0  0  0
 16 19  1  0  0  0  0
M  END
> <VM2 Rank>
10

> <Conf_Id>
21

> <Probability>
1.62

> <Sum Probability>
95.65

> <Delta G>
1.929

> <G>
-24.222

> <E>
-39.370

> <-TS>
15.148

> <U+W>
-54.572

> <U>
8.220

> <W>
-62.792

> <W(PB)>
-64.830

> <W(SA)>
2.038

> <Valence>
7.609

> <Coulomb>
-0.088

> <VdW>
0.699

> <VdW6>
-6.924

> <VdW12>
7.623

> <Bond>
0.163

> <Angle>
2.870

> <Pdih>
4.576

> <Idih>
0.000

> <Tether>
0.000

$$$$
VeraChem MOL file


 19 18  0  0  0  0  0  0  0  0999 V2000     
   20.0017   19.2478   25.2108 C   0  0  0  0  0  0  0  0  0  0  0  0
   20.7796   18.4084   25.6194 O   0  5  0  0  0  0  0  0  0  0  0  0
   20.0126   20.4073   25.5745 O   0  0  0  0  0  0  0  0  0  0  0  0
   18.9384   18.8199   24.2030 C   0  0  0  0  0  0  0  0  0  0  0  0
   17.9820   19.2376   24.5392 H   0  0  0  0  0  0  0  0  0  0  0  0
   18.8385   17.7283   24.2406 H   0  0  0  0  0  0  0  0  0  0  0  0
   19.2216   19.2812   22.7495 C   0  0  0  0  0  0  0  0  0  0  0  0
   18.3376   19.0636   22.1367 H   0  0  0  0  0  0  0  0  0  0  0  0
   19.3584   20.3713   22.7339 H   0  0  0  0  0  0  0  0  0  0  0  0
   20.4623   18.5879   22.1374 C   0  0  0  0  0  0  0  0  0  0  0  0
   20.3073   17.5005   22.1187 H   0  0  0  0  0  0  0  0  0  0  0  0
   21.3315   18.7655   22.7854 H   0  0  0  0  0  0  0  0  0  0  0  0
   20.8052   19.0867   20.7146 C   0  0  0  0  0  0  0  0  0  0  0  0
   20.9629   20.1740   20.7306 H   0  0  0  0  0  0  0  0  0  0  0  0
   21.7599   18.6393   20.4054 H   0  0  0  0  0  0  0  0  0  0  0  0
   19.7287   18.7329   19.6658 C   0  0  0  0  0  0  0  0  0  0  0  0
   18.7847   19.2539   19.8685 H   0  0  0  0  0  0  0  0  0  0  0  0
   20.0606   19.0264   18.6615 H   0  0  0  0  0  0  0  0  0  0  0  0
   19.5313   17.6530   19.6542 H   0  0  0  0  0  0  0  0  0  0  0  0
  1  2  1  0  0  0  0
  1  3  2  0  0  0  0
  1  4  1  0  0  0  0
  4  5  1  0  0  0  0
  4  6  1  0  0  0  0
  4  7  1  0  0  0  0
  7  8  1  0  0  0  0
  7  9  1  0  0  0  0
  7 10  1  0  0  0  0
 10 11  1  0  0  0  0
 10 12  1  0  0  0  0
 10 13  1  0  0  0  0
 13 14  1  0  0  0  0
 13 15  1  0  0  0  0
 13 16  1  0  0  0  0
 16 17  1  0  0  0  0
 16 18  1  0  0  0  0
 16 19  1  0  0  0  0
M  END
> <VM2 Rank>
11

> <Conf_Id>
125

> <Probability>
0.74

> <Sum Probability>
96.40

> <Delta G>
2.391

> <G>
-23.760

> <E>
-38.926

> <-TS>
15.166

> <U+W>
-54.128

> <U>
8.869

> <W>
-62.997

> <W(PB)>
-65.086

> <W(SA)>
2.089

> <Valence>
7.469

> <Coulomb>
0.761

> <VdW>
0.639

> <VdW6>
-6.782

> <VdW12>
7.421

> <Bond>
0.141

> <Angle>
2.667

> <Pdih>
4.660

> <Idih>
0.001

> <Tether>
0.000

$$$$
VeraChem MOL file


 19 18  0  0  0  0  0  0  0  0999 V2000     
   20.0790   19.3488   25.1049 C   0  0  0  0  0  0  0  0  0  0  0  0
   20.9618   18.6236   25.5190 O   0  5  0  0  0  0  0  0  0  0  0  0
   20.0482   20.5479   25.2994 O   0  0  0  0  0  0  0  0  0  0  0  0
   18.9319   18.7174   24.3209 C   0  0  0  0  0  0  0  0  0  0  0  0
   17.9974   19.1411   24.7074 H   0  0  0  0  0  0  0  0  0  0  0  0
   18.9074   17.6430   24.5401 H   0  0  0  0  0  0  0  0  0  0  0  0
   19.0113   18.9504   22.7897 C   0  0  0  0  0  0  0  0  0  0  0  0
   18.0877   18.5806   22.3243 H   0  0  0  0  0  0  0  0  0  0  0  0
   19.0550   20.0302   22.5952 H   0  0  0  0  0  0  0  0  0  0  0  0
   20.2267   18.2424   22.1451 C   0  0  0  0  0  0  0  0  0  0  0  0
   20.2100   17.1796   22.4227 H   0  0  0  0  0  0  0  0  0  0  0  0
   21.1590   18.6549   22.5551 H   0  0  0  0  0  0  0  0  0  0  0  0
   20.2516   18.3481   20.6028 C   0  0  0  0  0  0  0  0  0  0  0  0
   21.0744   17.7284   20.2202 H   0  0  0  0  0  0  0  0  0  0  0  0
   19.3262   17.9268   20.1865 H   0  0  0  0  0  0  0  0  0  0  0  0
   20.4395   19.7934   20.0933 C   0  0  0  0  0  0  0  0  0  0  0  0
   20.5391   19.8053   19.0002 H   0  0  0  0  0  0  0  0  0  0  0  0
   19.5818   20.4253   20.3555 H   0  0  0  0  0  0  0  0  0  0  0  0
   21.3441   20.2458   20.5202 H   0  0  0  0  0  0  0  0  0  0  0  0
  1  2  1  0  0  0  0
  1  3  2  0  0  0  0
  1  4  1  0  0  0  0
  4  5  1  0  0  0  0
  4  6  1  0  0  0  0
  4  7  1  0  0  0  0
  7  8  1  0  0  0  0
  7  9  1  0  0  0  0
  7 10  1  0  0  0  0
 10 11  1  0  0  0  0
 10 12  1  0  0  0  0
 10 13  1  0  0  0  0
 13 14  1  0  0  0  0
 13 15  1  0  0  0  0
 13 16  1  0  0  0  0
 16 17  1  0  0  0  0
 16 18  1  0  0  0  0
 16 19  1  0  0  0  0
M  END
> <VM2 Rank>
12

> <Conf_Id>
60

> <Probability>
0.74

> <Sum Probability>
97.13

> <Delta G>
2.398

> <G>
-23.753

> <E>
-38.917

> <-TS>
15.165

> <U+W>
-54.120

> <U>
9.285

> <W>
-63.405

> <W(PB)>
-65.477

> <W(SA)>
2.073

> <Valence>
7.426

> <Coulomb>
1.298

> <VdW>
0.561

> <VdW6>
-6.840

> <VdW12>
7.400

> <Bond>
0.137

> <Angle>
2.635

> <Pdih>
4.653

> <Idih>
0.001

> <Tether>
0.000

$$$$
VeraChem MOL file


 19 18  0  0  0  0  0  0  0  0999 V2000     
   20.1194   19.2641   25.1133 C   0  0  0  0  0  0  0  0  0  0  0  0
   21.0097   18.5319   25.4980 O   0  5  0  0  0  0  0  0  0  0  0  0
   20.0869   20.4578   25.3383 O   0  0  0  0  0  0  0  0  0  0  0  0
   18.9669   18.6440   24.3281 C   0  0  0  0  0  0  0  0  0  0  0  0
   18.1064   19.3224   24.3747 H   0  0  0  0  0  0  0  0  0  0  0  0
   18.6734   17.7238   24.8469 H   0  0  0  0  0  0  0  0  0  0  0  0
   19.3130   18.3178   22.8520 C   0  0  0  0  0  0  0  0  0  0  0  0
   20.1881   17.6548   22.8292 H   0  0  0  0  0  0  0  0  0  0  0  0
   18.4794   17.7596   22.4051 H   0  0  0  0  0  0  0  0  0  0  0  0
   19.5845   19.5889   22.0125 C   0  0  0  0  0  0  0  0  0  0  0  0
   20.4608   20.1187   22.4110 H   0  0  0  0  0  0  0  0  0  0  0  0
   18.7334   20.2755   22.1178 H   0  0  0  0  0  0  0  0  0  0  0  0
   19.7989   19.2974   20.5093 C   0  0  0  0  0  0  0  0  0  0  0  0
   18.9205   18.7774   20.1028 H   0  0  0  0  0  0  0  0  0  0  0  0
   19.8703   20.2529   19.9716 H   0  0  0  0  0  0  0  0  0  0  0  0
   21.0707   18.4700   20.2236 C   0  0  0  0  0  0  0  0  0  0  0  0
   20.9957   17.4608   20.6474 H   0  0  0  0  0  0  0  0  0  0  0  0
   21.2258   18.3655   19.1419 H   0  0  0  0  0  0  0  0  0  0  0  0
   21.9590   18.9565   20.6472 H   0  0  0  0  0  0  0  0  0  0  0  0
  1  2  1  0  0  0  0
  1  3  2  0  0  0  0
  1  4  1  0  0  0  0
  4  5  1  0  0  0  0
  4  6  1  0  0  0  0
  4  7  1  0  0  0  0
  7  8  1  0  0  0  0
  7  9  1  0  0  0  0
  7 10  1  0  0  0  0
 10 11  1  0  0  0  0
 10 12  1  0  0  0  0
 10 13  1  0  0  0  0
 13 14  1  0  0  0  0
 13 15  1  0  0  0  0
 13 16  1  0  0  0  0
 16 17  1  0  0  0  0
 16 18  1  0  0  0  0
 16 19  1  0  0  0  0
M  END
> <VM2 Rank>
13

> <Conf_Id>
150

> <Probability>
0.73

> <Sum Probability>
97.86

> <Delta G>
2.404

> <G>
-23.747

> <E>
-38.911

> <-TS>
15.164

> <U+W>
-54.113

> <U>
9.285

> <W>
-63.398

> <W(PB)>
-65.463

> <W(SA)>
2.065

> <Valence>
7.426

> <Coulomb>
1.298

> <VdW>
0.561

> <VdW6>
-6.840

> <VdW12>
7.401

> <Bond>
0.137

> <Angle>
2.635

> <Pdih>
4.653

> <Idih>
0.001

> <Tether>
0.000

$$$$
VeraChem MOL file


 19 18  0  0  0  0  0  0  0  0999 V2000     
   19.9847   19.2836   25.2073 C   0  0  0  0  0  0  0  0  0  0  0  0
   20.8579   18.6350   25.7491 O   0  5  0  0  0  0  0  0  0  0  0  0
   19.7982   20.4659   25.4167 O   0  0  0  0  0  0  0  0  0  0  0  0
   19.0590   18.5671   24.2279 C   0  0  0  0  0  0  0  0  0  0  0  0
   18.1513   19.1691   24.0988 H   0  0  0  0  0  0  0  0  0  0  0  0
   18.7509   17.6257   24.6979 H   0  0  0  0  0  0  0  0  0  0  0  0
   19.7041   18.2697   22.8491 C   0  0  0  0  0  0  0  0  0  0  0  0
   20.6324   17.7006   22.9969 H   0  0  0  0  0  0  0  0  0  0  0  0
   19.0240   17.6246   22.2784 H   0  0  0  0  0  0  0  0  0  0  0  0
   20.0003   19.5563   22.0420 C   0  0  0  0  0  0  0  0  0  0  0  0
   20.6375   20.2203   22.6421 H   0  0  0  0  0  0  0  0  0  0  0  0
   19.0652   20.1042   21.8621 H   0  0  0  0  0  0  0  0  0  0  0  0
   20.7098   19.2867   20.6949 C   0  0  0  0  0  0  0  0  0  0  0  0
   20.9918   20.2494   20.2468 H   0  0  0  0  0  0  0  0  0  0  0  0
   21.6467   18.7406   20.8718 H   0  0  0  0  0  0  0  0  0  0  0  0
   19.8361   18.5077   19.6880 C   0  0  0  0  0  0  0  0  0  0  0  0
   19.6258   17.4908   20.0421 H   0  0  0  0  0  0  0  0  0  0  0  0
   18.8795   19.0193   19.5196 H   0  0  0  0  0  0  0  0  0  0  0  0
   20.3486   18.4228   18.7210 H   0  0  0  0  0  0  0  0  0  0  0  0
  1  2  1  0  0  0  0
  1  3  2  0  0  0  0
  1  4  1  0  0  0  0
  4  5  1  0  0  0  0
  4  6  1  0  0  0  0
  4  7  1  0  0  0  0
  7  8  1  0  0  0  0
  7  9  1  0  0  0  0
  7 10  1  0  0  0  0
 10 11  1  0  0  0  0
 10 12  1  0  0  0  0
 10 13  1  0  0  0  0
 13 14  1  0  0  0  0
 13 15  1  0  0  0  0
 13 16  1  0  0  0  0
 16 17  1  0  0  0  0
 16 18  1  0  0  0  0
 16 19  1  0  0  0  0
M  END
> <VM2 Rank>
14

> <Conf_Id>
238

> <Probability>
0.70

> <Sum Probability>
98.56

> <Delta G>
2.428

> <G>
-23.723

> <E>
-38.888

> <-TS>
15.165

> <U+W>
-54.090

> <U>
8.869

> <W>
-62.959

> <W(PB)>
-65.044

> <W(SA)>
2.085

> <Valence>
7.469

> <Coulomb>
0.761

> <VdW>
0.639

> <VdW6>
-6.782

> <VdW12>
7.420

> <Bond>
0.141

> <Angle>
2.667

> <Pdih>
4.660

> <Idih>
0.001

> <Tether>
0.000

$$$$
VeraChem MOL file


 19 18  0  0  0  0  0  0  0  0999 V2000     
   20.1990   19.1456   24.9736 C   0  0  0  0  0  0  0  0  0  0  0  0
   21.2081   18.4715   24.9123 O   0  5  0  0  0  0  0  0  0  0  0  0
   20.1027   20.1502   25.6507 O   0  0  0  0  0  0  0  0  0  0  0  0
   18.9749   18.6903   24.1839 C   0  0  0  0  0  0  0  0  0  0  0  0
   18.1272   18.6729   24.8789 H   0  0  0  0  0  0  0  0  0  0  0  0
   19.1306   17.6550   23.8597 H   0  0  0  0  0  0  0  0  0  0  0  0
   18.6262   19.5979   22.9725 C   0  0  0  0  0  0  0  0  0  0  0  0
   17.6998   19.2360   22.5063 H   0  0  0  0  0  0  0  0  0  0  0  0
   18.4097   20.6099   23.3415 H   0  0  0  0  0  0  0  0  0  0  0  0
   19.7368   19.6865   21.8972 C   0  0  0  0  0  0  0  0  0  0  0  0
   20.6553   20.0905   22.3448 H   0  0  0  0  0  0  0  0  0  0  0  0
   19.4225   20.4089   21.1316 H   0  0  0  0  0  0  0  0  0  0  0  0
   20.0436   18.3337   21.2170 C   0  0  0  0  0  0  0  0  0  0  0  0
   20.4486   17.6264   21.9532 H   0  0  0  0  0  0  0  0  0  0  0  0
   19.1155   17.8955   20.8250 H   0  0  0  0  0  0  0  0  0  0  0  0
   21.0588   18.4964   20.0679 C   0  0  0  0  0  0  0  0  0  0  0  0
   20.6714   19.1709   19.2931 H   0  0  0  0  0  0  0  0  0  0  0  0
   22.0070   18.9076   20.4383 H   0  0  0  0  0  0  0  0  0  0  0  0
   21.2701   17.5268   19.5985 H   0  0  0  0  0  0  0  0  0  0  0  0
  1  2  1  0  0  0  0
  1  3  2  0  0  0  0
  1  4  1  0  0  0  0
  4  5  1  0  0  0  0
  4  6  1  0  0  0  0
  4  7  1  0  0  0  0
  7  8  1  0  0  0  0
  7  9  1  0  0  0  0
  7 10  1  0  0  0  0
 10 11  1  0  0  0  0
 10 12  1  0  0  0  0
 10 13  1  0  0  0  0
 13 14  1  0  0  0  0
 13 15  1  0  0  0  0
 13 16  1  0  0  0  0
 16 17  1  0  0  0  0
 16 18  1  0  0  0  0
 16 19  1  0  0  0  0
M  END
> <VM2 Rank>
15

> <Conf_Id>
114

> <Probability>
0.45

> <Sum Probability>
99.01

> <Delta G>
2.695

> <G>
-23.456

> <E>
-38.650

> <-TS>
15.194

> <U+W>
-53.852

> <U>
9.751

> <W>
-63.603

> <W(PB)>
-65.658

> <W(SA)>
2.055

> <Valence>
7.453

> <Coulomb>
1.916

> <VdW>
0.382

> <VdW6>
-7.170

> <VdW12>
7.552

> <Bond>
0.153

> <Angle>
2.768

> <Pdih>
4.531

> <Idih>
0.001

> <Tether>
0.000

$$$$
VeraChem MOL file


 19 18  0  0  0  0  0  0  0  0999 V2000     
   20.0347   19.0210   24.9861 C   0  0  0  0  0  0  0  0  0  0  0  0
   20.4076   17.8646   24.9726 O   0  5  0  0  0  0  0  0  0  0  0  0
   19.1612   19.4363   25.7220 O   0  0  0  0  0  0  0  0  0  0  0  0
   20.7206   20.0140   24.0519 C   0  0  0  0  0  0  0  0  0  0  0  0
   21.6415   19.5590   23.6698 H   0  0  0  0  0  0  0  0  0  0  0  0
   21.0287   20.8730   24.6594 H   0  0  0  0  0  0  0  0  0  0  0  0
   19.8264   20.5080   22.8817 C   0  0  0  0  0  0  0  0  0  0  0  0
   18.9481   21.0181   23.3008 H   0  0  0  0  0  0  0  0  0  0  0  0
   20.3747   21.2644   22.3041 H   0  0  0  0  0  0  0  0  0  0  0  0
   19.3439   19.3886   21.9270 C   0  0  0  0  0  0  0  0  0  0  0  0
   18.6609   19.8314   21.1892 H   0  0  0  0  0  0  0  0  0  0  0  0
   18.7556   18.6498   22.4885 H   0  0  0  0  0  0  0  0  0  0  0  0
   20.4954   18.6763   21.1828 C   0  0  0  0  0  0  0  0  0  0  0  0
   21.1244   19.4190   20.6730 H   0  0  0  0  0  0  0  0  0  0  0  0
   21.1370   18.1485   21.9010 H   0  0  0  0  0  0  0  0  0  0  0  0
   19.9601   17.6632   20.1510 C   0  0  0  0  0  0  0  0  0  0  0  0
   20.7894   17.1624   19.6348 H   0  0  0  0  0  0  0  0  0  0  0  0
   19.3497   16.8923   20.6394 H   0  0  0  0  0  0  0  0  0  0  0  0
   19.3415   18.1624   19.3937 H   0  0  0  0  0  0  0  0  0  0  0  0
  1  2  1  0  0  0  0
  1  3  2  0  0  0  0
  1  4  1  0  0  0  0
  4  5  1  0  0  0  0
  4  6  1  0  0  0  0
  4  7  1  0  0  0  0
  7  8  1  0  0  0  0
  7  9  1  0  0  0  0
  7 10  1  0  0  0  0
 10 11  1  0  0  0  0
 10 12  1  0  0  0  0
 10 13  1  0  0  0  0
 13 14  1  0  0  0  0
 13 15  1  0  0  0  0
 13 16  1  0  0  0  0
 16 17  1  0  0  0  0
 16 18  1  0  0  0  0
 16 19  1  0  0  0  0
M  END
> <VM2 Rank>
16

> <Conf_Id>
294

> <Probability>
0.42

> <Sum Probability>
99.43

> <Delta G>
2.727

> <G>
-23.425

> <E>
-38.618

> <-TS>
15.194

> <U+W>
-53.820

> <U>
9.752

> <W>
-63.572

> <W(PB)>
-65.637

> <W(SA)>
2.065

> <Valence>
7.453

> <Coulomb>
1.917

> <VdW>
0.382

> <VdW6>
-7.170

> <VdW12>
7.552

> <Bond>
0.153

> <Angle>
2.768

> <Pdih>
4.530

> <Idih>
0.001

> <Tether>
0.000

$$$$
VeraChem MOL file


 19 18  0  0  0  0  0  0  0  0999 V2000     
   20.1779   19.1937   24.9613 C   0  0  0  0  0  0  0  0  0  0  0  0
   20.8440   18.1850   25.0858 O   0  5  0  0  0  0  0  0  0  0  0  0
   19.3428   19.5503   25.7691 O   0  0  0  0  0  0  0  0  0  0  0  0
   20.4232   20.0786   23.7422 C   0  0  0  0  0  0  0  0  0  0  0  0
   21.3702   19.7818   23.2769 H   0  0  0  0  0  0  0  0  0  0  0  0
   20.5637   21.1032   24.1056 H   0  0  0  0  0  0  0  0  0  0  0  0
   19.2722   20.0567   22.6997 C   0  0  0  0  0  0  0  0  0  0  0  0
   18.3546   20.4215   23.1813 H   0  0  0  0  0  0  0  0  0  0  0  0
   19.4966   20.7723   21.8982 H   0  0  0  0  0  0  0  0  0  0  0  0
   18.9891   18.6606   22.0874 C   0  0  0  0  0  0  0  0  0  0  0  0
   18.1496   18.7478   21.3844 H   0  0  0  0  0  0  0  0  0  0  0  0
   18.6478   17.9833   22.8823 H   0  0  0  0  0  0  0  0  0  0  0  0
   20.1871   18.0053   21.3577 C   0  0  0  0  0  0  0  0  0  0  0  0
   21.0022   17.8128   22.0684 H   0  0  0  0  0  0  0  0  0  0  0  0
   19.8728   17.0211   20.9842 H   0  0  0  0  0  0  0  0  0  0  0  0
   20.7136   18.8419   20.1717 C   0  0  0  0  0  0  0  0  0  0  0  0
   19.9083   19.0640   19.4596 H   0  0  0  0  0  0  0  0  0  0  0  0
   21.1438   19.7916   20.5136 H   0  0  0  0  0  0  0  0  0  0  0  0
   21.4993   18.2949   19.6348 H   0  0  0  0  0  0  0  0  0  0  0  0
  1  2  1  0  0  0  0
  1  3  2  0  0  0  0
  1  4  1  0  0  0  0
  4  5  1  0  0  0  0
  4  6  1  0  0  0  0
  4  7  1  0  0  0  0
  7  8  1  0  0  0  0
  7  9  1  0  0  0  0
  7 10  1  0  0  0  0
 10 11  1  0  0  0  0
 10 12  1  0  0  0  0
 10 13  1  0  0  0  0
 13 14  1  0  0  0  0
 13 15  1  0  0  0  0
 13 16  1  0  0  0  0
 16 17  1  0  0  0  0
 16 18  1  0  0  0  0
 16 19  1  0  0  0  0
M  END
> <VM2 Rank>
17

> <Conf_Id>
254

> <Probability>
0.09

> <Sum Probability>
99.52

> <Delta G>
3.672

> <G>
-22.479

> <E>
-38.023

> <-TS>
15.544

> <U+W>
-53.225

> <U>
10.215

> <W>
-63.440

> <W(PB)>
-65.471

> <W(SA)>
2.031

> <Valence>
7.868

> <Coulomb>
1.969

> <VdW>
0.378

> <VdW6>
-8.068

> <VdW12>
8.445

> <Bond>
0.191

> <Angle>
3.117

> <Pdih>
4.559

> <Idih>
0.001

> <Tether>
0.000

$$$$
VeraChem MOL file


 19 18  0  0  0  0  0  0  0  0999 V2000     
   20.0733   19.4131   24.9397 C   0  0  0  0  0  0  0  0  0  0  0  0
   19.7588   18.6780   25.8551 O   0  5  0  0  0  0  0  0  0  0  0  0
   19.7074   20.5685   24.8511 O   0  0  0  0  0  0  0  0  0  0  0  0
   21.0032   18.8624   23.8620 C   0  0  0  0  0  0  0  0  0  0  0  0
   21.8544   18.3966   24.3722 H   0  0  0  0  0  0  0  0  0  0  0  0
   21.4086   19.7013   23.2848 H   0  0  0  0  0  0  0  0  0  0  0  0
   20.3375   17.8226   22.9197 C   0  0  0  0  0  0  0  0  0  0  0  0
   21.0920   17.4266   22.2277 H   0  0  0  0  0  0  0  0  0  0  0  0
   20.0019   16.9668   23.5215 H   0  0  0  0  0  0  0  0  0  0  0  0
   19.1287   18.3678   22.1163 C   0  0  0  0  0  0  0  0  0  0  0  0
   18.3304   18.6490   22.8168 H   0  0  0  0  0  0  0  0  0  0  0  0
   18.7184   17.5549   21.5019 H   0  0  0  0  0  0  0  0  0  0  0  0
   19.4366   19.5794   21.2027 C   0  0  0  0  0  0  0  0  0  0  0  0
   18.5075   19.8846   20.7023 H   0  0  0  0  0  0  0  0  0  0  0  0
   19.7498   20.4395   21.8097 H   0  0  0  0  0  0  0  0  0  0  0  0
   20.5044   19.2804   20.1285 C   0  0  0  0  0  0  0  0  0  0  0  0
   20.6205   20.1379   19.4532 H   0  0  0  0  0  0  0  0  0  0  0  0
   21.4827   19.0806   20.5835 H   0  0  0  0  0  0  0  0  0  0  0  0
   20.2203   18.4092   19.5241 H   0  0  0  0  0  0  0  0  0  0  0  0
  1  2  1  0  0  0  0
  1  3  2  0  0  0  0
  1  4  1  0  0  0  0
  4  5  1  0  0  0  0
  4  6  1  0  0  0  0
  4  7  1  0  0  0  0
  7  8  1  0  0  0  0
  7  9  1  0  0  0  0
  7 10  1  0  0  0  0
 10 11  1  0  0  0  0
 10 12  1  0  0  0  0
 10 13  1  0  0  0  0
 13 14  1  0  0  0  0
 13 15  1  0  0  0  0
 13 16  1  0  0  0  0
 16 17  1  0  0  0  0
 16 18  1  0  0  0  0
 16 19  1  0  0  0  0
M  END
> <VM2 Rank>
18

> <Conf_Id>
297

> <Probability>
0.08

> <Sum Probability>
99.60

> <Delta G>
3.688

> <G>
-22.463

> <E>
-38.007

> <-TS>
15.544

> <U+W>
-53.209

> <U>
10.215

> <W>
-63.424

> <W(PB)>
-65.459

> <W(SA)>
2.035

> <Valence>
7.868

> <Coulomb>
1.970

> <VdW>
0.378

> <VdW6>
-8.068

> <VdW12>
8.446

> <Bond>
0.191

> <Angle>
3.117

> <Pdih>
4.559

> <Idih>
0.001

> <Tether>
0.000

$$$$
VeraChem MOL file


 19 18  0  0  0  0  0  0  0  0999 V2000     
   19.8105   19.0626   25.2072 C   0  0  0  0  0  0  0  0  0  0  0  0
   20.5398   18.2450   25.7324 O   0  5  0  0  0  0  0  0  0  0  0  0
   19.2278   19.9351   25.8201 O   0  0  0  0  0  0  0  0  0  0  0  0
   19.6330   19.0039   23.6942 C   0  0  0  0  0  0  0  0  0  0  0  0
   18.6264   19.3665   23.4540 H   0  0  0  0  0  0  0  0  0  0  0  0
   19.6851   17.9511   23.3951 H   0  0  0  0  0  0  0  0  0  0  0  0
   20.6974   19.8327   22.9318 C   0  0  0  0  0  0  0  0  0  0  0  0
   20.7196   20.8477   23.3521 H   0  0  0  0  0  0  0  0  0  0  0  0
   21.6912   19.4019   23.1162 H   0  0  0  0  0  0  0  0  0  0  0  0
   20.4517   19.9390   21.4058 C   0  0  0  0  0  0  0  0  0  0  0  0
   21.2342   20.5885   20.9899 H   0  0  0  0  0  0  0  0  0  0  0  0
   19.5014   20.4550   21.2115 H   0  0  0  0  0  0  0  0  0  0  0  0
   20.4935   18.5888   20.6480 C   0  0  0  0  0  0  0  0  0  0  0  0
   20.9439   18.7553   19.6597 H   0  0  0  0  0  0  0  0  0  0  0  0
   21.1524   17.8798   21.1682 H   0  0  0  0  0  0  0  0  0  0  0  0
   19.0962   17.9650   20.4355 C   0  0  0  0  0  0  0  0  0  0  0  0
   19.1780   17.0215   19.8805 H   0  0  0  0  0  0  0  0  0  0  0  0
   18.5948   17.7510   21.3860 H   0  0  0  0  0  0  0  0  0  0  0  0
   18.4518   18.6395   19.8569 H   0  0  0  0  0  0  0  0  0  0  0  0
  1  2  1  0  0  0  0
  1  3  2  0  0  0  0
  1  4  1  0  0  0  0
  4  5  1  0  0  0  0
  4  6  1  0  0  0  0
  4  7  1  0  0  0  0
  7  8  1  0  0  0  0
  7  9  1  0  0  0  0
  7 10  1  0  0  0  0
 10 11  1  0  0  0  0
 10 12  1  0  0  0  0
 10 13  1  0  0  0  0
 13 14  1  0  0  0  0
 13 15  1  0  0  0  0
 13 16  1  0  0  0  0
 16 17  1  0  0  0  0
 16 18  1  0  0  0  0
 16 19  1  0  0  0  0
M  END
> <VM2 Rank>
19

> <Conf_Id>
91

> <Probability>
0.08

> <Sum Probability>
99.68

> <Delta G>
3.720

> <G>
-22.431

> <E>
-37.495

> <-TS>
15.064

> <U+W>
-52.697

> <U>
10.231

> <W>
-62.928

> <W(PB)>
-64.992

> <W(SA)>
2.064

> <Valence>
9.644

> <Coulomb>
-0.164

> <VdW>
0.751

> <VdW6>
-6.881

> <VdW12>
7.631

> <Bond>
0.163

> <Angle>
2.998

> <Pdih>
6.482

> <Idih>
0.001

> <Tether>
0.000

$$$$
VeraChem MOL file


 19 18  0  0  0  0  0  0  0  0999 V2000     
   20.2414   19.4256   25.1681 C   0  0  0  0  0  0  0  0  0  0  0  0
   20.9795   18.6153   25.6925 O   0  5  0  0  0  0  0  0  0  0  0  0
   19.5456   20.2027   25.7911 O   0  0  0  0  0  0  0  0  0  0  0  0
   20.1682   19.4544   23.6455 C   0  0  0  0  0  0  0  0  0  0  0  0
   21.1604   19.1932   23.2611 H   0  0  0  0  0  0  0  0  0  0  0  0
   19.9529   20.4833   23.3335 H   0  0  0  0  0  0  0  0  0  0  0  0
   19.0996   18.4871   23.0770 C   0  0  0  0  0  0  0  0  0  0  0  0
   19.3779   17.4539   23.3264 H   0  0  0  0  0  0  0  0  0  0  0  0
   18.1450   18.6795   23.5861 H   0  0  0  0  0  0  0  0  0  0  0  0
   18.8741   18.6105   21.5492 C   0  0  0  0  0  0  0  0  0  0  0  0
   18.5040   19.6150   21.3022 H   0  0  0  0  0  0  0  0  0  0  0  0
   18.0644   17.9193   21.2780 H   0  0  0  0  0  0  0  0  0  0  0  0
   20.1112   18.2669   20.6827 C   0  0  0  0  0  0  0  0  0  0  0  0
   20.7530   17.5435   21.2043 H   0  0  0  0  0  0  0  0  0  0  0  0
   19.7691   17.7662   19.7664 H   0  0  0  0  0  0  0  0  0  0  0  0
   20.9304   19.5096   20.2688 C   0  0  0  0  0  0  0  0  0  0  0  0
   20.3137   20.2076   19.6879 H   0  0  0  0  0  0  0  0  0  0  0  0
   21.3235   20.0486   21.1381 H   0  0  0  0  0  0  0  0  0  0  0  0
   21.7834   19.2157   19.6436 H   0  0  0  0  0  0  0  0  0  0  0  0
  1  2  1  0  0  0  0
  1  3  2  0  0  0  0
  1  4  1  0  0  0  0
  4  5  1  0  0  0  0
  4  6  1  0  0  0  0
  4  7  1  0  0  0  0
  7  8  1  0  0  0  0
  7  9  1  0  0  0  0
  7 10  1  0  0  0  0
 10 11  1  0  0  0  0
 10 12  1  0  0  0  0
 10 13  1  0  0  0  0
 13 14  1  0  0  0  0
 13 15  1  0  0  0  0
 13 16  1  0  0  0  0
 16 17  1  0  0  0  0
 16 18  1  0  0  0  0
 16 19  1  0  0  0  0
M  END
> <VM2 Rank>
20

> <Conf_Id>
73

> <Probability>
0.08

> <Sum Probability>
99.76

> <Delta G>
3.740

> <G>
-22.411

> <E>
-37.475

> <-TS>
15.064

> <U+W>
-52.677

> <U>
10.231

> <W>
-62.908

> <W(PB)>
-64.975

> <W(SA)>
2.067

> <Valence>
9.644

> <Coulomb>
-0.164

> <VdW>
0.751

> <VdW6>
-6.881

> <VdW12>
7.632

> <Bond>
0.163

> <Angle>
2.999

> <Pdih>
6.482

> <Idih>
0.001

> <Tether>
0.000

$$$$
VeraChem MOL file


 19 18  0  0  0  0  0  0  0  0999 V2000     
   19.7657   19.0378   24.8683 C   0  0  0  0  0  0  0  0  0  0  0  0
   19.5070   17.8713   25.0900 O   0  5  0  0  0  0  0  0  0  0  0  0
   19.0144   19.9536   25.1405 O   0  0  0  0  0  0  0  0  0  0  0  0
   21.1358   19.3730   24.2818 C   0  0  0  0  0  0  0  0  0  0  0  0
   21.7042   18.4443   24.1496 H   0  0  0  0  0  0  0  0  0  0  0  0
   21.6632   19.9573   25.0447 H   0  0  0  0  0  0  0  0  0  0  0  0
   21.1100   20.1817   22.9543 C   0  0  0  0  0  0  0  0  0  0  0  0
   20.3762   20.9966   23.0261 H   0  0  0  0  0  0  0  0  0  0  0  0
   22.0883   20.6663   22.8338 H   0  0  0  0  0  0  0  0  0  0  0  0
   20.8429   19.3369   21.6840 C   0  0  0  0  0  0  0  0  0  0  0  0
   21.5841   18.5290   21.6145 H   0  0  0  0  0  0  0  0  0  0  0  0
   21.0029   19.9785   20.8066 H   0  0  0  0  0  0  0  0  0  0  0  0
   19.4191   18.7430   21.6103 C   0  0  0  0  0  0  0  0  0  0  0  0
   19.2808   17.9964   22.4028 H   0  0  0  0  0  0  0  0  0  0  0  0
   18.6761   19.5344   21.7807 H   0  0  0  0  0  0  0  0  0  0  0  0
   19.1550   18.0748   20.2459 C   0  0  0  0  0  0  0  0  0  0  0  0
   19.8695   17.2616   20.0627 H   0  0  0  0  0  0  0  0  0  0  0  0
   18.1430   17.6507   20.2130 H   0  0  0  0  0  0  0  0  0  0  0  0
   19.2444   18.8014   19.4278 H   0  0  0  0  0  0  0  0  0  0  0  0
  1  2  1  0  0  0  0
  1  3  2  0  0  0  0
  1  4  1  0  0  0  0
  4  5  1  0  0  0  0
  4  6  1  0  0  0  0
  4  7  1  0  0  0  0
  7  8  1  0  0  0  0
  7  9  1  0  0  0  0
  7 10  1  0  0  0  0
 10 11  1  0  0  0  0
 10 12  1  0  0  0  0
 10 13  1  0  0  0  0
 13 14  1  0  0  0  0
 13 15  1  0  0  0  0
 13 16  1  0  0  0  0
 16 17  1  0  0  0  0
 16 18  1  0  0  0  0
 16 19  1  0  0  0  0
M  END
> <VM2 Rank>
21

> <Conf_Id>
25

> <Probability>
0.06

> <Sum Probability>
99.82

> <Delta G>
3.876

> <G>
-22.275

> <E>
-37.624

> <-TS>
15.349

> <U+W>
-52.826

> <U>
10.967

> <W>
-63.794

> <W(PB)>
-65.830

> <W(SA)>
2.036

> <Valence>
8.609

> <Coulomb>
1.892

> <VdW>
0.467

> <VdW6>
-7.569

> <VdW12>
8.036

> <Bond>
0.170

> <Angle>
3.195

> <Pdih>
5.237

> <Idih>
0.007

> <Tether>
0.000

$$$$
VeraChem MOL file


 19 18  0  0  0  0  0  0  0  0999 V2000     
   19.6995   19.1770   24.8547 C   0  0  0  0  0  0  0  0  0  0  0  0
   19.9088   18.0762   25.3256 O   0  5  0  0  0  0  0  0  0  0  0  0
   18.6202   19.7331   24.9065 O   0  0  0  0  0  0  0  0  0  0  0  0
   20.8696   19.9320   24.2267 C   0  0  0  0  0  0  0  0  0  0  0  0
   21.5957   20.0991   25.0307 H   0  0  0  0  0  0  0  0  0  0  0  0
   20.5241   20.9221   23.9054 H   0  0  0  0  0  0  0  0  0  0  0  0
   21.5770   19.2011   23.0508 C   0  0  0  0  0  0  0  0  0  0  0  0
   22.5788   19.6363   22.9352 H   0  0  0  0  0  0  0  0  0  0  0  0
   21.7345   18.1442   23.3071 H   0  0  0  0  0  0  0  0  0  0  0  0
   20.8535   19.3147   21.6861 C   0  0  0  0  0  0  0  0  0  0  0  0
   21.5156   18.9017   20.9127 H   0  0  0  0  0  0  0  0  0  0  0  0
   20.7059   20.3733   21.4327 H   0  0  0  0  0  0  0  0  0  0  0  0
   19.4999   18.5731   21.6270 C   0  0  0  0  0  0  0  0  0  0  0  0
   19.6260   17.5393   21.9774 H   0  0  0  0  0  0  0  0  0  0  0  0
   18.7773   19.0541   22.2985 H   0  0  0  0  0  0  0  0  0  0  0  0
   18.9216   18.5648   20.1976 C   0  0  0  0  0  0  0  0  0  0  0  0
   18.7618   19.5881   19.8333 H   0  0  0  0  0  0  0  0  0  0  0  0
   19.6000   18.0545   19.5014 H   0  0  0  0  0  0  0  0  0  0  0  0
   17.9566   18.0421   20.1745 H   0  0  0  0  0  0  0  0  0  0  0  0
  1  2  1  0  0  0  0
  1  3  2  0  0  0  0
  1  4  1  0  0  0  0
  4  5  1  0  0  0  0
  4  6  1  0  0  0  0
  4  7  1  0  0  0  0
  7  8  1  0  0  0  0
  7  9  1  0  0  0  0
  7 10  1  0  0  0  0
 10 11  1  0  0  0  0
 10 12  1  0  0  0  0
 10 13  1  0  0  0  0
 13 14  1  0  0  0  0
 13 15  1  0  0  0  0
 13 16  1  0  0  0  0
 16 17  1  0  0  0  0
 16 18  1  0  0  0  0
 16 19  1  0  0  0  0
M  END
> <VM2 Rank>
22

> <Conf_Id>
221

> <Probability>
0.06

> <Sum Probability>
99.88

> <Delta G>
3.881

> <G>
-22.270

> <E>
-37.620

> <-TS>
15.350

> <U+W>
-52.822

> <U>
10.967

> <W>
-63.790

> <W(PB)>
-65.837

> <W(SA)>
2.048

> <Valence>
8.609

> <Coulomb>
1.892

> <VdW>
0.467

> <VdW6>
-7.569

> <VdW12>
8.035

> <Bond>
0.170

> <Angle>
3.195

> <Pdih>
5.237

> <Idih>
0.007

> <Tether>
0.000

$$$$
VeraChem MOL file


 19 18  0  0  0  0  0  0  0  0999 V2000     
   20.2427   19.2701   25.1812 C   0  0  0  0  0  0  0  0  0  0  0  0
   20.9861   18.3512   25.4629 O   0  5  0  0  0  0  0  0  0  0  0  0
   19.5489   19.8471   25.9949 O   0  0  0  0  0  0  0  0  0  0  0  0
   20.1613   19.7111   23.7242 C   0  0  0  0  0  0  0  0  0  0  0  0
   21.1448   19.5540   23.2704 H   0  0  0  0  0  0  0  0  0  0  0  0
   19.9712   20.7909   23.7078 H   0  0  0  0  0  0  0  0  0  0  0  0
   19.0554   18.9651   22.9316 C   0  0  0  0  0  0  0  0  0  0  0  0
   19.2111   17.8793   22.9955 H   0  0  0  0  0  0  0  0  0  0  0  0
   18.0937   19.1655   23.4239 H   0  0  0  0  0  0  0  0  0  0  0  0
   18.9546   19.4062   21.4493 C   0  0  0  0  0  0  0  0  0  0  0  0
   19.2659   20.4543   21.3418 H   0  0  0  0  0  0  0  0  0  0  0  0
   17.8963   19.3776   21.1559 H   0  0  0  0  0  0  0  0  0  0  0  0
   19.7372   18.5140   20.4546 C   0  0  0  0  0  0  0  0  0  0  0  0
   19.3572   17.4843   20.5060 H   0  0  0  0  0  0  0  0  0  0  0  0
   19.5317   18.8666   19.4345 H   0  0  0  0  0  0  0  0  0  0  0  0
   21.2638   18.5072   20.6763 C   0  0  0  0  0  0  0  0  0  0  0  0
   21.6634   19.5293   20.7010 H   0  0  0  0  0  0  0  0  0  0  0  0
   21.5245   18.0065   21.6171 H   0  0  0  0  0  0  0  0  0  0  0  0
   21.7668   17.9663   19.8644 H   0  0  0  0  0  0  0  0  0  0  0  0
  1  2  1  0  0  0  0
  1  3  2  0  0  0  0
  1  4  1  0  0  0  0
  4  5  1  0  0  0  0
  4  6  1  0  0  0  0
  4  7  1  0  0  0  0
  7  8  1  0  0  0  0
  7  9  1  0  0  0  0
  7 10  1  0  0  0  0
 10 11  1  0  0  0  0
 10 12  1  0  0  0  0
 10 13  1  0  0  0  0
 13 14  1  0  0  0  0
 13 15  1  0  0  0  0
 13 16  1  0  0  0  0
 16 17  1  0  0  0  0
 16 18  1  0  0  0  0
 16 19  1  0  0  0  0
M  END
> <VM2 Rank>
23

> <Conf_Id>
92

> <Probability>
0.05

> <Sum Probability>
99.94

> <Delta G>
3.992

> <G>
-22.159

> <E>
-37.232

> <-TS>
15.074

> <U+W>
-52.435

> <U>
10.422

> <W>
-62.856

> <W(PB)>
-64.914

> <W(SA)>
2.057

> <Valence>
9.628

> <Coulomb>
0.102

> <VdW>
0.692

> <VdW6>
-6.927

> <VdW12>
7.619

> <Bond>
0.173

> <Angle>
2.989

> <Pdih>
6.465

> <Idih>
0.000

> <Tether>
0.000

$$$$
VeraChem MOL file


 19 18  0  0  0  0  0  0  0  0999 V2000     
   19.9537   19.0267   25.2061 C   0  0  0  0  0  0  0  0  0  0  0  0
   20.7605   18.1612   25.4824 O   0  5  0  0  0  0  0  0  0  0  0  0
   19.5840   19.8766   25.9919 O   0  0  0  0  0  0  0  0  0  0  0  0
   19.3878   19.0597   23.7909 C   0  0  0  0  0  0  0  0  0  0  0  0
   18.3581   19.4323   23.8471 H   0  0  0  0  0  0  0  0  0  0  0  0
   19.3341   18.0290   23.4267 H   0  0  0  0  0  0  0  0  0  0  0  0
   20.2224   19.9481   22.8308 C   0  0  0  0  0  0  0  0  0  0  0  0
   20.2338   20.9682   23.2391 H   0  0  0  0  0  0  0  0  0  0  0  0
   21.2685   19.6123   22.8179 H   0  0  0  0  0  0  0  0  0  0  0  0
   19.6571   19.9979   21.3886 C   0  0  0  0  0  0  0  0  0  0  0  0
   19.8301   21.0065   20.9889 H   0  0  0  0  0  0  0  0  0  0  0  0
   18.5666   19.8653   21.4021 H   0  0  0  0  0  0  0  0  0  0  0  0
   20.3035   18.9910   20.4057 C   0  0  0  0  0  0  0  0  0  0  0  0
   19.8887   19.1674   19.4037 H   0  0  0  0  0  0  0  0  0  0  0  0
   21.3816   19.1896   20.3311 H   0  0  0  0  0  0  0  0  0  0  0  0
   20.0809   17.5107   20.7785 C   0  0  0  0  0  0  0  0  0  0  0  0
   20.6238   17.2478   21.6950 H   0  0  0  0  0  0  0  0  0  0  0  0
   19.0146   17.2980   20.9297 H   0  0  0  0  0  0  0  0  0  0  0  0
   20.4472   16.8546   19.9785 H   0  0  0  0  0  0  0  0  0  0  0  0
  1  2  1  0  0  0  0
  1  3  2  0  0  0  0
  1  4  1  0  0  0  0
  4  5  1  0  0  0  0
  4  6  1  0  0  0  0
  4  7  1  0  0  0  0
  7  8  1  0  0  0  0
  7  9  1  0  0  0  0
  7 10  1  0  0  0  0
 10 11  1  0  0  0  0
 10 12  1  0  0  0  0
 10 13  1  0  0  0  0
 13 14  1  0  0  0  0
 13 15  1  0  0  0  0
 13 16  1  0  0  0  0
 16 17  1  0  0  0  0
 16 18  1  0  0  0  0
 16 19  1  0  0  0  0
M  END
> <VM2 Rank>
24

> <Conf_Id>
310

> <Probability>
0.05

> <Sum Probability>
99.99

> <Delta G>
4.000

> <G>
-22.151

> <E>
-37.225

> <-TS>
15.074

> <U+W>
-52.427

> <U>
10.422

> <W>
-62.848

> <W(PB)>
-64.921

> <W(SA)>
2.072

> <Valence>
9.628

> <Coulomb>
0.101

> <VdW>
0.693

> <VdW6>
-6.927

> <VdW12>
7.620

> <Bond>
0.173

> <Angle>
2.989

> <Pdih>
6.465

> <Idih>
0.001

> <Tether>
0.000

$$$$
VeraChem MOL file


 19 18  0  0  0  0  0  0  0  0999 V2000     
   19.8147   19.3791   24.9741 C   0  0  0  0  0  0  0  0  0  0  0  0
   20.3971   18.8679   25.9103 O   0  5  0  0  0  0  0  0  0  0  0  0
   19.6335   20.5762   24.8699 O   0  0  0  0  0  0  0  0  0  0  0  0
   19.2570   18.4636   23.8873 C   0  0  0  0  0  0  0  0  0  0  0  0
   18.5155   19.0249   23.3099 H   0  0  0  0  0  0  0  0  0  0  0  0
   18.7151   17.6552   24.3920 H   0  0  0  0  0  0  0  0  0  0  0  0
   20.3424   17.8523   22.9584 C   0  0  0  0  0  0  0  0  0  0  0  0
   21.0943   17.3615   23.5919 H   0  0  0  0  0  0  0  0  0  0  0  0
   19.9006   17.0568   22.3433 H   0  0  0  0  0  0  0  0  0  0  0  0
   21.0548   18.8850   22.0465 C   0  0  0  0  0  0  0  0  0  0  0  0
   22.1022   18.5740   21.9333 H   0  0  0  0  0  0  0  0  0  0  0  0
   21.0879   19.8696   22.5327 H   0  0  0  0  0  0  0  0  0  0  0  0
   20.4522   19.0164   20.6261 C   0  0  0  0  0  0  0  0  0  0  0  0
   21.0790   19.7066   20.0448 H   0  0  0  0  0  0  0  0  0  0  0  0
   20.5044   18.0469   20.1119 H   0  0  0  0  0  0  0  0  0  0  0  0
   18.9984   19.5315   20.6024 C   0  0  0  0  0  0  0  0  0  0  0  0
   18.6784   19.7308   19.5715 H   0  0  0  0  0  0  0  0  0  0  0  0
   18.3091   18.7899   21.0247 H   0  0  0  0  0  0  0  0  0  0  0  0
   18.9019   20.4639   21.1741 H   0  0  0  0  0  0  0  0  0  0  0  0
  1  2  1  0  0  0  0
  1  3  2  0  0  0  0
  1  4  1  0  0  0  0
  4  5  1  0  0  0  0
  4  6  1  0  0  0  0
  4  7  1  0  0  0  0
  7  8  1  0  0  0  0
  7  9  1  0  0  0  0
  7 10  1  0  0  0  0
 10 11  1  0  0  0  0
 10 12  1  0  0  0  0
 10 13  1  0  0  0  0
 13 14  1  0  0  0  0
 13 15  1  0  0  0  0
 13 16  1  0  0  0  0
 16 17  1  0  0  0  0
 16 18  1  0  0  0  0
 16 19  1  0  0  0  0
M  END
> <VM2 Rank>
25

> <Conf_Id>
226

> <Probability>
0.00

> <Sum Probability>
99.99

> <Delta G>
5.600

> <G>
-20.551

> <E>
-35.983

> <-TS>
15.431

> <U+W>
-51.185

> <U>
12.334

> <W>
-63.519

> <W(PB)>
-65.541

> <W(SA)>
2.022

> <Valence>
9.984

> <Coulomb>
1.768

> <VdW>
0.583

> <VdW6>
-7.767

> <VdW12>
8.349

> <Bond>
0.203

> <Angle>
3.192

> <Pdih>
6.589

> <Idih>
0.001

> <Tether>
0.000

$$$$
VeraChem MOL file


 19 18  0  0  0  0  0  0  0  0999 V2000     
   20.0013   19.4545   24.9684 C   0  0  0  0  0  0  0  0  0  0  0  0
   19.9881   18.7025   25.9231 O   0  5  0  0  0  0  0  0  0  0  0  0
   19.2943   20.4390   24.8804 O   0  0  0  0  0  0  0  0  0  0  0  0
   20.9793   19.1597   23.8341 C   0  0  0  0  0  0  0  0  0  0  0  0
   21.9563   18.9651   24.2916 H   0  0  0  0  0  0  0  0  0  0  0  0
   21.0910   20.0659   23.2302 H   0  0  0  0  0  0  0  0  0  0  0  0
   20.5751   17.9464   22.9512 C   0  0  0  0  0  0  0  0  0  0  0  0
   21.4118   17.6675   22.2967 H   0  0  0  0  0  0  0  0  0  0  0  0
   20.4096   17.0850   23.6131 H   0  0  0  0  0  0  0  0  0  0  0  0
   19.2984   18.1754   22.1008 C   0  0  0  0  0  0  0  0  0  0  0  0
   18.6171   18.8714   22.6090 H   0  0  0  0  0  0  0  0  0  0  0  0
   18.7563   17.2221   22.0369 H   0  0  0  0  0  0  0  0  0  0  0  0
   19.5644   18.6575   20.6535 C   0  0  0  0  0  0  0  0  0  0  0  0
   20.1728   17.9127   20.1222 H   0  0  0  0  0  0  0  0  0  0  0  0
   18.6045   18.7064   20.1212 H   0  0  0  0  0  0  0  0  0  0  0  0
   20.2491   20.0369   20.5635 C   0  0  0  0  0  0  0  0  0  0  0  0
   19.7014   20.7870   21.1490 H   0  0  0  0  0  0  0  0  0  0  0  0
   21.2811   19.9910   20.9327 H   0  0  0  0  0  0  0  0  0  0  0  0
   20.2858   20.3801   19.5216 H   0  0  0  0  0  0  0  0  0  0  0  0
  1  2  1  0  0  0  0
  1  3  2  0  0  0  0
  1  4  1  0  0  0  0
  4  5  1  0  0  0  0
  4  6  1  0  0  0  0
  4  7  1  0  0  0  0
  7  8  1  0  0  0  0
  7  9  1  0  0  0  0
  7 10  1  0  0  0  0
 10 11  1  0  0  0  0
 10 12  1  0  0  0  0
 10 13  1  0  0  0  0
 13 14  1  0  0  0  0
 13 15  1  0  0  0  0
 13 16  1  0  0  0  0
 16 17  1  0  0  0  0
 16 18  1  0  0  0  0
 16 19  1  0  0  0  0
M  END
> <VM2 Rank>
26

> <Conf_Id>
215

> <Probability>
0.00

> <Sum Probability>
99.99

> <Delta G>
5.618

> <G>
-20.533

> <E>
-35.965

> <-TS>
15.431

> <U+W>
-51.167

> <U>
12.334

> <W>
-63.501

> <W(PB)>
-65.530

> <W(SA)>
2.028

> <Valence>
9.984

> <Coulomb>
1.768

> <VdW>
0.582

> <VdW6>
-7.767

> <VdW12>
8.349

> <Bond>
0.203

> <Angle>
3.191

> <Pdih>
6.589

> <Idih>
0.001

> <Tether>
0.000

$$$$
VeraChem MOL file


 19 18  0  0  0  0  0  0  0  0999 V2000     
   19.7442   19.0155   24.7146 C   0  0  0  0  0  0  0  0  0  0  0  0
   19.8976   17.8632   25.0696 O   0  5  0  0  0  0  0  0  0  0  0  0
   18.7006   19.6242   24.8480 O   0  0  0  0  0  0  0  0  0  0  0  0
   20.9582   19.7724   24.1795 C   0  0  0  0  0  0  0  0  0  0  0  0
   21.8425   19.1281   24.2543 H   0  0  0  0  0  0  0  0  0  0  0  0
   21.1240   20.6120   24.8645 H   0  0  0  0  0  0  0  0  0  0  0  0
   20.8122   20.3234   22.7331 C   0  0  0  0  0  0  0  0  0  0  0  0
   19.8211   20.7772   22.6006 H   0  0  0  0  0  0  0  0  0  0  0  0
   21.5318   21.1444   22.6128 H   0  0  0  0  0  0  0  0  0  0  0  0
   21.0959   19.2886   21.6132 C   0  0  0  0  0  0  0  0  0  0  0  0
   22.1059   18.8800   21.7533 H   0  0  0  0  0  0  0  0  0  0  0  0
   21.1161   19.8150   20.6492 H   0  0  0  0  0  0  0  0  0  0  0  0
   20.0927   18.1149   21.5093 C   0  0  0  0  0  0  0  0  0  0  0  0
   20.4242   17.4436   20.7053 H   0  0  0  0  0  0  0  0  0  0  0  0
   20.1108   17.5157   22.4284 H   0  0  0  0  0  0  0  0  0  0  0  0
   18.6485   18.5699   21.2077 C   0  0  0  0  0  0  0  0  0  0  0  0
   18.6117   19.1902   20.3029 H   0  0  0  0  0  0  0  0  0  0  0  0
   17.9975   17.7005   21.0501 H   0  0  0  0  0  0  0  0  0  0  0  0
   18.2313   19.1492   22.0413 H   0  0  0  0  0  0  0  0  0  0  0  0
  1  2  1  0  0  0  0
  1  3  2  0  0  0  0
  1  4  1  0  0  0  0
  4  5  1  0  0  0  0
  4  6  1  0  0  0  0
  4  7  1  0  0  0  0
  7  8  1  0  0  0  0
  7  9  1  0  0  0  0
  7 10  1  0  0  0  0
 10 11  1  0  0  0  0
 10 12  1  0  0  0  0
 10 13  1  0  0  0  0
 13 14  1  0  0  0  0
 13 15  1  0  0  0  0
 13 16  1  0  0  0  0
 16 17  1  0  0  0  0
 16 18  1  0  0  0  0
 16 19  1  0  0  0  0
M  END
> <VM2 Rank>
27

> <Conf_Id>
308

> <Probability>
0.00

> <Sum Probability>
100.00

> <Delta G>
5.642

> <G>
-20.509

> <E>
-36.490

> <-TS>
15.981

> <U+W>
-51.692

> <U>
12.631

> <W>
-64.323

> <W(PB)>
-66.284

> <W(SA)>
1.961

> <Valence>
9.240

> <Coulomb>
3.215

> <VdW>
0.176

> <VdW6>
-8.726

> <VdW12>
8.902

> <Bond>
0.204

> <Angle>
3.669

> <Pdih>
5.348

> <Idih>
0.019

> <Tether>
0.000

$$$$
VeraChem MOL file


 19 18  0  0  0  0  0  0  0  0999 V2000     
   20.2643   19.3259   24.6899 C   0  0  0  0  0  0  0  0  0  0  0  0
   21.2292   18.6581   25.0065 O   0  5  0  0  0  0  0  0  0  0  0  0
   20.2313   20.5379   24.7754 O   0  0  0  0  0  0  0  0  0  0  0  0
   18.9886   18.5967   24.2730 C   0  0  0  0  0  0  0  0  0  0  0  0
   18.2204   18.8788   25.0024 H   0  0  0  0  0  0  0  0  0  0  0  0
   19.1425   17.5163   24.3824 H   0  0  0  0  0  0  0  0  0  0  0  0
   18.4722   18.9265   22.8442 C   0  0  0  0  0  0  0  0  0  0  0  0
   17.4026   18.6796   22.8088 H   0  0  0  0  0  0  0  0  0  0  0  0
   18.5321   20.0077   22.6618 H   0  0  0  0  0  0  0  0  0  0  0  0
   19.1693   18.1385   21.7046 C   0  0  0  0  0  0  0  0  0  0  0  0
   18.6298   18.3309   20.7672 H   0  0  0  0  0  0  0  0  0  0  0  0
   19.0613   17.0625   21.8978 H   0  0  0  0  0  0  0  0  0  0  0  0
   20.6671   18.4578   21.4820 C   0  0  0  0  0  0  0  0  0  0  0  0
   21.2494   18.1953   22.3743 H   0  0  0  0  0  0  0  0  0  0  0  0
   21.0443   17.8138   20.6759 H   0  0  0  0  0  0  0  0  0  0  0  0
   20.9280   19.9306   21.0995 C   0  0  0  0  0  0  0  0  0  0  0  0
   20.6741   20.6074   21.9253 H   0  0  0  0  0  0  0  0  0  0  0  0
   21.9884   20.0828   20.8607 H   0  0  0  0  0  0  0  0  0  0  0  0
   20.3371   20.2201   20.2210 H   0  0  0  0  0  0  0  0  0  0  0  0
  1  2  1  0  0  0  0
  1  3  2  0  0  0  0
  1  4  1  0  0  0  0
  4  5  1  0  0  0  0
  4  6  1  0  0  0  0
  4  7  1  0  0  0  0
  7  8  1  0  0  0  0
  7  9  1  0  0  0  0
  7 10  1  0  0  0  0
 10 11  1  0  0  0  0
 10 12  1  0  0  0  0
 10 13  1  0  0  0  0
 13 14  1  0  0  0  0
 13 15  1  0  0  0  0
 13 16  1  0  0  0  0
 16 17  1  0  0  0  0
 16 18  1  0  0  0  0
 16 19  1  0  0  0  0
M  END
> <VM2 Rank>
28

> <Conf_Id>
155

> <Probability>
0.00

> <Sum Probability>
100.00

> <Delta G>
5.656

> <G>
-20.495

> <E>
-36.476

> <-TS>
15.981

> <U+W>
-51.678

> <U>
12.630

> <W>
-64.308

> <W(PB)>
-66.285

> <W(SA)>
1.977

> <Valence>
9.239

> <Coulomb>
3.214

> <VdW>
0.176

> <VdW6>
-8.726

> <VdW12>
8.902

> <Bond>
0.204

> <Angle>
3.670

> <Pdih>
5.348

> <Idih>
0.018

> <Tether>
0.000

$$$$
VeraChem MOL file


 19 18  0  0  0  0  0  0  0  0999 V2000     
   19.7862   19.4280   24.7779 C   0  0  0  0  0  0  0  0  0  0  0  0
   19.6731   18.5573   25.6187 O   0  5  0  0  0  0  0  0  0  0  0  0
   18.9795   20.3247   24.6318 O   0  0  0  0  0  0  0  0  0  0  0  0
   21.0387   19.4293   23.9033 C   0  0  0  0  0  0  0  0  0  0  0  0
   21.8959   19.5561   24.5745 H   0  0  0  0  0  0  0  0  0  0  0  0
   21.0230   20.3115   23.2544 H   0  0  0  0  0  0  0  0  0  0  0  0
   21.2377   18.1390   23.0634 C   0  0  0  0  0  0  0  0  0  0  0  0
   22.2105   18.1869   22.5559 H   0  0  0  0  0  0  0  0  0  0  0  0
   21.2961   17.2829   23.7498 H   0  0  0  0  0  0  0  0  0  0  0  0
   20.1307   17.8573   22.0155 C   0  0  0  0  0  0  0  0  0  0  0  0
   19.1491   17.7892   22.5047 H   0  0  0  0  0  0  0  0  0  0  0  0
   20.3229   16.8602   21.5964 H   0  0  0  0  0  0  0  0  0  0  0  0
   20.0835   18.8658   20.8404 C   0  0  0  0  0  0  0  0  0  0  0  0
   21.0736   19.3145   20.6810 H   0  0  0  0  0  0  0  0  0  0  0  0
   19.8453   18.3176   19.9184 H   0  0  0  0  0  0  0  0  0  0  0  0
   19.0206   19.9706   21.0240 C   0  0  0  0  0  0  0  0  0  0  0  0
   18.0187   19.5352   21.1310 H   0  0  0  0  0  0  0  0  0  0  0  0
   19.2180   20.5825   21.9113 H   0  0  0  0  0  0  0  0  0  0  0  0
   19.0060   20.6387   20.1533 H   0  0  0  0  0  0  0  0  0  0  0  0
  1  2  1  0  0  0  0
  1  3  2  0  0  0  0
  1  4  1  0  0  0  0
  4  5  1  0  0  0  0
  4  6  1  0  0  0  0
  4  7  1  0  0  0  0
  7  8  1  0  0  0  0
  7  9  1  0  0  0  0
  7 10  1  0  0  0  0
 10 11  1  0  0  0  0
 10 12  1  0  0  0  0
 10 13  1  0  0  0  0
 13 14  1  0  0  0  0
 13 15  1  0  0  0  0
 13 16  1  0  0  0  0
 16 17  1  0  0  0  0
 16 18  1  0  0  0  0
 16 19  1  0  0  0  0
M  END
> <VM2 Rank>
29

> <Conf_Id>
147

> <Probability>
0.00

> <Sum Probability>
100.00

> <Delta G>
6.292

> <G>
-19.860

> <E>
-35.286

> <-TS>
15.426

> <U+W>
-50.488

> <U>
13.498

> <W>
-63.986

> <W(PB)>
-65.975

> <W(SA)>
1.989

> <Valence>
10.296

> <Coulomb>
2.920

> <VdW>
0.283

> <VdW6>
-8.220

> <VdW12>
8.503

> <Bond>
0.193

> <Angle>
3.406

> <Pdih>
6.691

> <Idih>
0.006

> <Tether>
0.000

$$$$
VeraChem MOL file


 19 18  0  0  0  0  0  0  0  0999 V2000     
   20.1050   19.5334   24.6357 C   0  0  0  0  0  0  0  0  0  0  0  0
   21.0797   18.9614   25.0839 O   0  5  0  0  0  0  0  0  0  0  0  0
   19.9598   20.7389   24.6858 O   0  0  0  0  0  0  0  0  0  0  0  0
   18.9453   18.6949   24.0958 C   0  0  0  0  0  0  0  0  0  0  0  0
   18.2265   19.3573   23.5987 H   0  0  0  0  0  0  0  0  0  0  0  0
   18.4349   18.2834   24.9740 H   0  0  0  0  0  0  0  0  0  0  0  0
   19.3402   17.5245   23.1504 C   0  0  0  0  0  0  0  0  0  0  0  0
   20.2398   17.0215   23.5310 H   0  0  0  0  0  0  0  0  0  0  0  0
   18.5399   16.7733   23.1916 H   0  0  0  0  0  0  0  0  0  0  0  0
   19.5406   17.9103   21.6624 C   0  0  0  0  0  0  0  0  0  0  0  0
   18.6079   18.3215   21.2525 H   0  0  0  0  0  0  0  0  0  0  0  0
   19.7252   16.9825   21.1037 H   0  0  0  0  0  0  0  0  0  0  0  0
   20.7195   18.8755   21.3898 C   0  0  0  0  0  0  0  0  0  0  0  0
   21.4541   18.8247   22.2053 H   0  0  0  0  0  0  0  0  0  0  0  0
   21.2469   18.5444   20.4846 H   0  0  0  0  0  0  0  0  0  0  0  0
   20.2600   20.3330   21.1713 C   0  0  0  0  0  0  0  0  0  0  0  0
   21.1243   20.9883   21.0031 H   0  0  0  0  0  0  0  0  0  0  0  0
   19.6028   20.4090   20.2953 H   0  0  0  0  0  0  0  0  0  0  0  0
   19.7119   20.7160   22.0399 H   0  0  0  0  0  0  0  0  0  0  0  0
  1  2  1  0  0  0  0
  1  3  2  0  0  0  0
  1  4  1  0  0  0  0
  4  5  1  0  0  0  0
  4  6  1  0  0  0  0
  4  7  1  0  0  0  0
  7  8  1  0  0  0  0
  7  9  1  0  0  0  0
  7 10  1  0  0  0  0
 10 11  1  0  0  0  0
 10 12  1  0  0  0  0
 10 13  1  0  0  0  0
 13 14  1  0  0  0  0
 13 15  1  0  0  0  0
 13 16  1  0  0  0  0
 16 17  1  0  0  0  0
 16 18  1  0  0  0  0
 16 19  1  0  0  0  0
M  END
> <VM2 Rank>
30

> <Conf_Id>
55

> <Probability>
0.00

> <Sum Probability>
100.00

> <Delta G>
8.072

> <G>
-18.079

> <E>
-33.870

> <-TS>
15.790

> <U+W>
-49.072

> <U>
15.324

> <W>
-64.395

> <W(PB)>
-66.381

> <W(SA)>
1.986

> <Valence>
11.748

> <Coulomb>
3.201

> <VdW>
0.375

> <VdW6>
-8.854

> <VdW12>
9.229

> <Bond>
0.216

> <Angle>
3.812

> <Pdih>
7.698

> <Idih>
0.022

> <Tether>
0.000

$$$$
VeraChem MOL file


 19 18  0  0  0  0  0  0  0  0999 V2000     
   20.3139   19.0957   24.6787 C   0  0  0  0  0  0  0  0  0  0  0  0
   21.1476   18.2484   24.9314 O   0  5  0  0  0  0  0  0  0  0  0  0
   20.4551   20.2712   24.9547 O   0  0  0  0  0  0  0  0  0  0  0  0
   18.9753   18.6322   24.1019 C   0  0  0  0  0  0  0  0  0  0  0  0
   18.2686   18.6320   24.9397 H   0  0  0  0  0  0  0  0  0  0  0  0
   19.0694   17.5905   23.7726 H   0  0  0  0  0  0  0  0  0  0  0  0
   18.3941   19.5077   22.9551 C   0  0  0  0  0  0  0  0  0  0  0  0
   17.3058   19.3602   22.9368 H   0  0  0  0  0  0  0  0  0  0  0  0
   18.5459   20.5721   23.1814 H   0  0  0  0  0  0  0  0  0  0  0  0
   18.9311   19.1876   21.5366 C   0  0  0  0  0  0  0  0  0  0  0  0
   18.3748   19.8129   20.8249 H   0  0  0  0  0  0  0  0  0  0  0  0
   18.6899   18.1496   21.2694 H   0  0  0  0  0  0  0  0  0  0  0  0
   20.4414   19.4583   21.3323 C   0  0  0  0  0  0  0  0  0  0  0  0
   20.5881   19.9250   20.3485 H   0  0  0  0  0  0  0  0  0  0  0  0
   20.8047   20.1860   22.0711 H   0  0  0  0  0  0  0  0  0  0  0  0
   21.2915   18.1708   21.3843 C   0  0  0  0  0  0  0  0  0  0  0  0
   21.0012   17.4776   20.5842 H   0  0  0  0  0  0  0  0  0  0  0  0
   22.3559   18.4066   21.2573 H   0  0  0  0  0  0  0  0  0  0  0  0
   21.1746   17.6504   22.3420 H   0  0  0  0  0  0  0  0  0  0  0  0
  1  2  1  0  0  0  0
  1  3  2  0  0  0  0
  1  4  1  0  0  0  0
  4  5  1  0  0  0  0
  4  6  1  0  0  0  0
  4  7  1  0  0  0  0
  7  8  1  0  0  0  0
  7  9  1  0  0  0  0
  7 10  1  0  0  0  0
 10 11  1  0  0  0  0
 10 12  1  0  0  0  0
 10 13  1  0  0  0  0
 13 14  1  0  0  0  0
 13 15  1  0  0  0  0
 13 16  1  0  0  0  0
 16 17  1  0  0  0  0
 16 18  1  0  0  0  0
 16 19  1  0  0  0  0
M  END
> <VM2 Rank>
31

> <Conf_Id>
307

> <Probability>
0.00

> <Sum Probability>
100.00

> <Delta G>
8.154

> <G>
-17.997

> <E>
-33.787

> <-TS>
15.790

> <U+W>
-48.989

> <U>
15.323

> <W>
-64.312

> <W(PB)>
-66.302

> <W(SA)>
1.990

> <Valence>
11.748

> <Coulomb>
3.200

> <VdW>
0.375

> <VdW6>
-8.854

> <VdW12>
9.229

> <Bond>
0.216

> <Angle>
3.812

> <Pdih>
7.698

> <Idih>
0.021

> <Tether>
0.000

$$$$
