@<TRIPOS>MOLECULE
guest-8_vm2.mol2 : vm2 ligand conformer 1
          25          24           1
SMALL
USER_CHARGES
 
@<TRIPOS>ATOM
       1    C1      20.160207   19.340141   27.808437 C.2        1 MOL1         0.6168
       2    O1      21.215959   19.705343   28.286596 O.co2      1 MOL1        -0.6703
       3    O2      19.078053   19.568689   28.311756 O.co2      1 MOL1        -0.6703
       4    C2      20.193796   18.572363   26.491825 C.3        1 MOL1        -0.1963
       5    H1      19.354156   17.866963   26.487357 H          1 MOL1         0.0750
       6    H2      21.115840   17.979222   26.466853 H          1 MOL1         0.0750
       7    C3      20.120332   19.499027   25.253312 C.3        1 MOL1        -0.1860
       8    H3      19.198376   20.095168   25.300304 H          1 MOL1         0.0752
       9    H4      20.959942   20.207507   25.279880 H          1 MOL1         0.0752
      10    C4      20.156087   18.698580   23.933454 C.3        1 MOL1        -0.1858
      11    H5      19.316269   17.990510   23.910548 H          1 MOL1         0.0752
      12    H6      21.078239   18.102808   23.890189 H          1 MOL1         0.0752
      13    C5      20.082805   19.624957   22.700603 C.3        1 MOL1        -0.1858
      14    H7      19.160682   20.220730   22.743589 H          1 MOL1         0.0752
      15    H8      20.922500   20.333124   22.723327 H          1 MOL1         0.0752
      16    C6      20.118652   18.825207   21.380379 C.3        1 MOL1        -0.1858
      17    H9      19.279016   18.116988   21.357305 H          1 MOL1         0.0752
      18    H10     21.040699   18.229346   21.337087 H          1 MOL1         0.0752
      19    C7      20.045465   19.751015   20.147950 C.3        1 MOL1        -0.1834
      20    H11     19.123303   20.347334   20.186785 H          1 MOL1         0.0752
      21    H12     20.884972   20.459793   20.166653 H          1 MOL1         0.0752
      22    C8      20.081645   18.948677   18.831687 C.3        1 MOL1        -0.2849
      23    H13     19.234106   18.253321   18.772072 H          1 MOL1         0.0764
      24    H14     20.028865   19.622199   17.966431 H          1 MOL1         0.0764
      25    H15     21.009044   18.366475   18.751879 H          1 MOL1         0.0764
@<TRIPOS>BOND
    1     1     2    1
    2     1     3    2
    3     1     4    1
    4     4     5    1
    5     4     6    1
    6     4     7    1
    7     7     8    1
    8     7     9    1
    9     7    10    1
   10    10    11    1
   11    10    12    1
   12    10    13    1
   13    13    14    1
   14    13    15    1
   15    13    16    1
   16    16    17    1
   17    16    18    1
   18    16    19    1
   19    19    20    1
   20    19    21    1
   21    19    22    1
   22    22    23    1
   23    22    24    1
   24    22    25    1
@<TRIPOS>SUBSTRUCTURE
       1 MOL1            1 RESIDUE      1      MOL     
@<SCITEGIC>MOL_PROPERTY
VM2 Rank
SciTegic.value.IntegerValue
1

@<SCITEGIC>MOL_PROPERTY
Conf_Id
SciTegic.value.IntegerValue
1130

@<SCITEGIC>MOL_PROPERTY
Probability
SciTegic.value.DoubleValue
22.96

@<SCITEGIC>MOL_PROPERTY
Sum Probability
SciTegic.value.DoubleValue
22.96

@<SCITEGIC>MOL_PROPERTY
Delta G
SciTegic.value.DoubleValue
0.000

@<SCITEGIC>MOL_PROPERTY
G
SciTegic.value.DoubleValue
-7.962

@<SCITEGIC>MOL_PROPERTY
E
SciTegic.value.DoubleValue
-32.361

@<SCITEGIC>MOL_PROPERTY
-TS
SciTegic.value.DoubleValue
24.398

@<SCITEGIC>MOL_PROPERTY
U+W
SciTegic.value.DoubleValue
-52.928

@<SCITEGIC>MOL_PROPERTY
U
SciTegic.value.DoubleValue
5.617

@<SCITEGIC>MOL_PROPERTY
W
SciTegic.value.DoubleValue
-58.543

@<SCITEGIC>MOL_PROPERTY
W(PB)
SciTegic.value.DoubleValue
-61.065

@<SCITEGIC>MOL_PROPERTY
W(SA)
SciTegic.value.DoubleValue
2.522

@<SCITEGIC>MOL_PROPERTY
Valence
SciTegic.value.DoubleValue
7.531

@<SCITEGIC>MOL_PROPERTY
Coulomb
SciTegic.value.DoubleValue
-2.818

@<SCITEGIC>MOL_PROPERTY
VdW
SciTegic.value.DoubleValue
0.904

@<SCITEGIC>MOL_PROPERTY
VdW6
SciTegic.value.DoubleValue
-7.640

@<SCITEGIC>MOL_PROPERTY
VdW12
SciTegic.value.DoubleValue
8.544

@<SCITEGIC>MOL_PROPERTY
Bond
SciTegic.value.DoubleValue
0.115

@<SCITEGIC>MOL_PROPERTY
Angle
SciTegic.value.DoubleValue
2.271

@<SCITEGIC>MOL_PROPERTY
Pdih
SciTegic.value.DoubleValue
5.144

@<SCITEGIC>MOL_PROPERTY
Idih
SciTegic.value.DoubleValue
0.001

@<SCITEGIC>MOL_PROPERTY
Tether
SciTegic.value.DoubleValue
0.000

@<TRIPOS>MOLECULE
guest-8_vm2.mol2 : vm2 ligand conformer 2
          25          24           1
SMALL
USER_CHARGES
 
@<TRIPOS>ATOM
       1    C1      19.860758   19.163511   27.540730 C.2        1 MOL1         0.6168
       2    O1      20.674364   18.786573   28.360905 O.co2      1 MOL1        -0.6703
       3    O2      18.868329   19.805504   27.822899 O.co2      1 MOL1        -0.6703
       4    C2      20.111600   18.833046   26.073791 C.3        1 MOL1        -0.1963
       5    H1      19.136981   18.696581   25.591907 H          1 MOL1         0.0750
       6    H2      20.636034   17.871211   26.026746 H          1 MOL1         0.0750
       7    C3      20.934001   19.927389   25.344977 C.3        1 MOL1        -0.1860
       8    H3      20.377847   20.874930   25.359452 H          1 MOL1         0.0752
       9    H4      21.861758   20.103919   25.906734 H          1 MOL1         0.0752
      10    C4      21.299667   19.557827   23.887716 C.3        1 MOL1        -0.1858
      11    H5      21.864700   18.615681   23.877745 H          1 MOL1         0.0752
      12    H6      21.974423   20.329013   23.491518 H          1 MOL1         0.0752
      13    C5      20.070881   19.438499   22.956870 C.3        1 MOL1        -0.1858
      14    H7      19.421367   18.621299   23.296319 H          1 MOL1         0.0752
      15    H8      19.479221   20.362637   23.009740 H          1 MOL1         0.0752
      16    C6      20.487547   19.176688   21.493307 C.3        1 MOL1        -0.1858
      17    H9      21.082648   18.254634   21.440804 H          1 MOL1         0.0752
      18    H10     21.132738   19.994028   21.142970 H          1 MOL1         0.0752
      19    C7      19.262807   19.053040   20.562611 C.3        1 MOL1        -0.1834
      20    H11     18.615938   18.234738   20.908180 H          1 MOL1         0.0752
      21    H12     18.665842   19.974292   20.611634 H          1 MOL1         0.0752
      22    C8      19.683046   18.791924   19.102194 C.3        1 MOL1        -0.2849
      23    H13     20.255604   17.858834   19.019056 H          1 MOL1         0.0764
      24    H14     18.800488   18.706767   18.454953 H          1 MOL1         0.0764
      25    H15     20.305733   19.611472   18.720103 H          1 MOL1         0.0764
@<TRIPOS>BOND
    1     1     2    1
    2     1     3    2
    3     1     4    1
    4     4     5    1
    5     4     6    1
    6     4     7    1
    7     7     8    1
    8     7     9    1
    9     7    10    1
   10    10    11    1
   11    10    12    1
   12    10    13    1
   13    13    14    1
   14    13    15    1
   15    13    16    1
   16    16    17    1
   17    16    18    1
   18    16    19    1
   19    19    20    1
   20    19    21    1
   21    19    22    1
   22    22    23    1
   23    22    24    1
   24    22    25    1
@<TRIPOS>SUBSTRUCTURE
       1 MOL1            1 RESIDUE      1      MOL     
@<SCITEGIC>MOL_PROPERTY
VM2 Rank
SciTegic.value.IntegerValue
2

@<SCITEGIC>MOL_PROPERTY
Conf_Id
SciTegic.value.IntegerValue
1266

@<SCITEGIC>MOL_PROPERTY
Probability
SciTegic.value.DoubleValue
5.67

@<SCITEGIC>MOL_PROPERTY
Sum Probability
SciTegic.value.DoubleValue
28.63

@<SCITEGIC>MOL_PROPERTY
Delta G
SciTegic.value.DoubleValue
0.834

@<SCITEGIC>MOL_PROPERTY
G
SciTegic.value.DoubleValue
-7.128

@<SCITEGIC>MOL_PROPERTY
E
SciTegic.value.DoubleValue
-31.637

@<SCITEGIC>MOL_PROPERTY
-TS
SciTegic.value.DoubleValue
24.508

@<SCITEGIC>MOL_PROPERTY
U+W
SciTegic.value.DoubleValue
-52.204

@<SCITEGIC>MOL_PROPERTY
U
SciTegic.value.DoubleValue
6.575

@<SCITEGIC>MOL_PROPERTY
W
SciTegic.value.DoubleValue
-58.780

@<SCITEGIC>MOL_PROPERTY
W(PB)
SciTegic.value.DoubleValue
-61.323

@<SCITEGIC>MOL_PROPERTY
W(SA)
SciTegic.value.DoubleValue
2.543

@<SCITEGIC>MOL_PROPERTY
Valence
SciTegic.value.DoubleValue
8.051

@<SCITEGIC>MOL_PROPERTY
Coulomb
SciTegic.value.DoubleValue
-2.490

@<SCITEGIC>MOL_PROPERTY
VdW
SciTegic.value.DoubleValue
1.015

@<SCITEGIC>MOL_PROPERTY
VdW6
SciTegic.value.DoubleValue
-8.339

@<SCITEGIC>MOL_PROPERTY
VdW12
SciTegic.value.DoubleValue
9.354

@<SCITEGIC>MOL_PROPERTY
Bond
SciTegic.value.DoubleValue
0.157

@<SCITEGIC>MOL_PROPERTY
Angle
SciTegic.value.DoubleValue
2.513

@<SCITEGIC>MOL_PROPERTY
Pdih
SciTegic.value.DoubleValue
5.379

@<SCITEGIC>MOL_PROPERTY
Idih
SciTegic.value.DoubleValue
0.001

@<SCITEGIC>MOL_PROPERTY
Tether
SciTegic.value.DoubleValue
0.000

@<TRIPOS>MOLECULE
guest-8_vm2.mol2 : vm2 ligand conformer 3
          25          24           1
SMALL
USER_CHARGES
 
@<TRIPOS>ATOM
       1    C1      20.131668   19.707468   27.520800 C.2        1 MOL1         0.6168
       2    O1      20.946614   19.333246   28.340892 O.co2      1 MOL1        -0.6703
       3    O2      19.029564   20.129197   27.810970 O.co2      1 MOL1        -0.6703
       4    C2      20.503571   19.619971   26.044972 C.3        1 MOL1        -0.1963
       5    H1      21.585242   19.776861   25.956973 H          1 MOL1         0.0750
       6    H2      20.010757   20.450774   25.527655 H          1 MOL1         0.0750
       7    C3      20.105547   18.264150   25.405887 C.3        1 MOL1        -0.1860
       8    H3      20.540483   17.451321   26.003889 H          1 MOL1         0.0752
       9    H4      19.015198   18.139248   25.459632 H          1 MOL1         0.0752
      10    C4      20.578094   18.109141   23.940769 C.3        1 MOL1        -0.1858
      11    H5      20.358226   17.084720   23.610291 H          1 MOL1         0.0752
      12    H6      21.669648   18.223786   23.892109 H          1 MOL1         0.0752
      13    C5      19.905496   19.106168   22.969078 C.3        1 MOL1        -0.1858
      14    H7      18.813509   19.026232   23.058859 H          1 MOL1         0.0752
      15    H8      20.175782   20.134751   23.240871 H          1 MOL1         0.0752
      16    C6      20.322432   18.845259   21.505429 C.3        1 MOL1        -0.1858
      17    H9      20.049057   17.819418   21.222643 H          1 MOL1         0.0752
      18    H10     21.414846   18.921167   21.416225 H          1 MOL1         0.0752
      19    C7      19.655754   19.841727   20.533795 C.3        1 MOL1        -0.1834
      20    H11     18.562756   19.767640   20.619485 H          1 MOL1         0.0752
      21    H12     19.928810   20.869200   20.811672 H          1 MOL1         0.0752
      22    C8      20.074258   19.577673   19.073408 C.3        1 MOL1        -0.2849
      23    H13     19.784558   18.566601   18.758452 H          1 MOL1         0.0764
      24    H14     19.591381   20.294745   18.396859 H          1 MOL1         0.0764
      25    H15     21.160987   19.676334   18.952257 H          1 MOL1         0.0764
@<TRIPOS>BOND
    1     1     2    1
    2     1     3    2
    3     1     4    1
    4     4     5    1
    5     4     6    1
    6     4     7    1
    7     7     8    1
    8     7     9    1
    9     7    10    1
   10    10    11    1
   11    10    12    1
   12    10    13    1
   13    13    14    1
   14    13    15    1
   15    13    16    1
   16    16    17    1
   17    16    18    1
   18    16    19    1
   19    19    20    1
   20    19    21    1
   21    19    22    1
   22    22    23    1
   23    22    24    1
   24    22    25    1
@<TRIPOS>SUBSTRUCTURE
       1 MOL1            1 RESIDUE      1      MOL     
@<SCITEGIC>MOL_PROPERTY
VM2 Rank
SciTegic.value.IntegerValue
3

@<SCITEGIC>MOL_PROPERTY
Conf_Id
SciTegic.value.IntegerValue
1028

@<SCITEGIC>MOL_PROPERTY
Probability
SciTegic.value.DoubleValue
5.44

@<SCITEGIC>MOL_PROPERTY
Sum Probability
SciTegic.value.DoubleValue
34.07

@<SCITEGIC>MOL_PROPERTY
Delta G
SciTegic.value.DoubleValue
0.858

@<SCITEGIC>MOL_PROPERTY
G
SciTegic.value.DoubleValue
-7.104

@<SCITEGIC>MOL_PROPERTY
E
SciTegic.value.DoubleValue
-31.613

@<SCITEGIC>MOL_PROPERTY
-TS
SciTegic.value.DoubleValue
24.509

@<SCITEGIC>MOL_PROPERTY
U+W
SciTegic.value.DoubleValue
-52.180

@<SCITEGIC>MOL_PROPERTY
U
SciTegic.value.DoubleValue
6.575

@<SCITEGIC>MOL_PROPERTY
W
SciTegic.value.DoubleValue
-58.756

@<SCITEGIC>MOL_PROPERTY
W(PB)
SciTegic.value.DoubleValue
-61.294

@<SCITEGIC>MOL_PROPERTY
W(SA)
SciTegic.value.DoubleValue
2.538

@<SCITEGIC>MOL_PROPERTY
Valence
SciTegic.value.DoubleValue
8.051

@<SCITEGIC>MOL_PROPERTY
Coulomb
SciTegic.value.DoubleValue
-2.490

@<SCITEGIC>MOL_PROPERTY
VdW
SciTegic.value.DoubleValue
1.015

@<SCITEGIC>MOL_PROPERTY
VdW6
SciTegic.value.DoubleValue
-8.339

@<SCITEGIC>MOL_PROPERTY
VdW12
SciTegic.value.DoubleValue
9.354

@<SCITEGIC>MOL_PROPERTY
Bond
SciTegic.value.DoubleValue
0.157

@<SCITEGIC>MOL_PROPERTY
Angle
SciTegic.value.DoubleValue
2.514

@<SCITEGIC>MOL_PROPERTY
Pdih
SciTegic.value.DoubleValue
5.379

@<SCITEGIC>MOL_PROPERTY
Idih
SciTegic.value.DoubleValue
0.001

@<SCITEGIC>MOL_PROPERTY
Tether
SciTegic.value.DoubleValue
0.000

@<TRIPOS>MOLECULE
guest-8_vm2.mol2 : vm2 ligand conformer 4
          25          24           1
SMALL
USER_CHARGES
 
@<TRIPOS>ATOM
       1    C1      20.130889   19.167744   27.705069 C.2        1 MOL1         0.6168
       2    O1      21.228017   19.246379   28.221558 O.co2      1 MOL1        -0.6703
       3    O2      19.229563   18.478607   28.140190 O.co2      1 MOL1        -0.6703
       4    C2      19.878638   19.959791   26.427132 C.3        1 MOL1        -0.1963
       5    H1      20.468216   20.883121   26.476673 H          1 MOL1         0.0750
       6    H2      18.821409   20.250584   26.409712 H          1 MOL1         0.0750
       7    C3      20.235832   19.165291   25.146820 C.3        1 MOL1        -0.1860
       8    H3      21.293707   18.870421   25.185912 H          1 MOL1         0.0752
       9    H4      19.647062   18.237837   25.119190 H          1 MOL1         0.0752
      10    C4      19.971697   19.987969   23.867145 C.3        1 MOL1        -0.1858
      11    H5      20.560455   20.915042   23.899006 H          1 MOL1         0.0752
      12    H6      18.913601   20.281735   23.831204 H          1 MOL1         0.0752
      13    C5      20.328804   19.193378   22.592374 C.3        1 MOL1        -0.1858
      14    H7      21.387526   18.902247   22.626098 H          1 MOL1         0.0752
      15    H8      19.741405   18.266250   22.570197 H          1 MOL1         0.0752
      16    C6      20.060378   20.017159   21.311683 C.3        1 MOL1        -0.1858
      17    H9      20.599265   20.971958   21.381461 H          1 MOL1         0.0752
      18    H10     18.992325   20.266656   21.249073 H          1 MOL1         0.0752
      19    C7      20.500470   19.298779   20.014829 C.3        1 MOL1        -0.1834
      20    H11     20.385686   19.993081   19.171020 H          1 MOL1         0.0752
      21    H12     21.570011   19.053373   20.071224 H          1 MOL1         0.0752
      22    C8      19.688711   18.018903   19.719201 C.3        1 MOL1        -0.2849
      23    H13     18.612757   18.234450   19.687816 H          1 MOL1         0.0764
      24    H14     19.977318   17.597221   18.747706 H          1 MOL1         0.0764
      25    H15     19.863810   17.248485   20.480452 H          1 MOL1         0.0764
@<TRIPOS>BOND
    1     1     2    1
    2     1     3    2
    3     1     4    1
    4     4     5    1
    5     4     6    1
    6     4     7    1
    7     7     8    1
    8     7     9    1
    9     7    10    1
   10    10    11    1
   11    10    12    1
   12    10    13    1
   13    13    14    1
   14    13    15    1
   15    13    16    1
   16    16    17    1
   17    16    18    1
   18    16    19    1
   19    19    20    1
   20    19    21    1
   21    19    22    1
   22    22    23    1
   23    22    24    1
   24    22    25    1
@<TRIPOS>SUBSTRUCTURE
       1 MOL1            1 RESIDUE      1      MOL     
@<SCITEGIC>MOL_PROPERTY
VM2 Rank
SciTegic.value.IntegerValue
4

@<SCITEGIC>MOL_PROPERTY
Conf_Id
SciTegic.value.IntegerValue
921

@<SCITEGIC>MOL_PROPERTY
Probability
SciTegic.value.DoubleValue
5.00

@<SCITEGIC>MOL_PROPERTY
Sum Probability
SciTegic.value.DoubleValue
39.06

@<SCITEGIC>MOL_PROPERTY
Delta G
SciTegic.value.DoubleValue
0.909

@<SCITEGIC>MOL_PROPERTY
G
SciTegic.value.DoubleValue
-7.053

@<SCITEGIC>MOL_PROPERTY
E
SciTegic.value.DoubleValue
-31.561

@<SCITEGIC>MOL_PROPERTY
-TS
SciTegic.value.DoubleValue
24.508

@<SCITEGIC>MOL_PROPERTY
U+W
SciTegic.value.DoubleValue
-52.129

@<SCITEGIC>MOL_PROPERTY
U
SciTegic.value.DoubleValue
6.630

@<SCITEGIC>MOL_PROPERTY
W
SciTegic.value.DoubleValue
-58.759

@<SCITEGIC>MOL_PROPERTY
W(PB)
SciTegic.value.DoubleValue
-61.280

@<SCITEGIC>MOL_PROPERTY
W(SA)
SciTegic.value.DoubleValue
2.521

@<SCITEGIC>MOL_PROPERTY
Valence
SciTegic.value.DoubleValue
8.032

@<SCITEGIC>MOL_PROPERTY
Coulomb
SciTegic.value.DoubleValue
-2.441

@<SCITEGIC>MOL_PROPERTY
VdW
SciTegic.value.DoubleValue
1.039

@<SCITEGIC>MOL_PROPERTY
VdW6
SciTegic.value.DoubleValue
-8.257

@<SCITEGIC>MOL_PROPERTY
VdW12
SciTegic.value.DoubleValue
9.295

@<SCITEGIC>MOL_PROPERTY
Bond
SciTegic.value.DoubleValue
0.146

@<SCITEGIC>MOL_PROPERTY
Angle
SciTegic.value.DoubleValue
2.498

@<SCITEGIC>MOL_PROPERTY
Pdih
SciTegic.value.DoubleValue
5.387

@<SCITEGIC>MOL_PROPERTY
Idih
SciTegic.value.DoubleValue
0.001

@<SCITEGIC>MOL_PROPERTY
Tether
SciTegic.value.DoubleValue
0.000

@<TRIPOS>MOLECULE
guest-8_vm2.mol2 : vm2 ligand conformer 5
          25          24           1
SMALL
USER_CHARGES
 
@<TRIPOS>ATOM
       1    C1      20.021531   19.170506   27.669843 C.2        1 MOL1         0.6168
       2    O1      21.060484   19.268915   28.292366 O.co2      1 MOL1        -0.6703
       3    O2      18.940856   19.517158   28.104133 O.co2      1 MOL1        -0.6703
       4    C2      20.080324   18.601097   26.256903 C.3        1 MOL1        -0.1963
       5    H1      19.142182   18.066289   26.065937 H          1 MOL1         0.0750
       6    H2      20.888657   17.860881   26.221284 H          1 MOL1         0.0750
       7    C3      20.304362   19.689726   25.178559 C.3        1 MOL1        -0.1860
       8    H3      19.493951   20.429675   25.235895 H          1 MOL1         0.0752
       9    H4      21.240320   20.224399   25.392215 H          1 MOL1         0.0752
      10    C4      20.360006   19.088396   23.757390 C.3        1 MOL1        -0.1858
      11    H5      19.423968   18.550642   23.558282 H          1 MOL1         0.0752
      12    H6      21.172557   18.351067   23.702465 H          1 MOL1         0.0752
      13    C5      20.579763   20.179838   22.684498 C.3        1 MOL1        -0.1858
      14    H7      19.740923   20.889076   22.700097 H          1 MOL1         0.0752
      15    H8      21.478851   20.756554   22.941288 H          1 MOL1         0.0752
      16    C6      20.752971   19.614045   21.254791 C.3        1 MOL1        -0.1858
      17    H9      21.594502   18.908043   21.237878 H          1 MOL1         0.0752
      18    H10     21.027495   20.440209   20.584724 H          1 MOL1         0.0752
      19    C7      19.483293   18.924505   20.706151 C.3        1 MOL1        -0.1834
      20    H11     19.235646   18.046396   21.316836 H          1 MOL1         0.0752
      21    H12     18.629529   19.612879   20.772783 H          1 MOL1         0.0752
      22    C8      19.669411   18.479815   19.241366 C.3        1 MOL1        -0.2849
      23    H13     19.880995   19.340109   18.592929 H          1 MOL1         0.0764
      24    H14     20.500760   17.768583   19.149807 H          1 MOL1         0.0764
      25    H15     18.761145   17.989448   18.867661 H          1 MOL1         0.0764
@<TRIPOS>BOND
    1     1     2    1
    2     1     3    2
    3     1     4    1
    4     4     5    1
    5     4     6    1
    6     4     7    1
    7     7     8    1
    8     7     9    1
    9     7    10    1
   10    10    11    1
   11    10    12    1
   12    10    13    1
   13    13    14    1
   14    13    15    1
   15    13    16    1
   16    16    17    1
   17    16    18    1
   18    16    19    1
   19    19    20    1
   20    19    21    1
   21    19    22    1
   22    22    23    1
   23    22    24    1
   24    22    25    1
@<TRIPOS>SUBSTRUCTURE
       1 MOL1            1 RESIDUE      1      MOL     
@<SCITEGIC>MOL_PROPERTY
VM2 Rank
SciTegic.value.IntegerValue
5

@<SCITEGIC>MOL_PROPERTY
Conf_Id
SciTegic.value.IntegerValue
1285

@<SCITEGIC>MOL_PROPERTY
Probability
SciTegic.value.DoubleValue
4.94

@<SCITEGIC>MOL_PROPERTY
Sum Probability
SciTegic.value.DoubleValue
44.00

@<SCITEGIC>MOL_PROPERTY
Delta G
SciTegic.value.DoubleValue
0.916

@<SCITEGIC>MOL_PROPERTY
G
SciTegic.value.DoubleValue
-7.047

@<SCITEGIC>MOL_PROPERTY
E
SciTegic.value.DoubleValue
-31.546

@<SCITEGIC>MOL_PROPERTY
-TS
SciTegic.value.DoubleValue
24.499

@<SCITEGIC>MOL_PROPERTY
U+W
SciTegic.value.DoubleValue
-52.114

@<SCITEGIC>MOL_PROPERTY
U
SciTegic.value.DoubleValue
6.583

@<SCITEGIC>MOL_PROPERTY
W
SciTegic.value.DoubleValue
-58.697

@<SCITEGIC>MOL_PROPERTY
W(PB)
SciTegic.value.DoubleValue
-61.199

@<SCITEGIC>MOL_PROPERTY
W(SA)
SciTegic.value.DoubleValue
2.502

@<SCITEGIC>MOL_PROPERTY
Valence
SciTegic.value.DoubleValue
8.069

@<SCITEGIC>MOL_PROPERTY
Coulomb
SciTegic.value.DoubleValue
-2.516

@<SCITEGIC>MOL_PROPERTY
VdW
SciTegic.value.DoubleValue
1.031

@<SCITEGIC>MOL_PROPERTY
VdW6
SciTegic.value.DoubleValue
-8.305

@<SCITEGIC>MOL_PROPERTY
VdW12
SciTegic.value.DoubleValue
9.335

@<SCITEGIC>MOL_PROPERTY
Bond
SciTegic.value.DoubleValue
0.150

@<SCITEGIC>MOL_PROPERTY
Angle
SciTegic.value.DoubleValue
2.522

@<SCITEGIC>MOL_PROPERTY
Pdih
SciTegic.value.DoubleValue
5.396

@<SCITEGIC>MOL_PROPERTY
Idih
SciTegic.value.DoubleValue
0.001

@<SCITEGIC>MOL_PROPERTY
Tether
SciTegic.value.DoubleValue
0.000

@<TRIPOS>MOLECULE
guest-8_vm2.mol2 : vm2 ligand conformer 6
          25          24           1
SMALL
USER_CHARGES
 
@<TRIPOS>ATOM
       1    C1      20.373866   19.642648   27.443316 C.2        1 MOL1         0.6168
       2    O1      21.515533   20.031613   27.591434 O.co2      1 MOL1        -0.6703
       3    O2      19.421353   20.108526   28.036900 O.co2      1 MOL1        -0.6703
       4    C2      20.119576   18.521848   26.441647 C.3        1 MOL1        -0.1963
       5    H1      19.273200   17.926524   26.804672 H          1 MOL1         0.0750
       6    H2      20.998276   17.865781   26.434117 H          1 MOL1         0.0750
       7    C3      19.832088   19.046039   25.013079 C.3        1 MOL1        -0.1860
       8    H3      18.955666   19.708245   25.039286 H          1 MOL1         0.0752
       9    H4      20.683498   19.654477   24.680804 H          1 MOL1         0.0752
      10    C4      19.582645   17.889507   24.017375 C.3        1 MOL1        -0.1858
      11    H5      18.779563   17.249424   24.407654 H          1 MOL1         0.0752
      12    H6      20.479000   17.257754   23.950799 H          1 MOL1         0.0752
      13    C5      19.181769   18.370035   22.602399 C.3        1 MOL1        -0.1858
      14    H7      18.904692   17.492269   22.002691 H          1 MOL1         0.0752
      15    H8      18.282498   18.997656   22.668117 H          1 MOL1         0.0752
      16    C6      20.304589   19.142743   21.872090 C.3        1 MOL1        -0.1858
      17    H9      21.218958   18.534054   21.856224 H          1 MOL1         0.0752
      18    H10     20.542016   20.064632   22.418604 H          1 MOL1         0.0752
      19    C7      19.901315   19.503583   20.426782 C.3        1 MOL1        -0.1834
      20    H11     19.669233   18.587203   19.866589 H          1 MOL1         0.0752
      21    H12     18.985725   20.111054   20.438798 H          1 MOL1         0.0752
      22    C8      21.020266   20.277459   19.700980 C.3        1 MOL1        -0.2849
      23    H13     21.250861   21.215747   20.222354 H          1 MOL1         0.0764
      24    H14     21.939868   19.680096   19.647407 H          1 MOL1         0.0764
      25    H15     20.716895   20.525328   18.675509 H          1 MOL1         0.0764
@<TRIPOS>BOND
    1     1     2    1
    2     1     3    2
    3     1     4    1
    4     4     5    1
    5     4     6    1
    6     4     7    1
    7     7     8    1
    8     7     9    1
    9     7    10    1
   10    10    11    1
   11    10    12    1
   12    10    13    1
   13    13    14    1
   14    13    15    1
   15    13    16    1
   16    16    17    1
   17    16    18    1
   18    16    19    1
   19    19    20    1
   20    19    21    1
   21    19    22    1
   22    22    23    1
   23    22    24    1
   24    22    25    1
@<TRIPOS>SUBSTRUCTURE
       1 MOL1            1 RESIDUE      1      MOL     
@<SCITEGIC>MOL_PROPERTY
VM2 Rank
SciTegic.value.IntegerValue
6

@<SCITEGIC>MOL_PROPERTY
Conf_Id
SciTegic.value.IntegerValue
1286

@<SCITEGIC>MOL_PROPERTY
Probability
SciTegic.value.DoubleValue
4.85

@<SCITEGIC>MOL_PROPERTY
Sum Probability
SciTegic.value.DoubleValue
48.86

@<SCITEGIC>MOL_PROPERTY
Delta G
SciTegic.value.DoubleValue
0.926

@<SCITEGIC>MOL_PROPERTY
G
SciTegic.value.DoubleValue
-7.036

@<SCITEGIC>MOL_PROPERTY
E
SciTegic.value.DoubleValue
-31.542

@<SCITEGIC>MOL_PROPERTY
-TS
SciTegic.value.DoubleValue
24.506

@<SCITEGIC>MOL_PROPERTY
U+W
SciTegic.value.DoubleValue
-52.110

@<SCITEGIC>MOL_PROPERTY
U
SciTegic.value.DoubleValue
7.044

@<SCITEGIC>MOL_PROPERTY
W
SciTegic.value.DoubleValue
-59.153

@<SCITEGIC>MOL_PROPERTY
W(PB)
SciTegic.value.DoubleValue
-61.665

@<SCITEGIC>MOL_PROPERTY
W(SA)
SciTegic.value.DoubleValue
2.511

@<SCITEGIC>MOL_PROPERTY
Valence
SciTegic.value.DoubleValue
8.064

@<SCITEGIC>MOL_PROPERTY
Coulomb
SciTegic.value.DoubleValue
-2.027

@<SCITEGIC>MOL_PROPERTY
VdW
SciTegic.value.DoubleValue
1.007

@<SCITEGIC>MOL_PROPERTY
VdW6
SciTegic.value.DoubleValue
-8.345

@<SCITEGIC>MOL_PROPERTY
VdW12
SciTegic.value.DoubleValue
9.352

@<SCITEGIC>MOL_PROPERTY
Bond
SciTegic.value.DoubleValue
0.151

@<SCITEGIC>MOL_PROPERTY
Angle
SciTegic.value.DoubleValue
2.518

@<SCITEGIC>MOL_PROPERTY
Pdih
SciTegic.value.DoubleValue
5.395

@<SCITEGIC>MOL_PROPERTY
Idih
SciTegic.value.DoubleValue
0.001

@<SCITEGIC>MOL_PROPERTY
Tether
SciTegic.value.DoubleValue
0.000

@<TRIPOS>MOLECULE
guest-8_vm2.mol2 : vm2 ligand conformer 7
          25          24           1
SMALL
USER_CHARGES
 
@<TRIPOS>ATOM
       1    C1      19.901534   19.612679   27.448735 C.2        1 MOL1         0.6168
       2    O1      20.800792   20.196386   28.020823 O.co2      1 MOL1        -0.6703
       3    O2      18.723513   19.854120   27.623697 O.co2      1 MOL1        -0.6703
       4    C2      20.272587   18.531576   26.439908 C.3        1 MOL1        -0.1963
       5    H1      19.484084   17.769527   26.451663 H          1 MOL1         0.0750
       6    H2      21.195647   18.048749   26.782530 H          1 MOL1         0.0750
       7    C3      20.458469   19.085794   25.005851 C.3        1 MOL1        -0.1860
       8    H3      19.529519   19.581181   24.694170 H          1 MOL1         0.0752
       9    H4      21.244475   19.853559   25.012807 H          1 MOL1         0.0752
      10    C4      20.829147   17.968625   24.002983 C.3        1 MOL1        -0.1858
      11    H5      20.018579   17.228502   23.956153 H          1 MOL1         0.0752
      12    H6      21.715498   17.435803   24.373721 H          1 MOL1         0.0752
      13    C5      21.133330   18.493919   22.579853 C.3        1 MOL1        -0.1858
      14    H7      21.947295   19.230309   22.625755 H          1 MOL1         0.0752
      15    H8      21.505283   17.657360   21.972634 H          1 MOL1         0.0752
      16    C6      19.905287   19.117380   21.876742 C.3        1 MOL1        -0.1858
      17    H9      19.565865   20.002661   22.429916 H          1 MOL1         0.0752
      18    H10     19.075098   18.397944   21.881081 H          1 MOL1         0.0752
      19    C7      20.226279   19.524166   20.423043 C.3        1 MOL1        -0.1834
      20    H11     21.057785   20.242497   20.414822 H          1 MOL1         0.0752
      21    H12     20.559335   18.643640   19.856318 H          1 MOL1         0.0752
      22    C8      19.002061   20.149357   19.724364 C.3        1 MOL1        -0.2849
      23    H13     18.666832   21.051755   20.252273 H          1 MOL1         0.0764
      24    H14     19.247947   20.432056   18.692528 H          1 MOL1         0.0764
      25    H15     18.164331   19.440495   19.691152 H          1 MOL1         0.0764
@<TRIPOS>BOND
    1     1     2    1
    2     1     3    2
    3     1     4    1
    4     4     5    1
    5     4     6    1
    6     4     7    1
    7     7     8    1
    8     7     9    1
    9     7    10    1
   10    10    11    1
   11    10    12    1
   12    10    13    1
   13    13    14    1
   14    13    15    1
   15    13    16    1
   16    16    17    1
   17    16    18    1
   18    16    19    1
   19    19    20    1
   20    19    21    1
   21    19    22    1
   22    22    23    1
   23    22    24    1
   24    22    25    1
@<TRIPOS>SUBSTRUCTURE
       1 MOL1            1 RESIDUE      1      MOL     
@<SCITEGIC>MOL_PROPERTY
VM2 Rank
SciTegic.value.IntegerValue
7

@<SCITEGIC>MOL_PROPERTY
Conf_Id
SciTegic.value.IntegerValue
1015

@<SCITEGIC>MOL_PROPERTY
Probability
SciTegic.value.DoubleValue
4.72

@<SCITEGIC>MOL_PROPERTY
Sum Probability
SciTegic.value.DoubleValue
53.58

@<SCITEGIC>MOL_PROPERTY
Delta G
SciTegic.value.DoubleValue
0.943

@<SCITEGIC>MOL_PROPERTY
G
SciTegic.value.DoubleValue
-7.020

@<SCITEGIC>MOL_PROPERTY
E
SciTegic.value.DoubleValue
-31.526

@<SCITEGIC>MOL_PROPERTY
-TS
SciTegic.value.DoubleValue
24.506

@<SCITEGIC>MOL_PROPERTY
U+W
SciTegic.value.DoubleValue
-52.093

@<SCITEGIC>MOL_PROPERTY
U
SciTegic.value.DoubleValue
7.044

@<SCITEGIC>MOL_PROPERTY
W
SciTegic.value.DoubleValue
-59.137

@<SCITEGIC>MOL_PROPERTY
W(PB)
SciTegic.value.DoubleValue
-61.633

@<SCITEGIC>MOL_PROPERTY
W(SA)
SciTegic.value.DoubleValue
2.496

@<SCITEGIC>MOL_PROPERTY
Valence
SciTegic.value.DoubleValue
8.064

@<SCITEGIC>MOL_PROPERTY
Coulomb
SciTegic.value.DoubleValue
-2.027

@<SCITEGIC>MOL_PROPERTY
VdW
SciTegic.value.DoubleValue
1.007

@<SCITEGIC>MOL_PROPERTY
VdW6
SciTegic.value.DoubleValue
-8.345

@<SCITEGIC>MOL_PROPERTY
VdW12
SciTegic.value.DoubleValue
9.352

@<SCITEGIC>MOL_PROPERTY
Bond
SciTegic.value.DoubleValue
0.151

@<SCITEGIC>MOL_PROPERTY
Angle
SciTegic.value.DoubleValue
2.518

@<SCITEGIC>MOL_PROPERTY
Pdih
SciTegic.value.DoubleValue
5.395

@<SCITEGIC>MOL_PROPERTY
Idih
SciTegic.value.DoubleValue
0.001

@<SCITEGIC>MOL_PROPERTY
Tether
SciTegic.value.DoubleValue
0.000

@<TRIPOS>MOLECULE
guest-8_vm2.mol2 : vm2 ligand conformer 8
          25          24           1
SMALL
USER_CHARGES
 
@<TRIPOS>ATOM
       1    C1      20.059185   19.446672   27.699956 C.2        1 MOL1         0.6168
       2    O1      21.053424   19.925332   28.208882 O.co2      1 MOL1        -0.6703
       3    O2      18.933498   19.628858   28.119800 O.co2      1 MOL1        -0.6703
       4    C2      20.231698   18.588160   26.452045 C.3        1 MOL1        -0.1963
       5    H1      19.446309   17.822811   26.453874 H          1 MOL1         0.0750
       6    H2      21.193244   18.066353   26.527831 H          1 MOL1         0.0750
       7    C3      20.172244   19.412196   25.142294 C.3        1 MOL1        -0.1860
       8    H3      19.209273   19.938844   25.088302 H          1 MOL1         0.0752
       9    H4      20.956120   20.182083   25.161943 H          1 MOL1         0.0752
      10    C4      20.349004   18.521076   23.893777 C.3        1 MOL1        -0.1858
      11    H5      19.564288   17.752244   23.877177 H          1 MOL1         0.0752
      12    H6      21.311680   17.994792   23.952038 H          1 MOL1         0.0752
      13    C5      20.289584   19.345362   22.589568 C.3        1 MOL1        -0.1858
      14    H7      19.328041   19.872786   22.541019 H          1 MOL1         0.0752
      15    H8      21.076219   20.112033   22.603982 H          1 MOL1         0.0752
      16    C6      20.462928   18.451137   21.340108 C.3        1 MOL1        -0.1858
      17    H9      19.648125   17.715608   21.295371 H          1 MOL1         0.0752
      18    H10     21.394772   17.877505   21.437695 H          1 MOL1         0.0752
      19    C7      20.513491   19.248010   20.015713 C.3        1 MOL1        -0.1834
      20    H11     21.331757   19.980320   20.054280 H          1 MOL1         0.0752
      21    H12     20.754919   18.556064   19.197077 H          1 MOL1         0.0752
      22    C8      19.187945   19.967197   19.683857 C.3        1 MOL1        -0.2849
      23    H13     18.963403   20.752048   20.416862 H          1 MOL1         0.0764
      24    H14     19.245980   20.442378   18.696059 H          1 MOL1         0.0764
      25    H15     18.349444   19.258799   19.669333 H          1 MOL1         0.0764
@<TRIPOS>BOND
    1     1     2    1
    2     1     3    2
    3     1     4    1
    4     4     5    1
    5     4     6    1
    6     4     7    1
    7     7     8    1
    8     7     9    1
    9     7    10    1
   10    10    11    1
   11    10    12    1
   12    10    13    1
   13    13    14    1
   14    13    15    1
   15    13    16    1
   16    16    17    1
   17    16    18    1
   18    16    19    1
   19    19    20    1
   20    19    21    1
   21    19    22    1
   22    22    23    1
   23    22    24    1
   24    22    25    1
@<TRIPOS>SUBSTRUCTURE
       1 MOL1            1 RESIDUE      1      MOL     
@<SCITEGIC>MOL_PROPERTY
VM2 Rank
SciTegic.value.IntegerValue
8

@<SCITEGIC>MOL_PROPERTY
Conf_Id
SciTegic.value.IntegerValue
1345

@<SCITEGIC>MOL_PROPERTY
Probability
SciTegic.value.DoubleValue
4.67

@<SCITEGIC>MOL_PROPERTY
Sum Probability
SciTegic.value.DoubleValue
58.25

@<SCITEGIC>MOL_PROPERTY
Delta G
SciTegic.value.DoubleValue
0.950

@<SCITEGIC>MOL_PROPERTY
G
SciTegic.value.DoubleValue
-7.012

@<SCITEGIC>MOL_PROPERTY
E
SciTegic.value.DoubleValue
-31.520

@<SCITEGIC>MOL_PROPERTY
-TS
SciTegic.value.DoubleValue
24.508

@<SCITEGIC>MOL_PROPERTY
U+W
SciTegic.value.DoubleValue
-52.088

@<SCITEGIC>MOL_PROPERTY
U
SciTegic.value.DoubleValue
6.630

@<SCITEGIC>MOL_PROPERTY
W
SciTegic.value.DoubleValue
-58.718

@<SCITEGIC>MOL_PROPERTY
W(PB)
SciTegic.value.DoubleValue
-61.241

@<SCITEGIC>MOL_PROPERTY
W(SA)
SciTegic.value.DoubleValue
2.524

@<SCITEGIC>MOL_PROPERTY
Valence
SciTegic.value.DoubleValue
8.032

@<SCITEGIC>MOL_PROPERTY
Coulomb
SciTegic.value.DoubleValue
-2.441

@<SCITEGIC>MOL_PROPERTY
VdW
SciTegic.value.DoubleValue
1.039

@<SCITEGIC>MOL_PROPERTY
VdW6
SciTegic.value.DoubleValue
-8.257

@<SCITEGIC>MOL_PROPERTY
VdW12
SciTegic.value.DoubleValue
9.295

@<SCITEGIC>MOL_PROPERTY
Bond
SciTegic.value.DoubleValue
0.146

@<SCITEGIC>MOL_PROPERTY
Angle
SciTegic.value.DoubleValue
2.498

@<SCITEGIC>MOL_PROPERTY
Pdih
SciTegic.value.DoubleValue
5.387

@<SCITEGIC>MOL_PROPERTY
Idih
SciTegic.value.DoubleValue
0.001

@<SCITEGIC>MOL_PROPERTY
Tether
SciTegic.value.DoubleValue
0.000

@<TRIPOS>MOLECULE
guest-8_vm2.mol2 : vm2 ligand conformer 9
          25          24           1
SMALL
USER_CHARGES
 
@<TRIPOS>ATOM
       1    C1      20.315932   19.189257   27.666438 C.2        1 MOL1         0.6168
       2    O1      21.353336   19.671461   28.076204 O.co2      1 MOL1        -0.6703
       3    O2      19.287549   19.155338   28.312906 O.co2      1 MOL1        -0.6703
       4    C2      20.297620   18.614977   26.254367 C.3        1 MOL1        -0.1963
       5    H1      19.589408   17.777900   26.236191 H          1 MOL1         0.0750
       6    H2      21.291536   18.203580   26.041106 H          1 MOL1         0.0750
       7    C3      19.912227   19.664736   25.183102 C.3        1 MOL1        -0.1860
       8    H3      18.921038   20.076351   25.419024 H          1 MOL1         0.0752
       9    H4      20.623065   20.501816   25.222908 H          1 MOL1         0.0752
      10    C4      19.900833   19.059179   23.762685 C.3        1 MOL1        -0.1858
      11    H5      19.187557   18.224463   23.725337 H          1 MOL1         0.0752
      12    H6      20.892812   18.644495   23.541315 H          1 MOL1         0.0752
      13    C5      19.519526   20.112287   22.696756 C.3        1 MOL1        -0.1858
      14    H7      18.560634   20.570513   22.975065 H          1 MOL1         0.0752
      15    H8      20.261623   20.922348   22.694037 H          1 MOL1         0.0752
      16    C6      19.386643   19.526957   21.270602 C.3        1 MOL1        -0.1858
      17    H9      18.994082   20.310581   20.608234 H          1 MOL1         0.0752
      18    H10     18.641387   18.719806   21.272075 H          1 MOL1         0.0752
      19    C7      20.720598   19.003354   20.691845 C.3        1 MOL1        -0.1834
      20    H11     21.481382   19.794633   20.739782 H          1 MOL1         0.0752
      21    H12     21.091712   18.164692   21.295386 H          1 MOL1         0.0752
      22    C8      20.558735   18.536455   19.231096 C.3        1 MOL1        -0.2849
      23    H13     20.224829   19.361978   18.588940 H          1 MOL1         0.0764
      24    H14     21.513034   18.164741   18.835873 H          1 MOL1         0.0764
      25    H15     19.822468   17.725348   19.157678 H          1 MOL1         0.0764
@<TRIPOS>BOND
    1     1     2    1
    2     1     3    2
    3     1     4    1
    4     4     5    1
    5     4     6    1
    6     4     7    1
    7     7     8    1
    8     7     9    1
    9     7    10    1
   10    10    11    1
   11    10    12    1
   12    10    13    1
   13    13    14    1
   14    13    15    1
   15    13    16    1
   16    16    17    1
   17    16    18    1
   18    16    19    1
   19    19    20    1
   20    19    21    1
   21    19    22    1
   22    22    23    1
   23    22    24    1
   24    22    25    1
@<TRIPOS>SUBSTRUCTURE
       1 MOL1            1 RESIDUE      1      MOL     
@<SCITEGIC>MOL_PROPERTY
VM2 Rank
SciTegic.value.IntegerValue
9

@<SCITEGIC>MOL_PROPERTY
Conf_Id
SciTegic.value.IntegerValue
1064

@<SCITEGIC>MOL_PROPERTY
Probability
SciTegic.value.DoubleValue
4.66

@<SCITEGIC>MOL_PROPERTY
Sum Probability
SciTegic.value.DoubleValue
62.91

@<SCITEGIC>MOL_PROPERTY
Delta G
SciTegic.value.DoubleValue
0.951

@<SCITEGIC>MOL_PROPERTY
G
SciTegic.value.DoubleValue
-7.012

@<SCITEGIC>MOL_PROPERTY
E
SciTegic.value.DoubleValue
-31.511

@<SCITEGIC>MOL_PROPERTY
-TS
SciTegic.value.DoubleValue
24.500

@<SCITEGIC>MOL_PROPERTY
U+W
SciTegic.value.DoubleValue
-52.079

@<SCITEGIC>MOL_PROPERTY
U
SciTegic.value.DoubleValue
6.583

@<SCITEGIC>MOL_PROPERTY
W
SciTegic.value.DoubleValue
-58.662

@<SCITEGIC>MOL_PROPERTY
W(PB)
SciTegic.value.DoubleValue
-61.145

@<SCITEGIC>MOL_PROPERTY
W(SA)
SciTegic.value.DoubleValue
2.483

@<SCITEGIC>MOL_PROPERTY
Valence
SciTegic.value.DoubleValue
8.068

@<SCITEGIC>MOL_PROPERTY
Coulomb
SciTegic.value.DoubleValue
-2.516

@<SCITEGIC>MOL_PROPERTY
VdW
SciTegic.value.DoubleValue
1.031

@<SCITEGIC>MOL_PROPERTY
VdW6
SciTegic.value.DoubleValue
-8.305

@<SCITEGIC>MOL_PROPERTY
VdW12
SciTegic.value.DoubleValue
9.335

@<SCITEGIC>MOL_PROPERTY
Bond
SciTegic.value.DoubleValue
0.150

@<SCITEGIC>MOL_PROPERTY
Angle
SciTegic.value.DoubleValue
2.522

@<SCITEGIC>MOL_PROPERTY
Pdih
SciTegic.value.DoubleValue
5.396

@<SCITEGIC>MOL_PROPERTY
Idih
SciTegic.value.DoubleValue
0.001

@<SCITEGIC>MOL_PROPERTY
Tether
SciTegic.value.DoubleValue
0.000

@<TRIPOS>MOLECULE
guest-8_vm2.mol2 : vm2 ligand conformer 10
          25          24           1
SMALL
USER_CHARGES
 
@<TRIPOS>ATOM
       1    C1      19.939248   19.564852   27.329930 C.2        1 MOL1         0.6168
       2    O1      20.738130   20.365813   27.774141 O.co2      1 MOL1        -0.6703
       3    O2      18.736815   19.741217   27.333741 O.co2      1 MOL1        -0.6703
       4    C2      20.476875   18.259044   26.751322 C.3        1 MOL1        -0.1963
       5    H1      19.660062   17.527861   26.719150 H          1 MOL1         0.0750
       6    H2      21.222668   17.871111   27.455087 H          1 MOL1         0.0750
       7    C3      21.117834   18.408491   25.347121 C.3        1 MOL1        -0.1860
       8    H3      21.914935   19.163813   25.389434 H          1 MOL1         0.0752
       9    H4      21.596311   17.459126   25.070867 H          1 MOL1         0.0752
      10    C4      20.087924   18.794686   24.261807 C.3        1 MOL1        -0.1858
      11    H5      19.617050   19.752702   24.522396 H          1 MOL1         0.0752
      12    H6      19.286467   18.043794   24.232598 H          1 MOL1         0.0752
      13    C5      20.741416   18.906943   22.867542 C.3        1 MOL1        -0.1858
      14    H7      21.542650   19.658077   22.897735 H          1 MOL1         0.0752
      15    H8      21.210393   17.949134   22.603536 H          1 MOL1         0.0752
      16    C6      19.713070   19.293577   21.782705 C.3        1 MOL1        -0.1858
      17    H9      19.243873   20.251343   22.046651 H          1 MOL1         0.0752
      18    H10     18.911590   18.542710   21.752525 H          1 MOL1         0.0752
      19    C7      20.365930   19.406539   20.389014 C.3        1 MOL1        -0.1834
      20    H11     21.166992   20.158274   20.415028 H          1 MOL1         0.0752
      21    H12     20.834760   18.449578   20.120867 H          1 MOL1         0.0752
      22    C8      19.335760   19.792837   19.308679 C.3        1 MOL1        -0.2849
      23    H13     18.873445   20.762461   19.535597 H          1 MOL1         0.0764
      24    H14     19.816810   19.868751   18.324855 H          1 MOL1         0.0764
      25    H15     18.538779   19.040921   19.239132 H          1 MOL1         0.0764
@<TRIPOS>BOND
    1     1     2    1
    2     1     3    2
    3     1     4    1
    4     4     5    1
    5     4     6    1
    6     4     7    1
    7     7     8    1
    8     7     9    1
    9     7    10    1
   10    10    11    1
   11    10    12    1
   12    10    13    1
   13    13    14    1
   14    13    15    1
   15    13    16    1
   16    16    17    1
   17    16    18    1
   18    16    19    1
   19    19    20    1
   20    19    21    1
   21    19    22    1
   22    22    23    1
   23    22    24    1
   24    22    25    1
@<TRIPOS>SUBSTRUCTURE
       1 MOL1            1 RESIDUE      1      MOL     
@<SCITEGIC>MOL_PROPERTY
VM2 Rank
SciTegic.value.IntegerValue
10

@<SCITEGIC>MOL_PROPERTY
Conf_Id
SciTegic.value.IntegerValue
487

@<SCITEGIC>MOL_PROPERTY
Probability
SciTegic.value.DoubleValue
2.27

@<SCITEGIC>MOL_PROPERTY
Sum Probability
SciTegic.value.DoubleValue
65.18

@<SCITEGIC>MOL_PROPERTY
Delta G
SciTegic.value.DoubleValue
1.380

@<SCITEGIC>MOL_PROPERTY
G
SciTegic.value.DoubleValue
-6.582

@<SCITEGIC>MOL_PROPERTY
E
SciTegic.value.DoubleValue
-31.294

@<SCITEGIC>MOL_PROPERTY
-TS
SciTegic.value.DoubleValue
24.711

@<SCITEGIC>MOL_PROPERTY
U+W
SciTegic.value.DoubleValue
-51.862

@<SCITEGIC>MOL_PROPERTY
U
SciTegic.value.DoubleValue
7.816

@<SCITEGIC>MOL_PROPERTY
W
SciTegic.value.DoubleValue
-59.677

@<SCITEGIC>MOL_PROPERTY
W(PB)
SciTegic.value.DoubleValue
-62.182

@<SCITEGIC>MOL_PROPERTY
W(SA)
SciTegic.value.DoubleValue
2.505

@<SCITEGIC>MOL_PROPERTY
Valence
SciTegic.value.DoubleValue
7.785

@<SCITEGIC>MOL_PROPERTY
Coulomb
SciTegic.value.DoubleValue
-0.714

@<SCITEGIC>MOL_PROPERTY
VdW
SciTegic.value.DoubleValue
0.744

@<SCITEGIC>MOL_PROPERTY
VdW6
SciTegic.value.DoubleValue
-8.514

@<SCITEGIC>MOL_PROPERTY
VdW12
SciTegic.value.DoubleValue
9.259

@<SCITEGIC>MOL_PROPERTY
Bond
SciTegic.value.DoubleValue
0.136

@<SCITEGIC>MOL_PROPERTY
Angle
SciTegic.value.DoubleValue
2.433

@<SCITEGIC>MOL_PROPERTY
Pdih
SciTegic.value.DoubleValue
5.216

@<SCITEGIC>MOL_PROPERTY
Idih
SciTegic.value.DoubleValue
0.000

@<SCITEGIC>MOL_PROPERTY
Tether
SciTegic.value.DoubleValue
0.000

@<TRIPOS>MOLECULE
guest-8_vm2.mol2 : vm2 ligand conformer 11
          25          24           1
SMALL
USER_CHARGES
 
@<TRIPOS>ATOM
       1    C1      20.230777   18.954679   27.335172 C.2        1 MOL1         0.6168
       2    O1      21.353041   19.079199   27.784717 O.co2      1 MOL1        -0.6703
       3    O2      19.612618   17.908427   27.349341 O.co2      1 MOL1        -0.6703
       4    C2      19.556381   20.185111   26.735009 C.3        1 MOL1        -0.1963
       5    H1      19.718365   21.018733   27.428420 H          1 MOL1         0.0750
       6    H2      18.474601   20.008378   26.698089 H          1 MOL1         0.0750
       7    C3      20.084606   20.570546   25.328822 C.3        1 MOL1        -0.1860
       8    H3      19.648332   21.535247   25.036305 H          1 MOL1         0.0752
       9    H4      21.172714   20.716958   25.376337 H          1 MOL1         0.0752
      10    C4      19.745347   19.511665   24.255769 C.3        1 MOL1        -0.1858
      11    H5      18.657866   19.359237   24.221484 H          1 MOL1         0.0752
      12    H6      20.193266   18.547239   24.532668 H          1 MOL1         0.0752
      13    C5      20.252376   19.930376   22.858904 C.3        1 MOL1        -0.1858
      14    H7      19.803487   20.893176   22.578631 H          1 MOL1         0.0752
      15    H8      21.339905   20.082442   22.894168 H          1 MOL1         0.0752
      16    C6      19.914361   18.872480   21.786310 C.3        1 MOL1        -0.1858
      17    H9      18.826885   18.720047   21.751083 H          1 MOL1         0.0752
      18    H10     20.363090   17.909540   22.066516 H          1 MOL1         0.0752
      19    C7      20.421500   19.290271   20.390020 C.3        1 MOL1        -0.1834
      20    H11     19.973213   20.252376   20.105641 H          1 MOL1         0.0752
      21    H12     21.509422   19.441749   20.421078 H          1 MOL1         0.0752
      22    C8      20.081993   18.231246   19.321935 C.3        1 MOL1        -0.2849
      23    H13     18.996779   18.082447   19.247340 H          1 MOL1         0.0764
      24    H14     20.449666   18.544289   18.336084 H          1 MOL1         0.0764
      25    H15     20.544507   17.265691   19.565209 H          1 MOL1         0.0764
@<TRIPOS>BOND
    1     1     2    1
    2     1     3    2
    3     1     4    1
    4     4     5    1
    5     4     6    1
    6     4     7    1
    7     7     8    1
    8     7     9    1
    9     7    10    1
   10    10    11    1
   11    10    12    1
   12    10    13    1
   13    13    14    1
   14    13    15    1
   15    13    16    1
   16    16    17    1
   17    16    18    1
   18    16    19    1
   19    19    20    1
   20    19    21    1
   21    19    22    1
   22    22    23    1
   23    22    24    1
   24    22    25    1
@<TRIPOS>SUBSTRUCTURE
       1 MOL1            1 RESIDUE      1      MOL     
@<SCITEGIC>MOL_PROPERTY
VM2 Rank
SciTegic.value.IntegerValue
11

@<SCITEGIC>MOL_PROPERTY
Conf_Id
SciTegic.value.IntegerValue
54

@<SCITEGIC>MOL_PROPERTY
Probability
SciTegic.value.DoubleValue
2.24

@<SCITEGIC>MOL_PROPERTY
Sum Probability
SciTegic.value.DoubleValue
67.42

@<SCITEGIC>MOL_PROPERTY
Delta G
SciTegic.value.DoubleValue
1.388

@<SCITEGIC>MOL_PROPERTY
G
SciTegic.value.DoubleValue
-6.575

@<SCITEGIC>MOL_PROPERTY
E
SciTegic.value.DoubleValue
-31.286

@<SCITEGIC>MOL_PROPERTY
-TS
SciTegic.value.DoubleValue
24.711

@<SCITEGIC>MOL_PROPERTY
U+W
SciTegic.value.DoubleValue
-51.854

@<SCITEGIC>MOL_PROPERTY
U
SciTegic.value.DoubleValue
7.816

@<SCITEGIC>MOL_PROPERTY
W
SciTegic.value.DoubleValue
-59.670

@<SCITEGIC>MOL_PROPERTY
W(PB)
SciTegic.value.DoubleValue
-62.157

@<SCITEGIC>MOL_PROPERTY
W(SA)
SciTegic.value.DoubleValue
2.487

@<SCITEGIC>MOL_PROPERTY
Valence
SciTegic.value.DoubleValue
7.785

@<SCITEGIC>MOL_PROPERTY
Coulomb
SciTegic.value.DoubleValue
-0.713

@<SCITEGIC>MOL_PROPERTY
VdW
SciTegic.value.DoubleValue
0.744

@<SCITEGIC>MOL_PROPERTY
VdW6
SciTegic.value.DoubleValue
-8.515

@<SCITEGIC>MOL_PROPERTY
VdW12
SciTegic.value.DoubleValue
9.259

@<SCITEGIC>MOL_PROPERTY
Bond
SciTegic.value.DoubleValue
0.136

@<SCITEGIC>MOL_PROPERTY
Angle
SciTegic.value.DoubleValue
2.433

@<SCITEGIC>MOL_PROPERTY
Pdih
SciTegic.value.DoubleValue
5.215

@<SCITEGIC>MOL_PROPERTY
Idih
SciTegic.value.DoubleValue
0.000

@<SCITEGIC>MOL_PROPERTY
Tether
SciTegic.value.DoubleValue
0.000

@<TRIPOS>MOLECULE
guest-8_vm2.mol2 : vm2 ligand conformer 12
          25          24           1
SMALL
USER_CHARGES
 
@<TRIPOS>ATOM
       1    C1      20.109864   19.818949   27.332391 C.2        1 MOL1         0.6168
       2    O1      21.134298   20.435201   27.550249 O.co2      1 MOL1        -0.6703
       3    O2      19.379909   19.395884   28.206990 O.co2      1 MOL1        -0.6703
       4    C2      19.731807   19.540112   25.882101 C.3        1 MOL1        -0.1963
       5    H1      20.075586   20.388359   25.279596 H          1 MOL1         0.0750
       6    H2      18.637655   19.514619   25.814736 H          1 MOL1         0.0750
       7    C3      20.331934   18.212427   25.350743 C.3        1 MOL1        -0.1860
       8    H3      21.428924   18.268234   25.379517 H          1 MOL1         0.0752
       9    H4      20.045002   17.398706   26.031164 H          1 MOL1         0.0752
      10    C4      19.864082   17.850818   23.920881 C.3        1 MOL1        -0.1858
      11    H5      18.767609   17.786156   23.897706 H          1 MOL1         0.0752
      12    H6      20.239825   16.848172   23.675061 H          1 MOL1         0.0752
      13    C5      20.349615   18.848684   22.843980 C.3        1 MOL1        -0.1858
      14    H7      19.923702   19.839528   23.042606 H          1 MOL1         0.0752
      15    H8      21.441901   18.948979   22.902439 H          1 MOL1         0.0752
      16    C6      19.948764   18.391621   21.422146 C.3        1 MOL1        -0.1858
      17    H9      18.854225   18.335464   21.346522 H          1 MOL1         0.0752
      18    H10     20.324850   17.373185   21.254245 H          1 MOL1         0.0752
      19    C7      20.498228   19.307548   20.303673 C.3        1 MOL1        -0.1834
      20    H11     21.593457   19.361883   20.373171 H          1 MOL1         0.0752
      21    H12     20.271576   18.850139   19.330722 H          1 MOL1         0.0752
      22    C8      19.904499   20.732757   20.332847 C.3        1 MOL1        -0.2849
      23    H13     20.204398   21.273498   21.239128 H          1 MOL1         0.0764
      24    H14     20.255426   21.312379   19.469260 H          1 MOL1         0.0764
      25    H15     18.807751   20.702410   20.296332 H          1 MOL1         0.0764
@<TRIPOS>BOND
    1     1     2    1
    2     1     3    2
    3     1     4    1
    4     4     5    1
    5     4     6    1
    6     4     7    1
    7     7     8    1
    8     7     9    1
    9     7    10    1
   10    10    11    1
   11    10    12    1
   12    10    13    1
   13    13    14    1
   14    13    15    1
   15    13    16    1
   16    16    17    1
   17    16    18    1
   18    16    19    1
   19    19    20    1
   20    19    21    1
   21    19    22    1
   22    22    23    1
   23    22    24    1
   24    22    25    1
@<TRIPOS>SUBSTRUCTURE
       1 MOL1            1 RESIDUE      1      MOL     
@<SCITEGIC>MOL_PROPERTY
VM2 Rank
SciTegic.value.IntegerValue
12

@<SCITEGIC>MOL_PROPERTY
Conf_Id
SciTegic.value.IntegerValue
1177

@<SCITEGIC>MOL_PROPERTY
Probability
SciTegic.value.DoubleValue
1.32

@<SCITEGIC>MOL_PROPERTY
Sum Probability
SciTegic.value.DoubleValue
68.73

@<SCITEGIC>MOL_PROPERTY
Delta G
SciTegic.value.DoubleValue
1.703

@<SCITEGIC>MOL_PROPERTY
G
SciTegic.value.DoubleValue
-6.259

@<SCITEGIC>MOL_PROPERTY
E
SciTegic.value.DoubleValue
-30.875

@<SCITEGIC>MOL_PROPERTY
-TS
SciTegic.value.DoubleValue
24.616

@<SCITEGIC>MOL_PROPERTY
U+W
SciTegic.value.DoubleValue
-51.442

@<SCITEGIC>MOL_PROPERTY
U
SciTegic.value.DoubleValue
7.701

@<SCITEGIC>MOL_PROPERTY
W
SciTegic.value.DoubleValue
-59.143

@<SCITEGIC>MOL_PROPERTY
W(PB)
SciTegic.value.DoubleValue
-61.609

@<SCITEGIC>MOL_PROPERTY
W(SA)
SciTegic.value.DoubleValue
2.466

@<SCITEGIC>MOL_PROPERTY
Valence
SciTegic.value.DoubleValue
8.550

@<SCITEGIC>MOL_PROPERTY
Coulomb
SciTegic.value.DoubleValue
-1.988

@<SCITEGIC>MOL_PROPERTY
VdW
SciTegic.value.DoubleValue
1.139

@<SCITEGIC>MOL_PROPERTY
VdW6
SciTegic.value.DoubleValue
-8.988

@<SCITEGIC>MOL_PROPERTY
VdW12
SciTegic.value.DoubleValue
10.127

@<SCITEGIC>MOL_PROPERTY
Bond
SciTegic.value.DoubleValue
0.191

@<SCITEGIC>MOL_PROPERTY
Angle
SciTegic.value.DoubleValue
2.738

@<SCITEGIC>MOL_PROPERTY
Pdih
SciTegic.value.DoubleValue
5.621

@<SCITEGIC>MOL_PROPERTY
Idih
SciTegic.value.DoubleValue
0.001

@<SCITEGIC>MOL_PROPERTY
Tether
SciTegic.value.DoubleValue
0.000

@<TRIPOS>MOLECULE
guest-8_vm2.mol2 : vm2 ligand conformer 13
          25          24           1
SMALL
USER_CHARGES
 
@<TRIPOS>ATOM
       1    C1      20.551515   19.270525   27.396135 C.2        1 MOL1         0.6168
       2    O1      21.534171   19.970919   27.539426 O.co2      1 MOL1        -0.6703
       3    O2      19.833680   18.922260   28.312742 O.co2      1 MOL1        -0.6703
       4    C2      20.185431   18.823295   25.985461 C.3        1 MOL1        -0.1963
       5    H1      19.704980   17.840045   26.054297 H          1 MOL1         0.0750
       6    H2      21.118008   18.691692   25.425342 H          1 MOL1         0.0750
       7    C3      19.249946   19.826749   25.262263 C.3        1 MOL1        -0.1860
       8    H3      18.369149   20.006265   25.894250 H          1 MOL1         0.0752
       9    H4      19.759872   20.794565   25.159058 H          1 MOL1         0.0752
      10    C4      18.772760   19.336604   23.874437 C.3        1 MOL1        -0.1858
      11    H5      18.031695   20.050003   23.488604 H          1 MOL1         0.0752
      12    H6      18.251852   18.375466   23.983128 H          1 MOL1         0.0752
      13    C5      19.917845   19.195901   22.844885 C.3        1 MOL1        -0.1858
      14    H7      20.469088   20.143435   22.788099 H          1 MOL1         0.0752
      15    H8      20.628554   18.428444   23.177337 H          1 MOL1         0.0752
      16    C6      19.381018   18.815171   21.445643 C.3        1 MOL1        -0.1858
      17    H9      18.713451   19.605999   21.077110 H          1 MOL1         0.0752
      18    H10     18.769043   17.907009   21.533011 H          1 MOL1         0.0752
      19    C7      20.498032   18.556744   20.407770 C.3        1 MOL1        -0.1834
      20    H11     21.162786   17.759807   20.768743 H          1 MOL1         0.0752
      21    H12     20.039394   18.182472   19.482137 H          1 MOL1         0.0752
      22    C8      21.328602   19.815832   20.077237 C.3        1 MOL1        -0.2849
      23    H13     20.681348   20.636771   19.742228 H          1 MOL1         0.0764
      24    H14     21.898505   20.160146   20.949245 H          1 MOL1         0.0764
      25    H15     22.046426   19.602363   19.274707 H          1 MOL1         0.0764
@<TRIPOS>BOND
    1     1     2    1
    2     1     3    2
    3     1     4    1
    4     4     5    1
    5     4     6    1
    6     4     7    1
    7     7     8    1
    8     7     9    1
    9     7    10    1
   10    10    11    1
   11    10    12    1
   12    10    13    1
   13    13    14    1
   14    13    15    1
   15    13    16    1
   16    16    17    1
   17    16    18    1
   18    16    19    1
   19    19    20    1
   20    19    21    1
   21    19    22    1
   22    22    23    1
   23    22    24    1
   24    22    25    1
@<TRIPOS>SUBSTRUCTURE
       1 MOL1            1 RESIDUE      1      MOL     
@<SCITEGIC>MOL_PROPERTY
VM2 Rank
SciTegic.value.IntegerValue
13

@<SCITEGIC>MOL_PROPERTY
Conf_Id
SciTegic.value.IntegerValue
182

@<SCITEGIC>MOL_PROPERTY
Probability
SciTegic.value.DoubleValue
1.27

@<SCITEGIC>MOL_PROPERTY
Sum Probability
SciTegic.value.DoubleValue
70.00

@<SCITEGIC>MOL_PROPERTY
Delta G
SciTegic.value.DoubleValue
1.726

@<SCITEGIC>MOL_PROPERTY
G
SciTegic.value.DoubleValue
-6.236

@<SCITEGIC>MOL_PROPERTY
E
SciTegic.value.DoubleValue
-30.856

@<SCITEGIC>MOL_PROPERTY
-TS
SciTegic.value.DoubleValue
24.620

@<SCITEGIC>MOL_PROPERTY
U+W
SciTegic.value.DoubleValue
-51.423

@<SCITEGIC>MOL_PROPERTY
U
SciTegic.value.DoubleValue
7.651

@<SCITEGIC>MOL_PROPERTY
W
SciTegic.value.DoubleValue
-59.074

@<SCITEGIC>MOL_PROPERTY
W(PB)
SciTegic.value.DoubleValue
-61.560

@<SCITEGIC>MOL_PROPERTY
W(SA)
SciTegic.value.DoubleValue
2.486

@<SCITEGIC>MOL_PROPERTY
Valence
SciTegic.value.DoubleValue
8.550

@<SCITEGIC>MOL_PROPERTY
Coulomb
SciTegic.value.DoubleValue
-2.035

@<SCITEGIC>MOL_PROPERTY
VdW
SciTegic.value.DoubleValue
1.135

@<SCITEGIC>MOL_PROPERTY
VdW6
SciTegic.value.DoubleValue
-8.973

@<SCITEGIC>MOL_PROPERTY
VdW12
SciTegic.value.DoubleValue
10.108

@<SCITEGIC>MOL_PROPERTY
Bond
SciTegic.value.DoubleValue
0.188

@<SCITEGIC>MOL_PROPERTY
Angle
SciTegic.value.DoubleValue
2.738

@<SCITEGIC>MOL_PROPERTY
Pdih
SciTegic.value.DoubleValue
5.623

@<SCITEGIC>MOL_PROPERTY
Idih
SciTegic.value.DoubleValue
0.001

@<SCITEGIC>MOL_PROPERTY
Tether
SciTegic.value.DoubleValue
0.000

@<TRIPOS>MOLECULE
guest-8_vm2.mol2 : vm2 ligand conformer 14
          25          24           1
SMALL
USER_CHARGES
 
@<TRIPOS>ATOM
       1    C1      20.138485   19.820767   27.332066 C.2        1 MOL1         0.6168
       2    O1      20.935919   19.494537   28.189046 O.co2      1 MOL1        -0.6703
       3    O2      19.049668   20.302942   27.574302 O.co2      1 MOL1        -0.6703
       4    C2      20.515360   19.589886   25.873068 C.3        1 MOL1        -0.1963
       5    H1      21.602113   19.702867   25.780556 H          1 MOL1         0.0750
       6    H2      20.053326   20.386976   25.279864 H          1 MOL1         0.0750
       7    C3      20.075899   18.196202   25.353684 C.3        1 MOL1        -0.1860
       8    H3      20.478968   17.426284   26.026148 H          1 MOL1         0.0752
       9    H4      18.981611   18.112890   25.407714 H          1 MOL1         0.0752
      10    C4      20.552771   17.894588   23.912931 C.3        1 MOL1        -0.1858
      11    H5      20.301363   16.852097   23.674360 H          1 MOL1         0.0752
      12    H6      21.647789   17.969149   23.864471 H          1 MOL1         0.0752
      13    C5      19.920255   18.821409   22.848921 C.3        1 MOL1        -0.1858
      14    H7      18.825692   18.782750   22.932599 H          1 MOL1         0.0752
      15    H8      20.221794   19.858478   23.039159 H          1 MOL1         0.0752
      16    C6      20.342966   18.416676   21.417591 C.3        1 MOL1        -0.1858
      17    H9      20.095099   17.358570   21.256907 H          1 MOL1         0.0752
      18    H10     21.433777   18.499450   21.316753 H          1 MOL1         0.0752
      19    C7      19.656400   19.254002   20.313358 C.3        1 MOL1        -0.1834
      20    H11     19.916826   18.827601   19.334794 H          1 MOL1         0.0752
      21    H12     18.564995   19.169234   20.408009 H          1 MOL1         0.0752
      22    C8      20.065277   20.742992   20.331033 C.3        1 MOL1        -0.2849
      23    H13     21.155906   20.851799   20.269392 H          1 MOL1         0.0764
      24    H14     19.624075   21.272235   19.476552 H          1 MOL1         0.0764
      25    H15     19.720093   21.242681   21.244732 H          1 MOL1         0.0764
@<TRIPOS>BOND
    1     1     2    1
    2     1     3    2
    3     1     4    1
    4     4     5    1
    5     4     6    1
    6     4     7    1
    7     7     8    1
    8     7     9    1
    9     7    10    1
   10    10    11    1
   11    10    12    1
   12    10    13    1
   13    13    14    1
   14    13    15    1
   15    13    16    1
   16    16    17    1
   17    16    18    1
   18    16    19    1
   19    19    20    1
   20    19    21    1
   21    19    22    1
   22    22    23    1
   23    22    24    1
   24    22    25    1
@<TRIPOS>SUBSTRUCTURE
       1 MOL1            1 RESIDUE      1      MOL     
@<SCITEGIC>MOL_PROPERTY
VM2 Rank
SciTegic.value.IntegerValue
14

@<SCITEGIC>MOL_PROPERTY
Conf_Id
SciTegic.value.IntegerValue
1183

@<SCITEGIC>MOL_PROPERTY
Probability
SciTegic.value.DoubleValue
1.25

@<SCITEGIC>MOL_PROPERTY
Sum Probability
SciTegic.value.DoubleValue
71.26

@<SCITEGIC>MOL_PROPERTY
Delta G
SciTegic.value.DoubleValue
1.733

@<SCITEGIC>MOL_PROPERTY
G
SciTegic.value.DoubleValue
-6.229

@<SCITEGIC>MOL_PROPERTY
E
SciTegic.value.DoubleValue
-30.845

@<SCITEGIC>MOL_PROPERTY
-TS
SciTegic.value.DoubleValue
24.616

@<SCITEGIC>MOL_PROPERTY
U+W
SciTegic.value.DoubleValue
-51.412

@<SCITEGIC>MOL_PROPERTY
U
SciTegic.value.DoubleValue
7.701

@<SCITEGIC>MOL_PROPERTY
W
SciTegic.value.DoubleValue
-59.113

@<SCITEGIC>MOL_PROPERTY
W(PB)
SciTegic.value.DoubleValue
-61.583

@<SCITEGIC>MOL_PROPERTY
W(SA)
SciTegic.value.DoubleValue
2.470

@<SCITEGIC>MOL_PROPERTY
Valence
SciTegic.value.DoubleValue
8.550

@<SCITEGIC>MOL_PROPERTY
Coulomb
SciTegic.value.DoubleValue
-1.988

@<SCITEGIC>MOL_PROPERTY
VdW
SciTegic.value.DoubleValue
1.139

@<SCITEGIC>MOL_PROPERTY
VdW6
SciTegic.value.DoubleValue
-8.988

@<SCITEGIC>MOL_PROPERTY
VdW12
SciTegic.value.DoubleValue
10.127

@<SCITEGIC>MOL_PROPERTY
Bond
SciTegic.value.DoubleValue
0.191

@<SCITEGIC>MOL_PROPERTY
Angle
SciTegic.value.DoubleValue
2.738

@<SCITEGIC>MOL_PROPERTY
Pdih
SciTegic.value.DoubleValue
5.621

@<SCITEGIC>MOL_PROPERTY
Idih
SciTegic.value.DoubleValue
0.001

@<SCITEGIC>MOL_PROPERTY
Tether
SciTegic.value.DoubleValue
0.000

@<TRIPOS>MOLECULE
guest-8_vm2.mol2 : vm2 ligand conformer 15
          25          24           1
SMALL
USER_CHARGES
 
@<TRIPOS>ATOM
       1    C1      19.771427   19.220544   27.405109 C.2        1 MOL1         0.6168
       2    O1      20.548729   18.967775   28.304361 O.co2      1 MOL1        -0.6703
       3    O2      18.711137   19.790263   27.572146 O.co2      1 MOL1        -0.6703
       4    C2      20.158850   18.821673   25.985659 C.3        1 MOL1        -0.1963
       5    H1      19.237950   18.571681   25.446956 H          1 MOL1         0.0750
       6    H2      20.762013   17.907675   26.041825 H          1 MOL1         0.0750
       7    C3      20.942061   19.935080   25.242713 C.3        1 MOL1        -0.1860
       8    H3      20.310800   20.829930   25.152735 H          1 MOL1         0.0752
       9    H4      21.807116   20.226195   25.854572 H          1 MOL1         0.0752
      10    C4      21.445761   19.507748   23.843541 C.3        1 MOL1        -0.1858
      11    H5      22.087285   18.621001   23.938780 H          1 MOL1         0.0752
      12    H6      22.080781   20.309218   23.441826 H          1 MOL1         0.0752
      13    C5      20.304562   19.220735   22.840405 C.3        1 MOL1        -0.1858
      14    H7      19.705367   18.369380   23.187943 H          1 MOL1         0.0752
      15    H8      19.635830   20.090159   22.797782 H          1 MOL1         0.0752
      16    C6      20.853188   18.909612   21.428589 C.3        1 MOL1        -0.1858
      17    H9      21.577943   18.087133   21.500453 H          1 MOL1         0.0752
      18    H10     21.405653   19.778656   21.045948 H          1 MOL1         0.0752
      19    C7      19.754668   18.509189   20.416362 C.3        1 MOL1        -0.1834
      20    H11     20.235858   18.195328   19.479789 H          1 MOL1         0.0752
      21    H12     19.205703   17.634337   20.791302 H          1 MOL1         0.0752
      22    C8      18.762617   19.651380   20.107115 C.3        1 MOL1        -0.2849
      23    H13     19.291764   20.547852   19.758615 H          1 MOL1         0.0764
      24    H14     18.059636   19.346865   19.320995 H          1 MOL1         0.0764
      25    H15     18.173656   19.921202   20.992587 H          1 MOL1         0.0764
@<TRIPOS>BOND
    1     1     2    1
    2     1     3    2
    3     1     4    1
    4     4     5    1
    5     4     6    1
    6     4     7    1
    7     7     8    1
    8     7     9    1
    9     7    10    1
   10    10    11    1
   11    10    12    1
   12    10    13    1
   13    13    14    1
   14    13    15    1
   15    13    16    1
   16    16    17    1
   17    16    18    1
   18    16    19    1
   19    19    20    1
   20    19    21    1
   21    19    22    1
   22    22    23    1
   23    22    24    1
   24    22    25    1
@<TRIPOS>SUBSTRUCTURE
       1 MOL1            1 RESIDUE      1      MOL     
@<SCITEGIC>MOL_PROPERTY
VM2 Rank
SciTegic.value.IntegerValue
15

@<SCITEGIC>MOL_PROPERTY
Conf_Id
SciTegic.value.IntegerValue
1343

@<SCITEGIC>MOL_PROPERTY
Probability
SciTegic.value.DoubleValue
1.25

@<SCITEGIC>MOL_PROPERTY
Sum Probability
SciTegic.value.DoubleValue
72.51

@<SCITEGIC>MOL_PROPERTY
Delta G
SciTegic.value.DoubleValue
1.734

@<SCITEGIC>MOL_PROPERTY
G
SciTegic.value.DoubleValue
-6.228

@<SCITEGIC>MOL_PROPERTY
E
SciTegic.value.DoubleValue
-30.848

@<SCITEGIC>MOL_PROPERTY
-TS
SciTegic.value.DoubleValue
24.620

@<SCITEGIC>MOL_PROPERTY
U+W
SciTegic.value.DoubleValue
-51.416

@<SCITEGIC>MOL_PROPERTY
U
SciTegic.value.DoubleValue
7.651

@<SCITEGIC>MOL_PROPERTY
W
SciTegic.value.DoubleValue
-59.067

@<SCITEGIC>MOL_PROPERTY
W(PB)
SciTegic.value.DoubleValue
-61.559

@<SCITEGIC>MOL_PROPERTY
W(SA)
SciTegic.value.DoubleValue
2.493

@<SCITEGIC>MOL_PROPERTY
Valence
SciTegic.value.DoubleValue
8.550

@<SCITEGIC>MOL_PROPERTY
Coulomb
SciTegic.value.DoubleValue
-2.035

@<SCITEGIC>MOL_PROPERTY
VdW
SciTegic.value.DoubleValue
1.135

@<SCITEGIC>MOL_PROPERTY
VdW6
SciTegic.value.DoubleValue
-8.973

@<SCITEGIC>MOL_PROPERTY
VdW12
SciTegic.value.DoubleValue
10.108

@<SCITEGIC>MOL_PROPERTY
Bond
SciTegic.value.DoubleValue
0.188

@<SCITEGIC>MOL_PROPERTY
Angle
SciTegic.value.DoubleValue
2.738

@<SCITEGIC>MOL_PROPERTY
Pdih
SciTegic.value.DoubleValue
5.623

@<SCITEGIC>MOL_PROPERTY
Idih
SciTegic.value.DoubleValue
0.001

@<SCITEGIC>MOL_PROPERTY
Tether
SciTegic.value.DoubleValue
0.000

@<TRIPOS>MOLECULE
guest-8_vm2.mol2 : vm2 ligand conformer 16
          25          24           1
SMALL
USER_CHARGES
 
@<TRIPOS>ATOM
       1    C1      20.138766   19.033062   27.484601 C.2        1 MOL1         0.6168
       2    O1      21.226867   19.232021   27.987756 O.co2      1 MOL1        -0.6703
       3    O2      19.103638   18.978841   28.118882 O.co2      1 MOL1        -0.6703
       4    C2      20.065083   18.865297   25.971192 C.3        1 MOL1        -0.1963
       5    H1      19.237383   18.182740   25.744479 H          1 MOL1         0.0750
       6    H2      20.989498   18.375808   25.644540 H          1 MOL1         0.0750
       7    C3      19.867425   20.211664   25.227432 C.3        1 MOL1        -0.1860
       8    H3      18.983229   20.716847   25.640241 H          1 MOL1         0.0752
       9    H4      20.723148   20.870923   25.428485 H          1 MOL1         0.0752
      10    C4      19.678860   20.049747   23.700333 C.3        1 MOL1        -0.1858
      11    H5      19.440850   21.032661   23.271426 H          1 MOL1         0.0752
      12    H6      18.809009   19.407211   23.511241 H          1 MOL1         0.0752
      13    C5      20.927916   19.476837   22.986962 C.3        1 MOL1        -0.1858
      14    H7      21.809933   20.057998   23.288602 H          1 MOL1         0.0752
      15    H8      21.107890   18.444031   23.312658 H          1 MOL1         0.0752
      16    C6      20.822300   19.510331   21.443682 C.3        1 MOL1        -0.1858
      17    H9      21.787028   19.197236   21.021612 H          1 MOL1         0.0752
      18    H10     20.657373   20.543327   21.108143 H          1 MOL1         0.0752
      19    C7      19.708852   18.596609   20.883558 C.3        1 MOL1        -0.1834
      20    H11     19.844728   17.573444   21.260221 H          1 MOL1         0.0752
      21    H12     18.726542   18.939463   21.234286 H          1 MOL1         0.0752
      22    C8      19.713293   18.579590   19.341603 C.3        1 MOL1        -0.2849
      23    H13     20.670035   18.204574   18.955149 H          1 MOL1         0.0764
      24    H14     18.915575   17.929322   18.959701 H          1 MOL1         0.0764
      25    H15     19.551564   19.587550   18.937593 H          1 MOL1         0.0764
@<TRIPOS>BOND
    1     1     2    1
    2     1     3    2
    3     1     4    1
    4     4     5    1
    5     4     6    1
    6     4     7    1
    7     7     8    1
    8     7     9    1
    9     7    10    1
   10    10    11    1
   11    10    12    1
   12    10    13    1
   13    13    14    1
   14    13    15    1
   15    13    16    1
   16    16    17    1
   17    16    18    1
   18    16    19    1
   19    19    20    1
   20    19    21    1
   21    19    22    1
   22    22    23    1
   23    22    24    1
   24    22    25    1
@<TRIPOS>SUBSTRUCTURE
       1 MOL1            1 RESIDUE      1      MOL     
@<SCITEGIC>MOL_PROPERTY
VM2 Rank
SciTegic.value.IntegerValue
16

@<SCITEGIC>MOL_PROPERTY
Conf_Id
SciTegic.value.IntegerValue
972

@<SCITEGIC>MOL_PROPERTY
Probability
SciTegic.value.DoubleValue
1.22

@<SCITEGIC>MOL_PROPERTY
Sum Probability
SciTegic.value.DoubleValue
73.73

@<SCITEGIC>MOL_PROPERTY
Delta G
SciTegic.value.DoubleValue
1.748

@<SCITEGIC>MOL_PROPERTY
G
SciTegic.value.DoubleValue
-6.214

@<SCITEGIC>MOL_PROPERTY
E
SciTegic.value.DoubleValue
-30.850

@<SCITEGIC>MOL_PROPERTY
-TS
SciTegic.value.DoubleValue
24.636

@<SCITEGIC>MOL_PROPERTY
U+W
SciTegic.value.DoubleValue
-51.418

@<SCITEGIC>MOL_PROPERTY
U
SciTegic.value.DoubleValue
7.389

@<SCITEGIC>MOL_PROPERTY
W
SciTegic.value.DoubleValue
-58.807

@<SCITEGIC>MOL_PROPERTY
W(PB)
SciTegic.value.DoubleValue
-61.285

@<SCITEGIC>MOL_PROPERTY
W(SA)
SciTegic.value.DoubleValue
2.478

@<SCITEGIC>MOL_PROPERTY
Valence
SciTegic.value.DoubleValue
8.557

@<SCITEGIC>MOL_PROPERTY
Coulomb
SciTegic.value.DoubleValue
-2.278

@<SCITEGIC>MOL_PROPERTY
VdW
SciTegic.value.DoubleValue
1.110

@<SCITEGIC>MOL_PROPERTY
VdW6
SciTegic.value.DoubleValue
-9.029

@<SCITEGIC>MOL_PROPERTY
VdW12
SciTegic.value.DoubleValue
10.139

@<SCITEGIC>MOL_PROPERTY
Bond
SciTegic.value.DoubleValue
0.192

@<SCITEGIC>MOL_PROPERTY
Angle
SciTegic.value.DoubleValue
2.716

@<SCITEGIC>MOL_PROPERTY
Pdih
SciTegic.value.DoubleValue
5.648

@<SCITEGIC>MOL_PROPERTY
Idih
SciTegic.value.DoubleValue
0.001

@<SCITEGIC>MOL_PROPERTY
Tether
SciTegic.value.DoubleValue
0.000

@<TRIPOS>MOLECULE
guest-8_vm2.mol2 : vm2 ligand conformer 17
          25          24           1
SMALL
USER_CHARGES
 
@<TRIPOS>ATOM
       1    C1      20.213216   19.037843   27.483733 C.2        1 MOL1         0.6168
       2    O1      21.261136   19.117470   28.093869 O.co2      1 MOL1        -0.6703
       3    O2      19.120507   19.096688   28.012163 O.co2      1 MOL1        -0.6703
       4    C2      20.272817   18.878646   25.968780 C.3        1 MOL1        -0.1963
       5    H1      19.411336   18.274426   25.662816 H          1 MOL1         0.0750
       6    H2      21.175590   18.307263   25.722013 H          1 MOL1         0.0750
       7    C3      20.279379   20.238136   25.222664 C.3        1 MOL1        -0.1860
       8    H3      19.351201   20.782783   25.444371 H          1 MOL1         0.0752
       9    H4      21.100953   20.852907   25.615726 H          1 MOL1         0.0752
      10    C4      20.451856   20.099411   23.691388 C.3        1 MOL1        -0.1858
      11    H5      21.392191   19.573195   23.481353 H          1 MOL1         0.0752
      12    H6      20.552170   21.104060   23.258554 H          1 MOL1         0.0752
      13    C5      19.270288   19.370289   23.006157 C.3        1 MOL1        -0.1858
      14    H7      19.231539   18.323426   23.334386 H          1 MOL1         0.0752
      15    H8      18.328332   19.834228   23.328911 H          1 MOL1         0.0752
      16    C6      19.335149   19.414737   21.460903 C.3        1 MOL1        -0.1858
      17    H9      19.358692   20.459848   21.123186 H          1 MOL1         0.0752
      18    H10     18.408973   18.980086   21.060717 H          1 MOL1         0.0752
      19    C7      20.543206   18.650258   20.873905 C.3        1 MOL1        -0.1834
      20    H11     21.481358   19.116576   21.202401 H          1 MOL1         0.0752
      21    H12     20.548164   17.618675   21.252082 H          1 MOL1         0.0752
      22    C8      20.505446   18.630523   19.332437 C.3        1 MOL1        -0.2849
      23    H13     20.527468   19.650291   18.926295 H          1 MOL1         0.0764
      24    H14     21.370824   18.087151   18.931290 H          1 MOL1         0.0764
      25    H15     19.595932   18.135550   18.967578 H          1 MOL1         0.0764
@<TRIPOS>BOND
    1     1     2    1
    2     1     3    2
    3     1     4    1
    4     4     5    1
    5     4     6    1
    6     4     7    1
    7     7     8    1
    8     7     9    1
    9     7    10    1
   10    10    11    1
   11    10    12    1
   12    10    13    1
   13    13    14    1
   14    13    15    1
   15    13    16    1
   16    16    17    1
   17    16    18    1
   18    16    19    1
   19    19    20    1
   20    19    21    1
   21    19    22    1
   22    22    23    1
   23    22    24    1
   24    22    25    1
@<TRIPOS>SUBSTRUCTURE
       1 MOL1            1 RESIDUE      1      MOL     
@<SCITEGIC>MOL_PROPERTY
VM2 Rank
SciTegic.value.IntegerValue
17

@<SCITEGIC>MOL_PROPERTY
Conf_Id
SciTegic.value.IntegerValue
531

@<SCITEGIC>MOL_PROPERTY
Probability
SciTegic.value.DoubleValue
1.20

@<SCITEGIC>MOL_PROPERTY
Sum Probability
SciTegic.value.DoubleValue
74.93

@<SCITEGIC>MOL_PROPERTY
Delta G
SciTegic.value.DoubleValue
1.758

@<SCITEGIC>MOL_PROPERTY
G
SciTegic.value.DoubleValue
-6.204

@<SCITEGIC>MOL_PROPERTY
E
SciTegic.value.DoubleValue
-30.840

@<SCITEGIC>MOL_PROPERTY
-TS
SciTegic.value.DoubleValue
24.636

@<SCITEGIC>MOL_PROPERTY
U+W
SciTegic.value.DoubleValue
-51.408

@<SCITEGIC>MOL_PROPERTY
U
SciTegic.value.DoubleValue
7.389

@<SCITEGIC>MOL_PROPERTY
W
SciTegic.value.DoubleValue
-58.797

@<SCITEGIC>MOL_PROPERTY
W(PB)
SciTegic.value.DoubleValue
-61.267

@<SCITEGIC>MOL_PROPERTY
W(SA)
SciTegic.value.DoubleValue
2.470

@<SCITEGIC>MOL_PROPERTY
Valence
SciTegic.value.DoubleValue
8.557

@<SCITEGIC>MOL_PROPERTY
Coulomb
SciTegic.value.DoubleValue
-2.278

@<SCITEGIC>MOL_PROPERTY
VdW
SciTegic.value.DoubleValue
1.110

@<SCITEGIC>MOL_PROPERTY
VdW6
SciTegic.value.DoubleValue
-9.029

@<SCITEGIC>MOL_PROPERTY
VdW12
SciTegic.value.DoubleValue
10.139

@<SCITEGIC>MOL_PROPERTY
Bond
SciTegic.value.DoubleValue
0.192

@<SCITEGIC>MOL_PROPERTY
Angle
SciTegic.value.DoubleValue
2.716

@<SCITEGIC>MOL_PROPERTY
Pdih
SciTegic.value.DoubleValue
5.648

@<SCITEGIC>MOL_PROPERTY
Idih
SciTegic.value.DoubleValue
0.001

@<SCITEGIC>MOL_PROPERTY
Tether
SciTegic.value.DoubleValue
0.000

@<TRIPOS>MOLECULE
guest-8_vm2.mol2 : vm2 ligand conformer 18
          25          24           1
SMALL
USER_CHARGES
 
@<TRIPOS>ATOM
       1    C1      20.130034   19.338273   27.829253 C.2        1 MOL1         0.6168
       2    O1      21.019354   20.166717   27.866560 O.co2      1 MOL1        -0.6703
       3    O2      19.610130   18.877196   28.825861 O.co2      1 MOL1        -0.6703
       4    C2      19.620391   18.832752   26.478657 C.3        1 MOL1        -0.1963
       5    H1      18.543310   19.033486   26.439794 H          1 MOL1         0.0750
       6    H2      19.744487   17.743523   26.469352 H          1 MOL1         0.0750
       7    C3      20.314415   19.450540   25.235642 C.3        1 MOL1        -0.1860
       8    H3      20.191696   20.542365   25.254704 H          1 MOL1         0.0752
       9    H4      21.393954   19.251193   25.284247 H          1 MOL1         0.0752
      10    C4      19.740699   18.886172   23.917694 C.3        1 MOL1        -0.1858
      11    H5      18.661427   19.086570   23.871335 H          1 MOL1         0.0752
      12    H6      19.864456   17.794596   23.900888 H          1 MOL1         0.0752
      13    C5      20.432478   19.502075   22.682546 C.3        1 MOL1        -0.1858
      14    H7      20.308856   20.593656   22.699068 H          1 MOL1         0.0752
      15    H8      21.511769   19.301795   22.728607 H          1 MOL1         0.0752
      16    C6      19.859294   18.938217   21.364426 C.3        1 MOL1        -0.1858
      17    H9      18.780006   19.138435   21.318131 H          1 MOL1         0.0752
      18    H10     19.982908   17.846644   21.347644 H          1 MOL1         0.0752
      19    C7      20.550664   19.553808   20.129754 C.3        1 MOL1        -0.1834
      20    H11     20.427482   20.645670   20.142131 H          1 MOL1         0.0752
      21    H12     21.630370   19.353887   20.171635 H          1 MOL1         0.0752
      22    C8      19.975542   18.988250   18.815607 C.3        1 MOL1        -0.2849
      23    H13     18.901821   19.201882   18.732647 H          1 MOL1         0.0764
      24    H14     20.478190   19.436527   17.948727 H          1 MOL1         0.0764
      25    H15     20.113779   17.900384   18.762360 H          1 MOL1         0.0764
@<TRIPOS>BOND
    1     1     2    1
    2     1     3    2
    3     1     4    1
    4     4     5    1
    5     4     6    1
    6     4     7    1
    7     7     8    1
    8     7     9    1
    9     7    10    1
   10    10    11    1
   11    10    12    1
   12    10    13    1
   13    13    14    1
   14    13    15    1
   15    13    16    1
   16    16    17    1
   17    16    18    1
   18    16    19    1
   19    19    20    1
   20    19    21    1
   21    19    22    1
   22    22    23    1
   23    22    24    1
   24    22    25    1
@<TRIPOS>SUBSTRUCTURE
       1 MOL1            1 RESIDUE      1      MOL     
@<SCITEGIC>MOL_PROPERTY
VM2 Rank
SciTegic.value.IntegerValue
18

@<SCITEGIC>MOL_PROPERTY
Conf_Id
SciTegic.value.IntegerValue
0

@<SCITEGIC>MOL_PROPERTY
Probability
SciTegic.value.DoubleValue
1.09

@<SCITEGIC>MOL_PROPERTY
Sum Probability
SciTegic.value.DoubleValue
76.02

@<SCITEGIC>MOL_PROPERTY
Delta G
SciTegic.value.DoubleValue
1.818

@<SCITEGIC>MOL_PROPERTY
G
SciTegic.value.DoubleValue
-6.144

@<SCITEGIC>MOL_PROPERTY
E
SciTegic.value.DoubleValue
-31.062

@<SCITEGIC>MOL_PROPERTY
-TS
SciTegic.value.DoubleValue
24.917

@<SCITEGIC>MOL_PROPERTY
U+W
SciTegic.value.DoubleValue
-51.629

@<SCITEGIC>MOL_PROPERTY
U
SciTegic.value.DoubleValue
6.586

@<SCITEGIC>MOL_PROPERTY
W
SciTegic.value.DoubleValue
-58.216

@<SCITEGIC>MOL_PROPERTY
W(PB)
SciTegic.value.DoubleValue
-60.757

@<SCITEGIC>MOL_PROPERTY
W(SA)
SciTegic.value.DoubleValue
2.541

@<SCITEGIC>MOL_PROPERTY
Valence
SciTegic.value.DoubleValue
8.027

@<SCITEGIC>MOL_PROPERTY
Coulomb
SciTegic.value.DoubleValue
-2.892

@<SCITEGIC>MOL_PROPERTY
VdW
SciTegic.value.DoubleValue
1.451

@<SCITEGIC>MOL_PROPERTY
VdW6
SciTegic.value.DoubleValue
-7.931

@<SCITEGIC>MOL_PROPERTY
VdW12
SciTegic.value.DoubleValue
9.383

@<SCITEGIC>MOL_PROPERTY
Bond
SciTegic.value.DoubleValue
0.149

@<SCITEGIC>MOL_PROPERTY
Angle
SciTegic.value.DoubleValue
2.726

@<SCITEGIC>MOL_PROPERTY
Pdih
SciTegic.value.DoubleValue
5.152

@<SCITEGIC>MOL_PROPERTY
Idih
SciTegic.value.DoubleValue
0.000

@<SCITEGIC>MOL_PROPERTY
Tether
SciTegic.value.DoubleValue
0.000

@<TRIPOS>MOLECULE
guest-8_vm2.mol2 : vm2 ligand conformer 19
          25          24           1
SMALL
USER_CHARGES
 
@<TRIPOS>ATOM
       1    C1      19.615429   19.434938   27.050753 C.2        1 MOL1         0.6168
       2    O1      20.149077   19.281760   28.131770 O.co2      1 MOL1        -0.6703
       3    O2      18.645154   20.144796   26.873679 O.co2      1 MOL1        -0.6703
       4    C2      20.210110   18.714134   25.846357 C.3        1 MOL1        -0.1963
       5    H1      19.386849   18.466355   25.166675 H          1 MOL1         0.0750
       6    H2      20.642475   17.768399   26.194020 H          1 MOL1         0.0750
       7    C3      21.285615   19.557373   25.113773 C.3        1 MOL1        -0.1860
       8    H3      20.832468   20.484659   24.738814 H          1 MOL1         0.0752
       9    H4      22.048248   19.866100   25.842015 H          1 MOL1         0.0752
      10    C4      21.986125   18.799458   23.957908 C.3        1 MOL1        -0.1858
      11    H5      22.532252   17.942316   24.374820 H          1 MOL1         0.0752
      12    H6      22.746903   19.456799   23.515299 H          1 MOL1         0.0752
      13    C5      21.047832   18.291370   22.834305 C.3        1 MOL1        -0.1858
      14    H7      21.657804   17.765985   22.086884 H          1 MOL1         0.0752
      15    H8      20.351006   17.544291   23.236230 H          1 MOL1         0.0752
      16    C6      20.256508   19.419579   22.133214 C.3        1 MOL1        -0.1858
      17    H9      20.953758   20.188440   21.773503 H          1 MOL1         0.0752
      18    H10     19.584166   19.906138   22.852077 H          1 MOL1         0.0752
      19    C7      19.424996   18.882498   20.949287 C.3        1 MOL1        -0.1834
      20    H11     20.088598   18.399483   20.218731 H          1 MOL1         0.0752
      21    H12     18.728049   18.111676   21.306405 H          1 MOL1         0.0752
      22    C8      18.632154   20.008093   20.254954 C.3        1 MOL1        -0.2849
      23    H13     18.047170   19.608815   19.416261 H          1 MOL1         0.0764
      24    H14     17.936281   20.488000   20.955565 H          1 MOL1         0.0764
      25    H15     19.307598   20.778656   19.860794 H          1 MOL1         0.0764
@<TRIPOS>BOND
    1     1     2    1
    2     1     3    2
    3     1     4    1
    4     4     5    1
    5     4     6    1
    6     4     7    1
    7     7     8    1
    8     7     9    1
    9     7    10    1
   10    10    11    1
   11    10    12    1
   12    10    13    1
   13    13    14    1
   14    13    15    1
   15    13    16    1
   16    16    17    1
   17    16    18    1
   18    16    19    1
   19    19    20    1
   20    19    21    1
   21    19    22    1
   22    22    23    1
   23    22    24    1
   24    22    25    1
@<TRIPOS>SUBSTRUCTURE
       1 MOL1            1 RESIDUE      1      MOL     
@<SCITEGIC>MOL_PROPERTY
VM2 Rank
SciTegic.value.IntegerValue
19

@<SCITEGIC>MOL_PROPERTY
Conf_Id
SciTegic.value.IntegerValue
509

@<SCITEGIC>MOL_PROPERTY
Probability
SciTegic.value.DoubleValue
1.07

@<SCITEGIC>MOL_PROPERTY
Sum Probability
SciTegic.value.DoubleValue
77.10

@<SCITEGIC>MOL_PROPERTY
Delta G
SciTegic.value.DoubleValue
1.825

@<SCITEGIC>MOL_PROPERTY
G
SciTegic.value.DoubleValue
-6.137

@<SCITEGIC>MOL_PROPERTY
E
SciTegic.value.DoubleValue
-30.981

@<SCITEGIC>MOL_PROPERTY
-TS
SciTegic.value.DoubleValue
24.843

@<SCITEGIC>MOL_PROPERTY
U+W
SciTegic.value.DoubleValue
-51.548

@<SCITEGIC>MOL_PROPERTY
U
SciTegic.value.DoubleValue
8.114

@<SCITEGIC>MOL_PROPERTY
W
SciTegic.value.DoubleValue
-59.662

@<SCITEGIC>MOL_PROPERTY
W(PB)
SciTegic.value.DoubleValue
-62.135

@<SCITEGIC>MOL_PROPERTY
W(SA)
SciTegic.value.DoubleValue
2.473

@<SCITEGIC>MOL_PROPERTY
Valence
SciTegic.value.DoubleValue
8.487

@<SCITEGIC>MOL_PROPERTY
Coulomb
SciTegic.value.DoubleValue
-1.260

@<SCITEGIC>MOL_PROPERTY
VdW
SciTegic.value.DoubleValue
0.887

@<SCITEGIC>MOL_PROPERTY
VdW6
SciTegic.value.DoubleValue
-9.447

@<SCITEGIC>MOL_PROPERTY
VdW12
SciTegic.value.DoubleValue
10.334

@<SCITEGIC>MOL_PROPERTY
Bond
SciTegic.value.DoubleValue
0.199

@<SCITEGIC>MOL_PROPERTY
Angle
SciTegic.value.DoubleValue
2.915

@<SCITEGIC>MOL_PROPERTY
Pdih
SciTegic.value.DoubleValue
5.373

@<SCITEGIC>MOL_PROPERTY
Idih
SciTegic.value.DoubleValue
0.001

@<SCITEGIC>MOL_PROPERTY
Tether
SciTegic.value.DoubleValue
0.000

@<TRIPOS>MOLECULE
guest-8_vm2.mol2 : vm2 ligand conformer 20
          25          24           1
SMALL
USER_CHARGES
 
@<TRIPOS>ATOM
       1    C1      20.084139   18.972651   27.438651 C.2        1 MOL1         0.6168
       2    O1      21.069709   18.437020   27.906013 O.co2      1 MOL1        -0.6703
       3    O2      18.947089   18.687324   27.758592 O.co2      1 MOL1        -0.6703
       4    C2      20.284725   20.047907   26.376675 C.3        1 MOL1        -0.1963
       5    H1      21.222036   20.572899   26.596620 H          1 MOL1         0.0750
       6    H2      19.472883   20.778656   26.474130 H          1 MOL1         0.0750
       7    C3      20.317074   19.474066   24.938673 C.3        1 MOL1        -0.1860
       8    H3      21.128707   18.737591   24.860045 H          1 MOL1         0.0752
       9    H4      19.378167   18.937123   24.749524 H          1 MOL1         0.0752
      10    C4      20.516937   20.585191   23.882015 C.3        1 MOL1        -0.1858
      11    H5      21.421117   21.157278   24.131204 H          1 MOL1         0.0752
      12    H6      19.678675   21.293923   23.926220 H          1 MOL1         0.0752
      13    C5      20.661547   20.043169   22.440103 C.3        1 MOL1        -0.1858
      14    H7      20.911723   20.881469   21.775842 H          1 MOL1         0.0752
      15    H8      21.510656   19.348414   22.399388 H          1 MOL1         0.0752
      16    C6      19.381980   19.347966   21.913839 C.3        1 MOL1        -0.1858
      17    H9      18.521323   20.010801   22.076806 H          1 MOL1         0.0752
      18    H10     19.186210   18.433693   22.489118 H          1 MOL1         0.0752
      19    C7      19.452995   18.994144   20.410080 C.3        1 MOL1        -0.1834
      20    H11     18.475557   18.605692   20.092388 H          1 MOL1         0.0752
      21    H12     19.630564   19.905255   19.822189 H          1 MOL1         0.0752
      22    C8      20.536806   17.944562   20.081359 C.3        1 MOL1        -0.2849
      23    H13     20.395008   17.033632   20.677367 H          1 MOL1         0.0764
      24    H14     20.491779   17.665155   19.020801 H          1 MOL1         0.0764
      25    H15     21.543459   18.333033   20.280252 H          1 MOL1         0.0764
@<TRIPOS>BOND
    1     1     2    1
    2     1     3    2
    3     1     4    1
    4     4     5    1
    5     4     6    1
    6     4     7    1
    7     7     8    1
    8     7     9    1
    9     7    10    1
   10    10    11    1
   11    10    12    1
   12    10    13    1
   13    13    14    1
   14    13    15    1
   15    13    16    1
   16    16    17    1
   17    16    18    1
   18    16    19    1
   19    19    20    1
   20    19    21    1
   21    19    22    1
   22    22    23    1
   23    22    24    1
   24    22    25    1
@<TRIPOS>SUBSTRUCTURE
       1 MOL1            1 RESIDUE      1      MOL     
@<SCITEGIC>MOL_PROPERTY
VM2 Rank
SciTegic.value.IntegerValue
20

@<SCITEGIC>MOL_PROPERTY
Conf_Id
SciTegic.value.IntegerValue
494

@<SCITEGIC>MOL_PROPERTY
Probability
SciTegic.value.DoubleValue
1.06

@<SCITEGIC>MOL_PROPERTY
Sum Probability
SciTegic.value.DoubleValue
78.16

@<SCITEGIC>MOL_PROPERTY
Delta G
SciTegic.value.DoubleValue
1.834

@<SCITEGIC>MOL_PROPERTY
G
SciTegic.value.DoubleValue
-6.128

@<SCITEGIC>MOL_PROPERTY
E
SciTegic.value.DoubleValue
-30.769

@<SCITEGIC>MOL_PROPERTY
-TS
SciTegic.value.DoubleValue
24.641

@<SCITEGIC>MOL_PROPERTY
U+W
SciTegic.value.DoubleValue
-51.337

@<SCITEGIC>MOL_PROPERTY
U
SciTegic.value.DoubleValue
7.838

@<SCITEGIC>MOL_PROPERTY
W
SciTegic.value.DoubleValue
-59.175

@<SCITEGIC>MOL_PROPERTY
W(PB)
SciTegic.value.DoubleValue
-61.669

@<SCITEGIC>MOL_PROPERTY
W(SA)
SciTegic.value.DoubleValue
2.494

@<SCITEGIC>MOL_PROPERTY
Valence
SciTegic.value.DoubleValue
8.536

@<SCITEGIC>MOL_PROPERTY
Coulomb
SciTegic.value.DoubleValue
-1.810

@<SCITEGIC>MOL_PROPERTY
VdW
SciTegic.value.DoubleValue
1.112

@<SCITEGIC>MOL_PROPERTY
VdW6
SciTegic.value.DoubleValue
-8.987

@<SCITEGIC>MOL_PROPERTY
VdW12
SciTegic.value.DoubleValue
10.099

@<SCITEGIC>MOL_PROPERTY
Bond
SciTegic.value.DoubleValue
0.183

@<SCITEGIC>MOL_PROPERTY
Angle
SciTegic.value.DoubleValue
2.701

@<SCITEGIC>MOL_PROPERTY
Pdih
SciTegic.value.DoubleValue
5.652

@<SCITEGIC>MOL_PROPERTY
Idih
SciTegic.value.DoubleValue
0.001

@<SCITEGIC>MOL_PROPERTY
Tether
SciTegic.value.DoubleValue
0.000

@<TRIPOS>MOLECULE
guest-8_vm2.mol2 : vm2 ligand conformer 21
          25          24           1
SMALL
USER_CHARGES
 
@<TRIPOS>ATOM
       1    C1      20.671061   19.501654   27.038495 C.2        1 MOL1         0.6168
       2    O1      21.539466   20.328232   26.840175 O.co2      1 MOL1        -0.6703
       3    O2      20.186329   19.283572   28.131343 O.co2      1 MOL1        -0.6703
       4    C2      20.144410   18.710011   25.846976 C.3        1 MOL1        -0.1963
       5    H1      19.842886   17.717764   26.202998 H          1 MOL1         0.0750
       6    H2      20.976457   18.567126   25.148118 H          1 MOL1         0.0750
       7    C3      18.954563   19.409926   25.140699 C.3        1 MOL1        -0.1860
       8    H3      18.176108   19.621059   25.886815 H          1 MOL1         0.0752
       9    H4      19.278431   20.386420   24.756813 H          1 MOL1         0.0752
      10    C4      18.328687   18.568166   24.000131 C.3        1 MOL1        -0.1858
      11    H5      17.481192   19.123819   23.576120 H          1 MOL1         0.0752
      12    H6      17.904608   17.649657   24.428223 H          1 MOL1         0.0752
      13    C5      19.297395   18.180701   22.854484 C.3        1 MOL1        -0.1858
      14    H7      20.091785   17.527851   23.239151 H          1 MOL1         0.0752
      15    H8      18.741399   17.581669   22.120479 H          1 MOL1         0.0752
      16    C6      19.924058   19.398588   22.137113 C.3        1 MOL1        -0.1858
      17    H9      20.546125   19.966920   22.841086 H          1 MOL1         0.0752
      18    H10     19.127479   20.073047   21.794677 H          1 MOL1         0.0752
      19    C7      20.789161   18.968829   20.933596 C.3        1 MOL1        -0.1834
      20    H11     21.585599   18.292351   21.273445 H          1 MOL1         0.0752
      21    H12     20.175041   18.405130   20.217718 H          1 MOL1         0.0752
      22    C8      21.417871   20.184320   20.222988 C.3        1 MOL1        -0.2849
      23    H13     20.641939   20.863152   19.845536 H          1 MOL1         0.0764
      24    H14     22.063627   20.749004   20.908215 H          1 MOL1         0.0764
      25    H15     22.029129   19.860700   19.370540 H          1 MOL1         0.0764
@<TRIPOS>BOND
    1     1     2    1
    2     1     3    2
    3     1     4    1
    4     4     5    1
    5     4     6    1
    6     4     7    1
    7     7     8    1
    8     7     9    1
    9     7    10    1
   10    10    11    1
   11    10    12    1
   12    10    13    1
   13    13    14    1
   14    13    15    1
   15    13    16    1
   16    16    17    1
   17    16    18    1
   18    16    19    1
   19    19    20    1
   20    19    21    1
   21    19    22    1
   22    22    23    1
   23    22    24    1
   24    22    25    1
@<TRIPOS>SUBSTRUCTURE
       1 MOL1            1 RESIDUE      1      MOL     
@<SCITEGIC>MOL_PROPERTY
VM2 Rank
SciTegic.value.IntegerValue
21

@<SCITEGIC>MOL_PROPERTY
Conf_Id
SciTegic.value.IntegerValue
847

@<SCITEGIC>MOL_PROPERTY
Probability
SciTegic.value.DoubleValue
1.05

@<SCITEGIC>MOL_PROPERTY
Sum Probability
SciTegic.value.DoubleValue
79.20

@<SCITEGIC>MOL_PROPERTY
Delta G
SciTegic.value.DoubleValue
1.840

@<SCITEGIC>MOL_PROPERTY
G
SciTegic.value.DoubleValue
-6.123

@<SCITEGIC>MOL_PROPERTY
E
SciTegic.value.DoubleValue
-30.966

@<SCITEGIC>MOL_PROPERTY
-TS
SciTegic.value.DoubleValue
24.843

@<SCITEGIC>MOL_PROPERTY
U+W
SciTegic.value.DoubleValue
-51.534

@<SCITEGIC>MOL_PROPERTY
U
SciTegic.value.DoubleValue
8.114

@<SCITEGIC>MOL_PROPERTY
W
SciTegic.value.DoubleValue
-59.648

@<SCITEGIC>MOL_PROPERTY
W(PB)
SciTegic.value.DoubleValue
-62.099

@<SCITEGIC>MOL_PROPERTY
W(SA)
SciTegic.value.DoubleValue
2.451

@<SCITEGIC>MOL_PROPERTY
Valence
SciTegic.value.DoubleValue
8.487

@<SCITEGIC>MOL_PROPERTY
Coulomb
SciTegic.value.DoubleValue
-1.260

@<SCITEGIC>MOL_PROPERTY
VdW
SciTegic.value.DoubleValue
0.887

@<SCITEGIC>MOL_PROPERTY
VdW6
SciTegic.value.DoubleValue
-9.447

@<SCITEGIC>MOL_PROPERTY
VdW12
SciTegic.value.DoubleValue
10.334

@<SCITEGIC>MOL_PROPERTY
Bond
SciTegic.value.DoubleValue
0.199

@<SCITEGIC>MOL_PROPERTY
Angle
SciTegic.value.DoubleValue
2.915

@<SCITEGIC>MOL_PROPERTY
Pdih
SciTegic.value.DoubleValue
5.373

@<SCITEGIC>MOL_PROPERTY
Idih
SciTegic.value.DoubleValue
0.001

@<SCITEGIC>MOL_PROPERTY
Tether
SciTegic.value.DoubleValue
0.000

@<TRIPOS>MOLECULE
guest-8_vm2.mol2 : vm2 ligand conformer 22
          25          24           1
SMALL
USER_CHARGES
 
@<TRIPOS>ATOM
       1    C1      20.274262   18.984946   27.436437 C.2        1 MOL1         0.6168
       2    O1      21.445600   18.849404   27.730129 O.co2      1 MOL1        -0.6703
       3    O2      19.377021   18.327038   27.925096 O.co2      1 MOL1        -0.6703
       4    C2      19.912406   20.023842   26.380996 C.3        1 MOL1        -0.1963
       5    H1      20.625286   20.853297   26.460902 H          1 MOL1         0.0750
       6    H2      18.920535   20.423930   26.623206 H          1 MOL1         0.0750
       7    C3      19.921292   19.448538   24.943242 C.3        1 MOL1        -0.1860
       8    H3      20.917005   19.036881   24.731760 H          1 MOL1         0.0752
       9    H4      19.209815   18.613436   24.882158 H          1 MOL1         0.0752
      10    C4      19.555602   20.523075   23.893140 C.3        1 MOL1        -0.1858
      11    H5      20.296361   21.333965   23.919049 H          1 MOL1         0.0752
      12    H6      18.591244   20.974274   24.163978 H          1 MOL1         0.0752
      13    C5      19.448788   19.964795   22.454139 C.3        1 MOL1        -0.1858
      14    H7      18.695405   19.166514   22.431949 H          1 MOL1         0.0752
      15    H8      19.077622   20.762948   21.797052 H          1 MOL1         0.0752
      16    C6      20.794701   19.439191   21.897531 C.3        1 MOL1        -0.1858
      17    H9      21.119620   18.558534   22.466775 H          1 MOL1         0.0752
      18    H10     21.566474   20.207458   22.041652 H          1 MOL1         0.0752
      19    C7      20.735199   19.076967   20.395274 C.3        1 MOL1        -0.1834
      20    H11     20.428419   19.956800   19.812993 H          1 MOL1         0.0752
      21    H12     21.746911   18.817010   20.054583 H          1 MOL1         0.0752
      22    C8      19.788129   17.896203   20.090017 C.3        1 MOL1        -0.2849
      23    H13     18.744712   18.152262   20.312573 H          1 MOL1         0.0764
      24    H14     19.844330   17.623320   19.028294 H          1 MOL1         0.0764
      25    H15     20.059582   17.011975   20.681268 H          1 MOL1         0.0764
@<TRIPOS>BOND
    1     1     2    1
    2     1     3    2
    3     1     4    1
    4     4     5    1
    5     4     6    1
    6     4     7    1
    7     7     8    1
    8     7     9    1
    9     7    10    1
   10    10    11    1
   11    10    12    1
   12    10    13    1
   13    13    14    1
   14    13    15    1
   15    13    16    1
   16    16    17    1
   17    16    18    1
   18    16    19    1
   19    19    20    1
   20    19    21    1
   21    19    22    1
   22    22    23    1
   23    22    24    1
   24    22    25    1
@<TRIPOS>SUBSTRUCTURE
       1 MOL1            1 RESIDUE      1      MOL     
@<SCITEGIC>MOL_PROPERTY
VM2 Rank
SciTegic.value.IntegerValue
22

@<SCITEGIC>MOL_PROPERTY
Conf_Id
SciTegic.value.IntegerValue
181

@<SCITEGIC>MOL_PROPERTY
Probability
SciTegic.value.DoubleValue
1.05

@<SCITEGIC>MOL_PROPERTY
Sum Probability
SciTegic.value.DoubleValue
80.25

@<SCITEGIC>MOL_PROPERTY
Delta G
SciTegic.value.DoubleValue
1.841

@<SCITEGIC>MOL_PROPERTY
G
SciTegic.value.DoubleValue
-6.122

@<SCITEGIC>MOL_PROPERTY
E
SciTegic.value.DoubleValue
-30.763

@<SCITEGIC>MOL_PROPERTY
-TS
SciTegic.value.DoubleValue
24.641

@<SCITEGIC>MOL_PROPERTY
U+W
SciTegic.value.DoubleValue
-51.331

@<SCITEGIC>MOL_PROPERTY
U
SciTegic.value.DoubleValue
7.838

@<SCITEGIC>MOL_PROPERTY
W
SciTegic.value.DoubleValue
-59.169

@<SCITEGIC>MOL_PROPERTY
W(PB)
SciTegic.value.DoubleValue
-61.673

@<SCITEGIC>MOL_PROPERTY
W(SA)
SciTegic.value.DoubleValue
2.505

@<SCITEGIC>MOL_PROPERTY
Valence
SciTegic.value.DoubleValue
8.536

@<SCITEGIC>MOL_PROPERTY
Coulomb
SciTegic.value.DoubleValue
-1.810

@<SCITEGIC>MOL_PROPERTY
VdW
SciTegic.value.DoubleValue
1.112

@<SCITEGIC>MOL_PROPERTY
VdW6
SciTegic.value.DoubleValue
-8.988

@<SCITEGIC>MOL_PROPERTY
VdW12
SciTegic.value.DoubleValue
10.100

@<SCITEGIC>MOL_PROPERTY
Bond
SciTegic.value.DoubleValue
0.183

@<SCITEGIC>MOL_PROPERTY
Angle
SciTegic.value.DoubleValue
2.701

@<SCITEGIC>MOL_PROPERTY
Pdih
SciTegic.value.DoubleValue
5.652

@<SCITEGIC>MOL_PROPERTY
Idih
SciTegic.value.DoubleValue
0.001

@<SCITEGIC>MOL_PROPERTY
Tether
SciTegic.value.DoubleValue
0.000

@<TRIPOS>MOLECULE
guest-8_vm2.mol2 : vm2 ligand conformer 23
          25          24           1
SMALL
USER_CHARGES
 
@<TRIPOS>ATOM
       1    C1      20.087347   19.251033   27.583433 C.2        1 MOL1         0.6168
       2    O1      21.090596   19.267263   28.268980 O.co2      1 MOL1        -0.6703
       3    O2      18.992588   19.593850   27.984296 O.co2      1 MOL1        -0.6703
       4    C2      20.213749   18.797617   26.133402 C.3        1 MOL1        -0.1963
       5    H1      19.277695   18.299024   25.858457 H          1 MOL1         0.0750
       6    H2      21.010970   18.046620   26.080467 H          1 MOL1         0.0750
       7    C3      20.516937   19.969419   25.163577 C.3        1 MOL1        -0.1860
       8    H3      19.688699   20.691031   25.188493 H          1 MOL1         0.0752
       9    H4      21.405013   20.504807   25.527119 H          1 MOL1         0.0752
      10    C4      20.774520   19.518512   23.705792 C.3        1 MOL1        -0.1858
      11    H5      21.596887   18.790482   23.685755 H          1 MOL1         0.0752
      12    H6      21.117897   20.391856   23.137062 H          1 MOL1         0.0752
      13    C5      19.524807   18.914676   23.018740 C.3        1 MOL1        -0.1858
      14    H7      19.180741   18.042346   23.588521 H          1 MOL1         0.0752
      15    H8      18.702725   19.643037   23.037497 H          1 MOL1         0.0752
      16    C6      19.781164   18.460601   21.561654 C.3        1 MOL1        -0.1858
      17    H9      18.894789   17.916970   21.207083 H          1 MOL1         0.0752
      18    H10     20.613440   17.743841   21.540393 H          1 MOL1         0.0752
      19    C7      20.072194   19.627499   20.590722 C.3        1 MOL1        -0.1834
      20    H11     19.266729   20.372082   20.654126 H          1 MOL1         0.0752
      21    H12     21.002173   20.135946   20.876415 H          1 MOL1         0.0752
      22    C8      20.199099   19.133530   19.135405 C.3        1 MOL1        -0.2849
      23    H13     19.270500   18.652897   18.800681 H          1 MOL1         0.0764
      24    H14     20.408935   19.972397   18.459143 H          1 MOL1         0.0764
      25    H15     21.016117   18.406697   19.037576 H          1 MOL1         0.0764
@<TRIPOS>BOND
    1     1     2    1
    2     1     3    2
    3     1     4    1
    4     4     5    1
    5     4     6    1
    6     4     7    1
    7     7     8    1
    8     7     9    1
    9     7    10    1
   10    10    11    1
   11    10    12    1
   12    10    13    1
   13    13    14    1
   14    13    15    1
   15    13    16    1
   16    16    17    1
   17    16    18    1
   18    16    19    1
   19    19    20    1
   20    19    21    1
   21    19    22    1
   22    22    23    1
   23    22    24    1
   24    22    25    1
@<TRIPOS>SUBSTRUCTURE
       1 MOL1            1 RESIDUE      1      MOL     
@<SCITEGIC>MOL_PROPERTY
VM2 Rank
SciTegic.value.IntegerValue
23

@<SCITEGIC>MOL_PROPERTY
Conf_Id
SciTegic.value.IntegerValue
93

@<SCITEGIC>MOL_PROPERTY
Probability
SciTegic.value.DoubleValue
1.04

@<SCITEGIC>MOL_PROPERTY
Sum Probability
SciTegic.value.DoubleValue
81.29

@<SCITEGIC>MOL_PROPERTY
Delta G
SciTegic.value.DoubleValue
1.846

@<SCITEGIC>MOL_PROPERTY
G
SciTegic.value.DoubleValue
-6.116

@<SCITEGIC>MOL_PROPERTY
E
SciTegic.value.DoubleValue
-30.665

@<SCITEGIC>MOL_PROPERTY
-TS
SciTegic.value.DoubleValue
24.549

@<SCITEGIC>MOL_PROPERTY
U+W
SciTegic.value.DoubleValue
-51.232

@<SCITEGIC>MOL_PROPERTY
U
SciTegic.value.DoubleValue
7.506

@<SCITEGIC>MOL_PROPERTY
W
SciTegic.value.DoubleValue
-58.739

@<SCITEGIC>MOL_PROPERTY
W(PB)
SciTegic.value.DoubleValue
-61.275

@<SCITEGIC>MOL_PROPERTY
W(SA)
SciTegic.value.DoubleValue
2.536

@<SCITEGIC>MOL_PROPERTY
Valence
SciTegic.value.DoubleValue
8.668

@<SCITEGIC>MOL_PROPERTY
Coulomb
SciTegic.value.DoubleValue
-2.355

@<SCITEGIC>MOL_PROPERTY
VdW
SciTegic.value.DoubleValue
1.194

@<SCITEGIC>MOL_PROPERTY
VdW6
SciTegic.value.DoubleValue
-8.929

@<SCITEGIC>MOL_PROPERTY
VdW12
SciTegic.value.DoubleValue
10.122

@<SCITEGIC>MOL_PROPERTY
Bond
SciTegic.value.DoubleValue
0.201

@<SCITEGIC>MOL_PROPERTY
Angle
SciTegic.value.DoubleValue
2.816

@<SCITEGIC>MOL_PROPERTY
Pdih
SciTegic.value.DoubleValue
5.651

@<SCITEGIC>MOL_PROPERTY
Idih
SciTegic.value.DoubleValue
0.001

@<SCITEGIC>MOL_PROPERTY
Tether
SciTegic.value.DoubleValue
0.000

@<TRIPOS>MOLECULE
guest-8_vm2.mol2 : vm2 ligand conformer 24
          25          24           1
SMALL
USER_CHARGES
 
@<TRIPOS>ATOM
       1    C1      20.145545   19.475057   27.576056 C.2        1 MOL1         0.6168
       2    O1      21.024413   19.014177   28.277429 O.co2      1 MOL1        -0.6703
       3    O2      19.028889   19.734167   27.979363 O.co2      1 MOL1        -0.6703
       4    C2      20.453859   19.719160   26.103131 C.3        1 MOL1        -0.1963
       5    H1      21.515051   19.981491   26.017016 H          1 MOL1         0.0750
       6    H2      19.875280   20.592743   25.782993 H          1 MOL1         0.0750
       7    C3      20.132002   18.491064   25.212181 C.3        1 MOL1        -0.1860
       8    H3      20.652141   17.614252   25.622229 H          1 MOL1         0.0752
       9    H4      19.057602   18.267757   25.268038 H          1 MOL1         0.0752
      10    C4      20.553456   18.668564   23.733776 C.3        1 MOL1        -0.1858
      11    H5      20.418203   17.705603   23.225342 H          1 MOL1         0.0752
      12    H6      21.626004   18.900309   23.682270 H          1 MOL1         0.0752
      13    C5      19.746118   19.761675   22.990969 C.3        1 MOL1        -0.1858
      14    H7      18.673609   19.529614   23.041484 H          1 MOL1         0.0752
      15    H8      19.880573   20.724201   23.500338 H          1 MOL1         0.0752
      16    C6      20.167769   19.942301   21.512936 C.3        1 MOL1        -0.1858
      17    H9      21.243533   20.158841   21.460759 H          1 MOL1         0.0752
      18    H10     19.653805   20.826401   21.111535 H          1 MOL1         0.0752
      19    C7      19.836435   18.724601   20.620482 C.3        1 MOL1        -0.1834
      20    H11     20.404511   17.845614   20.951645 H          1 MOL1         0.0752
      21    H12     18.771178   18.473349   20.716901 H          1 MOL1         0.0752
      22    C8      20.164515   19.003234   19.139677 C.3        1 MOL1        -0.2849
      23    H13     21.230634   19.231242   19.010159 H          1 MOL1         0.0764
      24    H14     19.927159   18.128891   18.519801 H          1 MOL1         0.0764
      25    H15     19.583290   19.854340   18.761336 H          1 MOL1         0.0764
@<TRIPOS>BOND
    1     1     2    1
    2     1     3    2
    3     1     4    1
    4     4     5    1
    5     4     6    1
    6     4     7    1
    7     7     8    1
    8     7     9    1
    9     7    10    1
   10    10    11    1
   11    10    12    1
   12    10    13    1
   13    13    14    1
   14    13    15    1
   15    13    16    1
   16    16    17    1
   17    16    18    1
   18    16    19    1
   19    19    20    1
   20    19    21    1
   21    19    22    1
   22    22    23    1
   23    22    24    1
   24    22    25    1
@<TRIPOS>SUBSTRUCTURE
       1 MOL1            1 RESIDUE      1      MOL     
@<SCITEGIC>MOL_PROPERTY
VM2 Rank
SciTegic.value.IntegerValue
24

@<SCITEGIC>MOL_PROPERTY
Conf_Id
SciTegic.value.IntegerValue
1038

@<SCITEGIC>MOL_PROPERTY
Probability
SciTegic.value.DoubleValue
1.03

@<SCITEGIC>MOL_PROPERTY
Sum Probability
SciTegic.value.DoubleValue
82.32

@<SCITEGIC>MOL_PROPERTY
Delta G
SciTegic.value.DoubleValue
1.850

@<SCITEGIC>MOL_PROPERTY
G
SciTegic.value.DoubleValue
-6.113

@<SCITEGIC>MOL_PROPERTY
E
SciTegic.value.DoubleValue
-30.661

@<SCITEGIC>MOL_PROPERTY
-TS
SciTegic.value.DoubleValue
24.548

@<SCITEGIC>MOL_PROPERTY
U+W
SciTegic.value.DoubleValue
-51.228

@<SCITEGIC>MOL_PROPERTY
U
SciTegic.value.DoubleValue
7.507

@<SCITEGIC>MOL_PROPERTY
W
SciTegic.value.DoubleValue
-58.735

@<SCITEGIC>MOL_PROPERTY
W(PB)
SciTegic.value.DoubleValue
-61.250

@<SCITEGIC>MOL_PROPERTY
W(SA)
SciTegic.value.DoubleValue
2.515

@<SCITEGIC>MOL_PROPERTY
Valence
SciTegic.value.DoubleValue
8.668

@<SCITEGIC>MOL_PROPERTY
Coulomb
SciTegic.value.DoubleValue
-2.355

@<SCITEGIC>MOL_PROPERTY
VdW
SciTegic.value.DoubleValue
1.194

@<SCITEGIC>MOL_PROPERTY
VdW6
SciTegic.value.DoubleValue
-8.929

@<SCITEGIC>MOL_PROPERTY
VdW12
SciTegic.value.DoubleValue
10.123

@<SCITEGIC>MOL_PROPERTY
Bond
SciTegic.value.DoubleValue
0.201

@<SCITEGIC>MOL_PROPERTY
Angle
SciTegic.value.DoubleValue
2.816

@<SCITEGIC>MOL_PROPERTY
Pdih
SciTegic.value.DoubleValue
5.651

@<SCITEGIC>MOL_PROPERTY
Idih
SciTegic.value.DoubleValue
0.001

@<SCITEGIC>MOL_PROPERTY
Tether
SciTegic.value.DoubleValue
0.000

@<TRIPOS>MOLECULE
guest-8_vm2.mol2 : vm2 ligand conformer 25
          25          24           1
SMALL
USER_CHARGES
 
@<TRIPOS>ATOM
       1    C1      20.254115   19.121141   27.537603 C.2        1 MOL1         0.6168
       2    O1      21.344478   18.668422   27.825362 O.co2      1 MOL1        -0.6703
       3    O2      19.227565   18.823791   28.115920 O.co2      1 MOL1        -0.6703
       4    C2      20.166026   20.100363   26.372449 C.3        1 MOL1        -0.1963
       5    H1      21.097936   20.677566   26.341315 H          1 MOL1         0.0750
       6    H2      19.353752   20.806613   26.582147 H          1 MOL1         0.0750
       7    C3      19.927313   19.397700   25.013175 C.3        1 MOL1        -0.1860
       8    H3      20.741303   18.682484   24.837010 H          1 MOL1         0.0752
       9    H4      18.995763   18.817230   25.063875 H          1 MOL1         0.0752
      10    C4      19.846730   20.413144   23.849499 C.3        1 MOL1        -0.1858
      11    H5      20.798694   20.954548   23.762245 H          1 MOL1         0.0752
      12    H6      19.082260   21.165638   24.086765 H          1 MOL1         0.0752
      13    C5      19.490906   19.768563   22.488395 C.3        1 MOL1        -0.1858
      14    H7      18.546251   19.215386   22.579023 H          1 MOL1         0.0752
      15    H8      19.310430   20.576438   21.767991 H          1 MOL1         0.0752
      16    C6      20.595663   18.830798   21.941785 C.3        1 MOL1        -0.1858
      17    H9      20.774087   18.019399   22.658612 H          1 MOL1         0.0752
      18    H10     21.540993   19.383342   21.854203 H          1 MOL1         0.0752
      19    C7      20.240983   18.193438   20.577812 C.3        1 MOL1        -0.1834
      20    H11     21.006153   17.444702   20.330511 H          1 MOL1         0.0752
      21    H12     19.289825   17.649294   20.658461 H          1 MOL1         0.0752
      22    C8      20.159222   19.216641   19.424000 C.3        1 MOL1        -0.2849
      23    H13     19.326121   19.916167   19.565466 H          1 MOL1         0.0764
      24    H14     21.087832   19.797022   19.346854 H          1 MOL1         0.0764
      25    H15     20.001553   18.703125   18.466737 H          1 MOL1         0.0764
@<TRIPOS>BOND
    1     1     2    1
    2     1     3    2
    3     1     4    1
    4     4     5    1
    5     4     6    1
    6     4     7    1
    7     7     8    1
    8     7     9    1
    9     7    10    1
   10    10    11    1
   11    10    12    1
   12    10    13    1
   13    13    14    1
   14    13    15    1
   15    13    16    1
   16    16    17    1
   17    16    18    1
   18    16    19    1
   19    19    20    1
   20    19    21    1
   21    19    22    1
   22    22    23    1
   23    22    24    1
   24    22    25    1
@<TRIPOS>SUBSTRUCTURE
       1 MOL1            1 RESIDUE      1      MOL     
@<SCITEGIC>MOL_PROPERTY
VM2 Rank
SciTegic.value.IntegerValue
25

@<SCITEGIC>MOL_PROPERTY
Conf_Id
SciTegic.value.IntegerValue
1351

@<SCITEGIC>MOL_PROPERTY
Probability
SciTegic.value.DoubleValue
1.03

@<SCITEGIC>MOL_PROPERTY
Sum Probability
SciTegic.value.DoubleValue
83.35

@<SCITEGIC>MOL_PROPERTY
Delta G
SciTegic.value.DoubleValue
1.852

@<SCITEGIC>MOL_PROPERTY
G
SciTegic.value.DoubleValue
-6.111

@<SCITEGIC>MOL_PROPERTY
E
SciTegic.value.DoubleValue
-30.670

@<SCITEGIC>MOL_PROPERTY
-TS
SciTegic.value.DoubleValue
24.559

@<SCITEGIC>MOL_PROPERTY
U+W
SciTegic.value.DoubleValue
-51.237

@<SCITEGIC>MOL_PROPERTY
U
SciTegic.value.DoubleValue
7.805

@<SCITEGIC>MOL_PROPERTY
W
SciTegic.value.DoubleValue
-59.042

@<SCITEGIC>MOL_PROPERTY
W(PB)
SciTegic.value.DoubleValue
-61.532

@<SCITEGIC>MOL_PROPERTY
W(SA)
SciTegic.value.DoubleValue
2.490

@<SCITEGIC>MOL_PROPERTY
Valence
SciTegic.value.DoubleValue
8.643

@<SCITEGIC>MOL_PROPERTY
Coulomb
SciTegic.value.DoubleValue
-2.028

@<SCITEGIC>MOL_PROPERTY
VdW
SciTegic.value.DoubleValue
1.190

@<SCITEGIC>MOL_PROPERTY
VdW6
SciTegic.value.DoubleValue
-8.891

@<SCITEGIC>MOL_PROPERTY
VdW12
SciTegic.value.DoubleValue
10.081

@<SCITEGIC>MOL_PROPERTY
Bond
SciTegic.value.DoubleValue
0.190

@<SCITEGIC>MOL_PROPERTY
Angle
SciTegic.value.DoubleValue
2.795

@<SCITEGIC>MOL_PROPERTY
Pdih
SciTegic.value.DoubleValue
5.656

@<SCITEGIC>MOL_PROPERTY
Idih
SciTegic.value.DoubleValue
0.001

@<SCITEGIC>MOL_PROPERTY
Tether
SciTegic.value.DoubleValue
0.000

@<TRIPOS>MOLECULE
guest-8_vm2.mol2 : vm2 ligand conformer 26
          25          24           1
SMALL
USER_CHARGES
 
@<TRIPOS>ATOM
       1    C1      19.704000   19.228944   27.221051 C.2        1 MOL1         0.6168
       2    O1      20.410707   18.634628   28.011040 O.co2      1 MOL1        -0.6703
       3    O2      18.489579   19.193595   27.245112 O.co2      1 MOL1        -0.6703
       4    C2      20.378872   20.049082   26.127380 C.3        1 MOL1        -0.1963
       5    H1      21.312870   20.455210   26.533823 H          1 MOL1         0.0750
       6    H2      19.730160   20.901033   25.890872 H          1 MOL1         0.0750
       7    C3      20.665211   19.224952   24.847993 C.3        1 MOL1        -0.1860
       8    H3      21.308218   18.370980   25.101880 H          1 MOL1         0.0752
       9    H4      19.719004   18.813591   24.471962 H          1 MOL1         0.0752
      10    C4      21.342949   20.081348   23.753518 C.3        1 MOL1        -0.1858
      11    H5      22.245828   20.546386   24.172233 H          1 MOL1         0.0752
      12    H6      20.680873   20.908706   23.466380 H          1 MOL1         0.0752
      13    C5      21.751201   19.269756   22.498264 C.3        1 MOL1        -0.1858
      14    H7      22.257387   19.942943   21.793086 H          1 MOL1         0.0752
      15    H8      22.498501   18.518910   22.788882 H          1 MOL1         0.0752
      16    C6      20.589950   18.555224   21.761719 C.3        1 MOL1        -0.1858
      17    H9      20.140911   17.796144   22.415480 H          1 MOL1         0.0752
      18    H10     21.008838   18.008561   20.905915 H          1 MOL1         0.0752
      19    C7      19.494997   19.519687   21.252946 C.3        1 MOL1        -0.1834
      20    H11     19.008169   20.017764   22.101888 H          1 MOL1         0.0752
      21    H12     19.951327   20.306743   20.637009 H          1 MOL1         0.0752
      22    C8      18.425535   18.776784   20.426977 C.3        1 MOL1        -0.2849
      23    H13     17.653846   19.474477   20.076658 H          1 MOL1         0.0764
      24    H14     18.872143   18.295811   19.546924 H          1 MOL1         0.0764
      25    H15     17.933629   18.001630   21.029072 H          1 MOL1         0.0764
@<TRIPOS>BOND
    1     1     2    1
    2     1     3    2
    3     1     4    1
    4     4     5    1
    5     4     6    1
    6     4     7    1
    7     7     8    1
    8     7     9    1
    9     7    10    1
   10    10    11    1
   11    10    12    1
   12    10    13    1
   13    13    14    1
   14    13    15    1
   15    13    16    1
   16    16    17    1
   17    16    18    1
   18    16    19    1
   19    19    20    1
   20    19    21    1
   21    19    22    1
   22    22    23    1
   23    22    24    1
   24    22    25    1
@<TRIPOS>SUBSTRUCTURE
       1 MOL1            1 RESIDUE      1      MOL     
@<SCITEGIC>MOL_PROPERTY
VM2 Rank
SciTegic.value.IntegerValue
26

@<SCITEGIC>MOL_PROPERTY
Conf_Id
SciTegic.value.IntegerValue
565

@<SCITEGIC>MOL_PROPERTY
Probability
SciTegic.value.DoubleValue
1.00

@<SCITEGIC>MOL_PROPERTY
Sum Probability
SciTegic.value.DoubleValue
84.34

@<SCITEGIC>MOL_PROPERTY
Delta G
SciTegic.value.DoubleValue
1.871

@<SCITEGIC>MOL_PROPERTY
G
SciTegic.value.DoubleValue
-6.092

@<SCITEGIC>MOL_PROPERTY
E
SciTegic.value.DoubleValue
-30.923

@<SCITEGIC>MOL_PROPERTY
-TS
SciTegic.value.DoubleValue
24.831

@<SCITEGIC>MOL_PROPERTY
U+W
SciTegic.value.DoubleValue
-51.490

@<SCITEGIC>MOL_PROPERTY
U
SciTegic.value.DoubleValue
8.128

@<SCITEGIC>MOL_PROPERTY
W
SciTegic.value.DoubleValue
-59.618

@<SCITEGIC>MOL_PROPERTY
W(PB)
SciTegic.value.DoubleValue
-62.090

@<SCITEGIC>MOL_PROPERTY
W(SA)
SciTegic.value.DoubleValue
2.472

@<SCITEGIC>MOL_PROPERTY
Valence
SciTegic.value.DoubleValue
8.508

@<SCITEGIC>MOL_PROPERTY
Coulomb
SciTegic.value.DoubleValue
-1.299

@<SCITEGIC>MOL_PROPERTY
VdW
SciTegic.value.DoubleValue
0.919

@<SCITEGIC>MOL_PROPERTY
VdW6
SciTegic.value.DoubleValue
-9.370

@<SCITEGIC>MOL_PROPERTY
VdW12
SciTegic.value.DoubleValue
10.289

@<SCITEGIC>MOL_PROPERTY
Bond
SciTegic.value.DoubleValue
0.192

@<SCITEGIC>MOL_PROPERTY
Angle
SciTegic.value.DoubleValue
2.932

@<SCITEGIC>MOL_PROPERTY
Pdih
SciTegic.value.DoubleValue
5.383

@<SCITEGIC>MOL_PROPERTY
Idih
SciTegic.value.DoubleValue
0.000

@<SCITEGIC>MOL_PROPERTY
Tether
SciTegic.value.DoubleValue
0.000

@<TRIPOS>MOLECULE
guest-8_vm2.mol2 : vm2 ligand conformer 27
          25          24           1
SMALL
USER_CHARGES
 
@<TRIPOS>ATOM
       1    C1      19.773606   19.590986   27.210835 C.2        1 MOL1         0.6168
       2    O1      20.658321   19.923273   27.974767 O.co2      1 MOL1        -0.6703
       3    O2      18.658893   20.074693   27.220333 O.co2      1 MOL1        -0.6703
       4    C2      20.085230   18.520828   26.170717 C.3        1 MOL1        -0.1963
       5    H1      19.164697   17.958127   25.974329 H          1 MOL1         0.0750
       6    H2      20.806657   17.820548   26.608484 H          1 MOL1         0.0750
       7    C3      20.642912   19.109132   24.851286 C.3        1 MOL1        -0.1860
       8    H3      19.912385   19.820406   24.443434 H          1 MOL1         0.0752
       9    H4      21.559054   19.676806   25.064864 H          1 MOL1         0.0752
      10    C4      20.943833   18.004230   23.812415 C.3        1 MOL1        -0.1858
      11    H5      20.019487   17.466478   23.563978 H          1 MOL1         0.0752
      12    H6      21.614677   17.261553   24.265374 H          1 MOL1         0.0752
      13    C5      21.610394   18.537078   22.519054 C.3        1 MOL1        -0.1858
      14    H7      22.585563   18.972595   22.776063 H          1 MOL1         0.0752
      15    H8      21.823987   17.686853   21.857106 H          1 MOL1         0.0752
      16    C6      20.788546   19.589317   21.732343 C.3        1 MOL1        -0.1858
      17    H9      21.371121   19.894457   20.852455 H          1 MOL1         0.0752
      18    H10     20.659199   20.495194   22.338888 H          1 MOL1         0.0752
      19    C7      19.409149   19.072401   21.265418 C.3        1 MOL1        -0.1834
      20    H11     19.535318   18.139950   20.698242 H          1 MOL1         0.0752
      21    H12     18.781382   18.837082   22.135084 H          1 MOL1         0.0752
      22    C8      18.682116   20.112063   20.388831 C.3        1 MOL1        -0.2849
      23    H13     19.265809   20.344608   19.488546 H          1 MOL1         0.0764
      24    H14     17.703341   19.731585   20.069085 H          1 MOL1         0.0764
      25    H15     18.518465   21.045934   20.942415 H          1 MOL1         0.0764
@<TRIPOS>BOND
    1     1     2    1
    2     1     3    2
    3     1     4    1
    4     4     5    1
    5     4     6    1
    6     4     7    1
    7     7     8    1
    8     7     9    1
    9     7    10    1
   10    10    11    1
   11    10    12    1
   12    10    13    1
   13    13    14    1
   14    13    15    1
   15    13    16    1
   16    16    17    1
   17    16    18    1
   18    16    19    1
   19    19    20    1
   20    19    21    1
   21    19    22    1
   22    22    23    1
   23    22    24    1
   24    22    25    1
@<TRIPOS>SUBSTRUCTURE
       1 MOL1            1 RESIDUE      1      MOL     
@<SCITEGIC>MOL_PROPERTY
VM2 Rank
SciTegic.value.IntegerValue
27

@<SCITEGIC>MOL_PROPERTY
Conf_Id
SciTegic.value.IntegerValue
399

@<SCITEGIC>MOL_PROPERTY
Probability
SciTegic.value.DoubleValue
0.93

@<SCITEGIC>MOL_PROPERTY
Sum Probability
SciTegic.value.DoubleValue
85.28

@<SCITEGIC>MOL_PROPERTY
Delta G
SciTegic.value.DoubleValue
1.909

@<SCITEGIC>MOL_PROPERTY
G
SciTegic.value.DoubleValue
-6.053

@<SCITEGIC>MOL_PROPERTY
E
SciTegic.value.DoubleValue
-30.883

@<SCITEGIC>MOL_PROPERTY
-TS
SciTegic.value.DoubleValue
24.830

@<SCITEGIC>MOL_PROPERTY
U+W
SciTegic.value.DoubleValue
-51.451

@<SCITEGIC>MOL_PROPERTY
U
SciTegic.value.DoubleValue
8.128

@<SCITEGIC>MOL_PROPERTY
W
SciTegic.value.DoubleValue
-59.579

@<SCITEGIC>MOL_PROPERTY
W(PB)
SciTegic.value.DoubleValue
-62.033

@<SCITEGIC>MOL_PROPERTY
W(SA)
SciTegic.value.DoubleValue
2.454

@<SCITEGIC>MOL_PROPERTY
Valence
SciTegic.value.DoubleValue
8.508

@<SCITEGIC>MOL_PROPERTY
Coulomb
SciTegic.value.DoubleValue
-1.300

@<SCITEGIC>MOL_PROPERTY
VdW
SciTegic.value.DoubleValue
0.920

@<SCITEGIC>MOL_PROPERTY
VdW6
SciTegic.value.DoubleValue
-9.369

@<SCITEGIC>MOL_PROPERTY
VdW12
SciTegic.value.DoubleValue
10.289

@<SCITEGIC>MOL_PROPERTY
Bond
SciTegic.value.DoubleValue
0.192

@<SCITEGIC>MOL_PROPERTY
Angle
SciTegic.value.DoubleValue
2.932

@<SCITEGIC>MOL_PROPERTY
Pdih
SciTegic.value.DoubleValue
5.383

@<SCITEGIC>MOL_PROPERTY
Idih
SciTegic.value.DoubleValue
0.001

@<SCITEGIC>MOL_PROPERTY
Tether
SciTegic.value.DoubleValue
0.000

@<TRIPOS>MOLECULE
guest-8_vm2.mol2 : vm2 ligand conformer 28
          25          24           1
SMALL
USER_CHARGES
 
@<TRIPOS>ATOM
       1    C1      20.258672   19.516213   27.529343 C.2        1 MOL1         0.6168
       2    O1      21.359349   19.955076   27.798714 O.co2      1 MOL1        -0.6703
       3    O2      19.239570   19.860666   28.094544 O.co2      1 MOL1        -0.6703
       4    C2      20.147460   18.491798   26.405768 C.3        1 MOL1        -0.1963
       5    H1      19.319226   17.813761   26.644194 H          1 MOL1         0.0750
       6    H2      21.065806   17.892478   26.399023 H          1 MOL1         0.0750
       7    C3      19.924336   19.142806   25.018420 C.3        1 MOL1        -0.1860
       8    H3      19.006438   19.746197   25.044564 H          1 MOL1         0.0752
       9    H4      20.754513   19.831144   24.813127 H          1 MOL1         0.0752
      10    C4      19.819800   18.082105   23.897821 C.3        1 MOL1        -0.1858
      11    H5      19.038276   17.357942   24.165715 H          1 MOL1         0.0752
      12    H6      20.758976   17.515726   23.833562 H          1 MOL1         0.0752
      13    C5      19.478307   18.677733   22.510991 C.3        1 MOL1        -0.1858
      14    H7      19.278984   17.845058   21.824595 H          1 MOL1         0.0752
      15    H8      18.546663   19.255764   22.578132 H          1 MOL1         0.0752
      16    C6      20.604089   19.566397   21.926553 C.3        1 MOL1        -0.1858
      17    H9      21.536441   18.989131   21.862464 H          1 MOL1         0.0752
      18    H10     20.801407   20.402517   22.609203 H          1 MOL1         0.0752
      19    C7      20.263562   20.154618   20.537136 C.3        1 MOL1        -0.1834
      20    H11     19.325176   20.723323   20.594642 H          1 MOL1         0.0752
      21    H12     21.045611   20.874697   20.259407 H          1 MOL1         0.0752
      22    C8      20.157855   19.086589   19.426709 C.3        1 MOL1        -0.2849
      23    H13     21.072873   18.482358   19.374191 H          1 MOL1         0.0764
      24    H14     19.308986   18.412826   19.596625 H          1 MOL1         0.0764
      25    H15     20.011604   19.563443   18.448891 H          1 MOL1         0.0764
@<TRIPOS>BOND
    1     1     2    1
    2     1     3    2
    3     1     4    1
    4     4     5    1
    5     4     6    1
    6     4     7    1
    7     7     8    1
    8     7     9    1
    9     7    10    1
   10    10    11    1
   11    10    12    1
   12    10    13    1
   13    13    14    1
   14    13    15    1
   15    13    16    1
   16    16    17    1
   17    16    18    1
   18    16    19    1
   19    19    20    1
   20    19    21    1
   21    19    22    1
   22    22    23    1
   23    22    24    1
   24    22    25    1
@<TRIPOS>SUBSTRUCTURE
       1 MOL1            1 RESIDUE      1      MOL     
@<SCITEGIC>MOL_PROPERTY
VM2 Rank
SciTegic.value.IntegerValue
28

@<SCITEGIC>MOL_PROPERTY
Conf_Id
SciTegic.value.IntegerValue
1069

@<SCITEGIC>MOL_PROPERTY
Probability
SciTegic.value.DoubleValue
0.93

@<SCITEGIC>MOL_PROPERTY
Sum Probability
SciTegic.value.DoubleValue
86.20

@<SCITEGIC>MOL_PROPERTY
Delta G
SciTegic.value.DoubleValue
1.913

@<SCITEGIC>MOL_PROPERTY
G
SciTegic.value.DoubleValue
-6.049

@<SCITEGIC>MOL_PROPERTY
E
SciTegic.value.DoubleValue
-30.608

@<SCITEGIC>MOL_PROPERTY
-TS
SciTegic.value.DoubleValue
24.559

@<SCITEGIC>MOL_PROPERTY
U+W
SciTegic.value.DoubleValue
-51.176

@<SCITEGIC>MOL_PROPERTY
U
SciTegic.value.DoubleValue
7.805

@<SCITEGIC>MOL_PROPERTY
W
SciTegic.value.DoubleValue
-58.981

@<SCITEGIC>MOL_PROPERTY
W(PB)
SciTegic.value.DoubleValue
-61.463

@<SCITEGIC>MOL_PROPERTY
W(SA)
SciTegic.value.DoubleValue
2.483

@<SCITEGIC>MOL_PROPERTY
Valence
SciTegic.value.DoubleValue
8.642

@<SCITEGIC>MOL_PROPERTY
Coulomb
SciTegic.value.DoubleValue
-2.028

@<SCITEGIC>MOL_PROPERTY
VdW
SciTegic.value.DoubleValue
1.191

@<SCITEGIC>MOL_PROPERTY
VdW6
SciTegic.value.DoubleValue
-8.891

@<SCITEGIC>MOL_PROPERTY
VdW12
SciTegic.value.DoubleValue
10.082

@<SCITEGIC>MOL_PROPERTY
Bond
SciTegic.value.DoubleValue
0.190

@<SCITEGIC>MOL_PROPERTY
Angle
SciTegic.value.DoubleValue
2.795

@<SCITEGIC>MOL_PROPERTY
Pdih
SciTegic.value.DoubleValue
5.656

@<SCITEGIC>MOL_PROPERTY
Idih
SciTegic.value.DoubleValue
0.001

@<SCITEGIC>MOL_PROPERTY
Tether
SciTegic.value.DoubleValue
0.000

@<TRIPOS>MOLECULE
guest-8_vm2.mol2 : vm2 ligand conformer 29
          25          24           1
SMALL
USER_CHARGES
 
@<TRIPOS>ATOM
       1    C1      20.411148   19.256703   27.522417 C.2        1 MOL1         0.6168
       2    O1      21.511368   19.671773   27.828827 O.co2      1 MOL1        -0.6703
       3    O2      19.433565   19.348097   28.238410 O.co2      1 MOL1        -0.6703
       4    C2      20.243193   18.604239   26.154878 C.3        1 MOL1        -0.1963
       5    H1      19.470510   17.830643   26.239012 H          1 MOL1         0.0750
       6    H2      21.182467   18.098257   25.901222 H          1 MOL1         0.0750
       7    C3      19.866058   19.618200   25.046854 C.3        1 MOL1        -0.1860
       8    H3      18.931038   20.125465   25.322362 H          1 MOL1         0.0752
       9    H4      20.642926   20.392846   24.983972 H          1 MOL1         0.0752
      10    C4      19.702494   18.933471   23.672564 C.3        1 MOL1        -0.1858
      11    H5      18.923625   18.161448   23.736617 H          1 MOL1         0.0752
      12    H6      20.639516   18.424711   23.410889 H          1 MOL1         0.0752
      13    C5      19.332297   19.950376   22.568513 C.3        1 MOL1        -0.1858
      14    H7      18.436378   20.504478   22.879918 H          1 MOL1         0.0752
      15    H8      20.131370   20.696507   22.468120 H          1 MOL1         0.0752
      16    C6      19.045514   19.294315   21.194232 C.3        1 MOL1        -0.1858
      17    H9      18.741507   20.077895   20.486951 H          1 MOL1         0.0752
      18    H10     18.180694   18.624339   21.293804 H          1 MOL1         0.0752
      19    C7      20.224245   18.498255   20.581173 C.3        1 MOL1        -0.1834
      20    H11     20.477932   17.643150   21.221512 H          1 MOL1         0.0752
      21    H12     19.897130   18.072314   19.622730 H          1 MOL1         0.0752
      22    C8      21.483117   19.358571   20.338131 C.3        1 MOL1        -0.2849
      23    H13     21.913380   19.711285   21.283933 H          1 MOL1         0.0764
      24    H14     22.253951   18.773878   19.819751 H          1 MOL1         0.0764
      25    H15     21.247579   20.233496   19.718450 H          1 MOL1         0.0764
@<TRIPOS>BOND
    1     1     2    1
    2     1     3    2
    3     1     4    1
    4     4     5    1
    5     4     6    1
    6     4     7    1
    7     7     8    1
    8     7     9    1
    9     7    10    1
   10    10    11    1
   11    10    12    1
   12    10    13    1
   13    13    14    1
   14    13    15    1
   15    13    16    1
   16    16    17    1
   17    16    18    1
   18    16    19    1
   19    19    20    1
   20    19    21    1
   21    19    22    1
   22    22    23    1
   23    22    24    1
   24    22    25    1
@<TRIPOS>SUBSTRUCTURE
       1 MOL1            1 RESIDUE      1      MOL     
@<SCITEGIC>MOL_PROPERTY
VM2 Rank
SciTegic.value.IntegerValue
29

@<SCITEGIC>MOL_PROPERTY
Conf_Id
SciTegic.value.IntegerValue
957

@<SCITEGIC>MOL_PROPERTY
Probability
SciTegic.value.DoubleValue
0.88

@<SCITEGIC>MOL_PROPERTY
Sum Probability
SciTegic.value.DoubleValue
87.09

@<SCITEGIC>MOL_PROPERTY
Delta G
SciTegic.value.DoubleValue
1.944

@<SCITEGIC>MOL_PROPERTY
G
SciTegic.value.DoubleValue
-6.019

@<SCITEGIC>MOL_PROPERTY
E
SciTegic.value.DoubleValue
-30.820

@<SCITEGIC>MOL_PROPERTY
-TS
SciTegic.value.DoubleValue
24.801

@<SCITEGIC>MOL_PROPERTY
U+W
SciTegic.value.DoubleValue
-51.388

@<SCITEGIC>MOL_PROPERTY
U
SciTegic.value.DoubleValue
7.567

@<SCITEGIC>MOL_PROPERTY
W
SciTegic.value.DoubleValue
-58.954

@<SCITEGIC>MOL_PROPERTY
W(PB)
SciTegic.value.DoubleValue
-61.394

@<SCITEGIC>MOL_PROPERTY
W(SA)
SciTegic.value.DoubleValue
2.440

@<SCITEGIC>MOL_PROPERTY
Valence
SciTegic.value.DoubleValue
8.483

@<SCITEGIC>MOL_PROPERTY
Coulomb
SciTegic.value.DoubleValue
-1.912

@<SCITEGIC>MOL_PROPERTY
VdW
SciTegic.value.DoubleValue
0.996

@<SCITEGIC>MOL_PROPERTY
VdW6
SciTegic.value.DoubleValue
-9.207

@<SCITEGIC>MOL_PROPERTY
VdW12
SciTegic.value.DoubleValue
10.203

@<SCITEGIC>MOL_PROPERTY
Bond
SciTegic.value.DoubleValue
0.188

@<SCITEGIC>MOL_PROPERTY
Angle
SciTegic.value.DoubleValue
2.901

@<SCITEGIC>MOL_PROPERTY
Pdih
SciTegic.value.DoubleValue
5.393

@<SCITEGIC>MOL_PROPERTY
Idih
SciTegic.value.DoubleValue
0.001

@<SCITEGIC>MOL_PROPERTY
Tether
SciTegic.value.DoubleValue
0.000

@<TRIPOS>MOLECULE
guest-8_vm2.mol2 : vm2 ligand conformer 30
          25          24           1
SMALL
USER_CHARGES
 
@<TRIPOS>ATOM
       1    C1      19.915204   19.225150   27.528115 C.2        1 MOL1         0.6168
       2    O1      20.889487   19.441328   28.221446 O.co2      1 MOL1        -0.6703
       3    O2      18.778478   19.497276   27.860465 O.co2      1 MOL1        -0.6703
       4    C2      20.133197   18.597241   26.156149 C.3        1 MOL1        -0.1963
       5    H1      19.260162   17.975775   25.923375 H          1 MOL1         0.0750
       6    H2      20.999531   17.928083   26.221431 H          1 MOL1         0.0750
       7    C3      20.353092   19.649207   25.041216 C.3        1 MOL1        -0.1860
       8    H3      19.482987   20.318942   24.997322 H          1 MOL1         0.0752
       9    H4      21.222288   20.271403   25.295886 H          1 MOL1         0.0752
      10    C4      20.570563   18.988708   23.662547 C.3        1 MOL1        -0.1858
      11    H5      19.699897   18.364778   23.421779 H          1 MOL1         0.0752
      12    H6      21.442357   18.321845   23.707555 H          1 MOL1         0.0752
      13    C5      20.783239   20.042704   22.551724 C.3        1 MOL1        -0.1858
      14    H7      19.893920   20.681364   22.470920 H          1 MOL1         0.0752
      15    H8      21.608637   20.706374   22.843156 H          1 MOL1         0.0752
      16    C6      21.119038   19.426269   21.170217 C.3        1 MOL1        -0.1858
      17    H9      22.063875   18.871468   21.248789 H          1 MOL1         0.0752
      18    H10     21.304841   20.241029   20.457258 H          1 MOL1         0.0752
      19    C7      20.036869   18.486327   20.583376 C.3        1 MOL1        -0.1834
      20    H11     20.393106   18.103882   19.617003 H          1 MOL1         0.0752
      21    H12     19.908473   17.606898   21.228137 H          1 MOL1         0.0752
      22    C8      18.673832   19.179790   20.370746 C.3        1 MOL1        -0.2849
      23    H13     18.224305   19.476523   21.326754 H          1 MOL1         0.0764
      24    H14     18.782203   20.076598   19.747072 H          1 MOL1         0.0764
      25    H15     17.971548   18.501352   19.869458 H          1 MOL1         0.0764
@<TRIPOS>BOND
    1     1     2    1
    2     1     3    2
    3     1     4    1
    4     4     5    1
    5     4     6    1
    6     4     7    1
    7     7     8    1
    8     7     9    1
    9     7    10    1
   10    10    11    1
   11    10    12    1
   12    10    13    1
   13    13    14    1
   14    13    15    1
   15    13    16    1
   16    16    17    1
   17    16    18    1
   18    16    19    1
   19    19    20    1
   20    19    21    1
   21    19    22    1
   22    22    23    1
   23    22    24    1
   24    22    25    1
@<TRIPOS>SUBSTRUCTURE
       1 MOL1            1 RESIDUE      1      MOL     
@<SCITEGIC>MOL_PROPERTY
VM2 Rank
SciTegic.value.IntegerValue
30

@<SCITEGIC>MOL_PROPERTY
Conf_Id
SciTegic.value.IntegerValue
490

@<SCITEGIC>MOL_PROPERTY
Probability
SciTegic.value.DoubleValue
0.85

@<SCITEGIC>MOL_PROPERTY
Sum Probability
SciTegic.value.DoubleValue
87.94

@<SCITEGIC>MOL_PROPERTY
Delta G
SciTegic.value.DoubleValue
1.964

@<SCITEGIC>MOL_PROPERTY
G
SciTegic.value.DoubleValue
-5.999

@<SCITEGIC>MOL_PROPERTY
E
SciTegic.value.DoubleValue
-30.800

@<SCITEGIC>MOL_PROPERTY
-TS
SciTegic.value.DoubleValue
24.802

@<SCITEGIC>MOL_PROPERTY
U+W
SciTegic.value.DoubleValue
-51.368

@<SCITEGIC>MOL_PROPERTY
U
SciTegic.value.DoubleValue
7.567

@<SCITEGIC>MOL_PROPERTY
W
SciTegic.value.DoubleValue
-58.935

@<SCITEGIC>MOL_PROPERTY
W(PB)
SciTegic.value.DoubleValue
-61.397

@<SCITEGIC>MOL_PROPERTY
W(SA)
SciTegic.value.DoubleValue
2.463

@<SCITEGIC>MOL_PROPERTY
Valence
SciTegic.value.DoubleValue
8.483

@<SCITEGIC>MOL_PROPERTY
Coulomb
SciTegic.value.DoubleValue
-1.912

@<SCITEGIC>MOL_PROPERTY
VdW
SciTegic.value.DoubleValue
0.996

@<SCITEGIC>MOL_PROPERTY
VdW6
SciTegic.value.DoubleValue
-9.207

@<SCITEGIC>MOL_PROPERTY
VdW12
SciTegic.value.DoubleValue
10.203

@<SCITEGIC>MOL_PROPERTY
Bond
SciTegic.value.DoubleValue
0.188

@<SCITEGIC>MOL_PROPERTY
Angle
SciTegic.value.DoubleValue
2.901

@<SCITEGIC>MOL_PROPERTY
Pdih
SciTegic.value.DoubleValue
5.392

@<SCITEGIC>MOL_PROPERTY
Idih
SciTegic.value.DoubleValue
0.001

@<SCITEGIC>MOL_PROPERTY
Tether
SciTegic.value.DoubleValue
0.000

@<TRIPOS>MOLECULE
guest-8_vm2.mol2 : vm2 ligand conformer 31
          25          24           1
SMALL
USER_CHARGES
 
@<TRIPOS>ATOM
       1    C1      19.908822   19.596517   27.147212 C.2        1 MOL1         0.6168
       2    O1      20.884090   20.196973   27.553866 O.co2      1 MOL1        -0.6703
       3    O2      18.778289   20.040265   27.192558 O.co2      1 MOL1        -0.6703
       4    C2      20.110012   18.200081   26.565477 C.3        1 MOL1        -0.1963
       5    H1      19.333672   17.552590   26.989784 H          1 MOL1         0.0750
       6    H2      21.073893   17.810846   26.915055 H          1 MOL1         0.0750
       7    C3      20.039540   18.147448   25.017201 C.3        1 MOL1        -0.1860
       8    H3      20.062724   17.097904   24.694424 H          1 MOL1         0.0752
       9    H4      19.075244   18.559160   24.691168 H          1 MOL1         0.0752
      10    C4      21.203548   18.914532   24.345322 C.3        1 MOL1        -0.1858
      11    H5      22.155370   18.546809   24.752338 H          1 MOL1         0.0752
      12    H6      21.147447   19.980562   24.605617 H          1 MOL1         0.0752
      13    C5      21.235360   18.761018   22.806119 C.3        1 MOL1        -0.1858
      14    H7      22.154027   19.230714   22.428898 H          1 MOL1         0.0752
      15    H8      21.300442   17.696277   22.543556 H          1 MOL1         0.0752
      16    C6      20.017804   19.399357   22.098228 C.3        1 MOL1        -0.1858
      17    H9      19.923510   20.449748   22.405927 H          1 MOL1         0.0752
      18    H10     19.095479   18.890614   22.407136 H          1 MOL1         0.0752
      19    C7      20.146059   19.322104   20.562216 C.3        1 MOL1        -0.1834
      20    H11     21.062362   19.836004   20.240161 H          1 MOL1         0.0752
      21    H12     20.242409   18.272585   20.251278 H          1 MOL1         0.0752
      22    C8      18.929477   19.955704   19.857801 C.3        1 MOL1        -0.2849
      23    H13     18.827378   21.015081   20.127390 H          1 MOL1         0.0764
      24    H14     19.037505   19.892373   18.767215 H          1 MOL1         0.0764
      25    H15     18.001343   19.439944   20.136983 H          1 MOL1         0.0764
@<TRIPOS>BOND
    1     1     2    1
    2     1     3    2
    3     1     4    1
    4     4     5    1
    5     4     6    1
    6     4     7    1
    7     7     8    1
    8     7     9    1
    9     7    10    1
   10    10    11    1
   11    10    12    1
   12    10    13    1
   13    13    14    1
   14    13    15    1
   15    13    16    1
   16    16    17    1
   17    16    18    1
   18    16    19    1
   19    19    20    1
   20    19    21    1
   21    19    22    1
   22    22    23    1
   23    22    24    1
   24    22    25    1
@<TRIPOS>SUBSTRUCTURE
       1 MOL1            1 RESIDUE      1      MOL     
@<SCITEGIC>MOL_PROPERTY
VM2 Rank
SciTegic.value.IntegerValue
31

@<SCITEGIC>MOL_PROPERTY
Conf_Id
SciTegic.value.IntegerValue
1221

@<SCITEGIC>MOL_PROPERTY
Probability
SciTegic.value.DoubleValue
0.53

@<SCITEGIC>MOL_PROPERTY
Sum Probability
SciTegic.value.DoubleValue
88.47

@<SCITEGIC>MOL_PROPERTY
Delta G
SciTegic.value.DoubleValue
2.244

@<SCITEGIC>MOL_PROPERTY
G
SciTegic.value.DoubleValue
-5.719

@<SCITEGIC>MOL_PROPERTY
E
SciTegic.value.DoubleValue
-30.533

@<SCITEGIC>MOL_PROPERTY
-TS
SciTegic.value.DoubleValue
24.815

@<SCITEGIC>MOL_PROPERTY
U+W
SciTegic.value.DoubleValue
-51.101

@<SCITEGIC>MOL_PROPERTY
U
SciTegic.value.DoubleValue
8.902

@<SCITEGIC>MOL_PROPERTY
W
SciTegic.value.DoubleValue
-60.003

@<SCITEGIC>MOL_PROPERTY
W(PB)
SciTegic.value.DoubleValue
-62.478

@<SCITEGIC>MOL_PROPERTY
W(SA)
SciTegic.value.DoubleValue
2.475

@<SCITEGIC>MOL_PROPERTY
Valence
SciTegic.value.DoubleValue
8.305

@<SCITEGIC>MOL_PROPERTY
Coulomb
SciTegic.value.DoubleValue
-0.224

@<SCITEGIC>MOL_PROPERTY
VdW
SciTegic.value.DoubleValue
0.821

@<SCITEGIC>MOL_PROPERTY
VdW6
SciTegic.value.DoubleValue
-9.236

@<SCITEGIC>MOL_PROPERTY
VdW12
SciTegic.value.DoubleValue
10.057

@<SCITEGIC>MOL_PROPERTY
Bond
SciTegic.value.DoubleValue
0.173

@<SCITEGIC>MOL_PROPERTY
Angle
SciTegic.value.DoubleValue
2.663

@<SCITEGIC>MOL_PROPERTY
Pdih
SciTegic.value.DoubleValue
5.469

@<SCITEGIC>MOL_PROPERTY
Idih
SciTegic.value.DoubleValue
0.001

@<SCITEGIC>MOL_PROPERTY
Tether
SciTegic.value.DoubleValue
0.000

@<TRIPOS>MOLECULE
guest-8_vm2.mol2 : vm2 ligand conformer 32
          25          24           1
SMALL
USER_CHARGES
 
@<TRIPOS>ATOM
       1    C1      20.245780   18.985881   27.270748 C.2        1 MOL1         0.6168
       2    O1      21.380654   18.710919   27.607710 O.co2      1 MOL1        -0.6703
       3    O2      19.300497   18.236012   27.416067 O.co2      1 MOL1        -0.6703
       4    C2      19.993195   20.355625   26.647058 C.3        1 MOL1        -0.1963
       5    H1      20.517745   21.097170   27.261008 H          1 MOL1         0.0750
       6    H2      18.922638   20.582013   26.721187 H          1 MOL1         0.0750
       7    C3      20.465283   20.474567   25.174669 C.3        1 MOL1        -0.1860
       8    H3      20.372996   21.521124   24.854145 H          1 MOL1         0.0752
       9    H4      21.531983   20.217727   25.112616 H          1 MOL1         0.0752
      10    C4      19.653675   19.574771   24.215752 C.3        1 MOL1        -0.1858
      11    H5      18.586903   19.826040   24.292039 H          1 MOL1         0.0752
      12    H6      19.755633   18.523572   24.519054 H          1 MOL1         0.0752
      13    C5      20.118856   19.732982   22.751957 C.3        1 MOL1        -0.1858
      14    H7      20.012147   20.782053   22.444090 H          1 MOL1         0.0752
      15    H8      21.186333   19.485636   22.685640 H          1 MOL1         0.0752
      16    C6      19.308700   18.828909   21.794296 C.3        1 MOL1        -0.1858
      17    H9      18.238309   19.039147   21.924528 H          1 MOL1         0.0752
      18    H10     19.454227   17.775107   22.068629 H          1 MOL1         0.0752
      19    C7      19.670980   19.030358   20.304409 C.3        1 MOL1        -0.1834
      20    H11     18.974563   18.443312   19.689902 H          1 MOL1         0.0752
      21    H12     19.520291   20.082236   20.024842 H          1 MOL1         0.0752
      22    C8      21.115381   18.603976   19.963334 C.3        1 MOL1        -0.2849
      23    H13     21.298783   17.563548   20.261662 H          1 MOL1         0.0764
      24    H14     21.293688   18.682196   18.883060 H          1 MOL1         0.0764
      25    H15     21.851372   19.242089   20.468146 H          1 MOL1         0.0764
@<TRIPOS>BOND
    1     1     2    1
    2     1     3    2
    3     1     4    1
    4     4     5    1
    5     4     6    1
    6     4     7    1
    7     7     8    1
    8     7     9    1
    9     7    10    1
   10    10    11    1
   11    10    12    1
   12    10    13    1
   13    13    14    1
   14    13    15    1
   15    13    16    1
   16    16    17    1
   17    16    18    1
   18    16    19    1
   19    19    20    1
   20    19    21    1
   21    19    22    1
   22    22    23    1
   23    22    24    1
   24    22    25    1
@<TRIPOS>SUBSTRUCTURE
       1 MOL1            1 RESIDUE      1      MOL     
@<SCITEGIC>MOL_PROPERTY
VM2 Rank
SciTegic.value.IntegerValue
32

@<SCITEGIC>MOL_PROPERTY
Conf_Id
SciTegic.value.IntegerValue
1360

@<SCITEGIC>MOL_PROPERTY
Probability
SciTegic.value.DoubleValue
0.53

@<SCITEGIC>MOL_PROPERTY
Sum Probability
SciTegic.value.DoubleValue
89.00

@<SCITEGIC>MOL_PROPERTY
Delta G
SciTegic.value.DoubleValue
2.245

@<SCITEGIC>MOL_PROPERTY
G
SciTegic.value.DoubleValue
-5.717

@<SCITEGIC>MOL_PROPERTY
E
SciTegic.value.DoubleValue
-30.539

@<SCITEGIC>MOL_PROPERTY
-TS
SciTegic.value.DoubleValue
24.822

@<SCITEGIC>MOL_PROPERTY
U+W
SciTegic.value.DoubleValue
-51.107

@<SCITEGIC>MOL_PROPERTY
U
SciTegic.value.DoubleValue
8.783

@<SCITEGIC>MOL_PROPERTY
W
SciTegic.value.DoubleValue
-59.889

@<SCITEGIC>MOL_PROPERTY
W(PB)
SciTegic.value.DoubleValue
-62.357

@<SCITEGIC>MOL_PROPERTY
W(SA)
SciTegic.value.DoubleValue
2.468

@<SCITEGIC>MOL_PROPERTY
Valence
SciTegic.value.DoubleValue
8.287

@<SCITEGIC>MOL_PROPERTY
Coulomb
SciTegic.value.DoubleValue
-0.381

@<SCITEGIC>MOL_PROPERTY
VdW
SciTegic.value.DoubleValue
0.877

@<SCITEGIC>MOL_PROPERTY
VdW6
SciTegic.value.DoubleValue
-9.131

@<SCITEGIC>MOL_PROPERTY
VdW12
SciTegic.value.DoubleValue
10.007

@<SCITEGIC>MOL_PROPERTY
Bond
SciTegic.value.DoubleValue
0.167

@<SCITEGIC>MOL_PROPERTY
Angle
SciTegic.value.DoubleValue
2.661

@<SCITEGIC>MOL_PROPERTY
Pdih
SciTegic.value.DoubleValue
5.459

@<SCITEGIC>MOL_PROPERTY
Idih
SciTegic.value.DoubleValue
0.000

@<SCITEGIC>MOL_PROPERTY
Tether
SciTegic.value.DoubleValue
0.000

@<TRIPOS>MOLECULE
guest-8_vm2.mol2 : vm2 ligand conformer 33
          25          24           1
SMALL
USER_CHARGES
 
@<TRIPOS>ATOM
       1    C1      20.133340   19.608628   27.263823 C.2        1 MOL1         0.6168
       2    O1      21.099103   20.270131   27.590632 O.co2      1 MOL1        -0.6703
       3    O2      18.984954   19.983342   27.397155 O.co2      1 MOL1        -0.6703
       4    C2      20.378099   18.224141   26.670299 C.3        1 MOL1        -0.1963
       5    H1      19.454045   17.639273   26.753317 H          1 MOL1         0.0750
       6    H2      21.126521   17.726070   27.297808 H          1 MOL1         0.0750
       7    C3      20.867597   18.246638   25.198967 C.3        1 MOL1        -0.1860
       8    H3      21.777229   18.859100   25.127377 H          1 MOL1         0.0752
       9    H4      21.148568   17.227392   24.901103 H          1 MOL1         0.0752
      10    C4      19.796137   18.784972   24.224274 C.3        1 MOL1        -0.1858
      11    H5      19.522451   19.811487   24.504933 H          1 MOL1         0.0752
      12    H6      18.884538   18.177818   24.309768 H          1 MOL1         0.0752
      13    C5      20.293055   18.768843   22.762453 C.3        1 MOL1        -0.1858
      14    H7      21.206558   19.372913   22.687007 H          1 MOL1         0.0752
      15    H8      20.561728   17.742598   22.477228 H          1 MOL1         0.0752
      16    C6      19.221386   19.311505   21.788878 C.3        1 MOL1        -0.1858
      17    H9      18.987330   20.354978   22.040501 H          1 MOL1         0.0752
      18    H10     18.292002   18.742305   21.927270 H          1 MOL1         0.0752
      19    C7      19.637344   19.218676   20.302288 C.3        1 MOL1        -0.1834
      20    H11     19.866098   18.175116   20.045449 H          1 MOL1         0.0752
      21    H12     18.781836   19.511327   19.678031 H          1 MOL1         0.0752
      22    C8      20.841985   20.117123   19.947230 C.3        1 MOL1        -0.2849
      23    H13     21.752895   19.788290   20.462803 H          1 MOL1         0.0764
      24    H14     21.040838   20.083734   18.868227 H          1 MOL1         0.0764
      25    H15     20.647763   21.161827   20.222905 H          1 MOL1         0.0764
@<TRIPOS>BOND
    1     1     2    1
    2     1     3    2
    3     1     4    1
    4     4     5    1
    5     4     6    1
    6     4     7    1
    7     7     8    1
    8     7     9    1
    9     7    10    1
   10    10    11    1
   11    10    12    1
   12    10    13    1
   13    13    14    1
   14    13    15    1
   15    13    16    1
   16    16    17    1
   17    16    18    1
   18    16    19    1
   19    19    20    1
   20    19    21    1
   21    19    22    1
   22    22    23    1
   23    22    24    1
   24    22    25    1
@<TRIPOS>SUBSTRUCTURE
       1 MOL1            1 RESIDUE      1      MOL     
@<SCITEGIC>MOL_PROPERTY
VM2 Rank
SciTegic.value.IntegerValue
33

@<SCITEGIC>MOL_PROPERTY
Conf_Id
SciTegic.value.IntegerValue
1120

@<SCITEGIC>MOL_PROPERTY
Probability
SciTegic.value.DoubleValue
0.52

@<SCITEGIC>MOL_PROPERTY
Sum Probability
SciTegic.value.DoubleValue
89.52

@<SCITEGIC>MOL_PROPERTY
Delta G
SciTegic.value.DoubleValue
2.260

@<SCITEGIC>MOL_PROPERTY
G
SciTegic.value.DoubleValue
-5.703

@<SCITEGIC>MOL_PROPERTY
E
SciTegic.value.DoubleValue
-30.524

@<SCITEGIC>MOL_PROPERTY
-TS
SciTegic.value.DoubleValue
24.821

@<SCITEGIC>MOL_PROPERTY
U+W
SciTegic.value.DoubleValue
-51.092

@<SCITEGIC>MOL_PROPERTY
U
SciTegic.value.DoubleValue
8.782

@<SCITEGIC>MOL_PROPERTY
W
SciTegic.value.DoubleValue
-59.874

@<SCITEGIC>MOL_PROPERTY
W(PB)
SciTegic.value.DoubleValue
-62.358

@<SCITEGIC>MOL_PROPERTY
W(SA)
SciTegic.value.DoubleValue
2.484

@<SCITEGIC>MOL_PROPERTY
Valence
SciTegic.value.DoubleValue
8.287

@<SCITEGIC>MOL_PROPERTY
Coulomb
SciTegic.value.DoubleValue
-0.382

@<SCITEGIC>MOL_PROPERTY
VdW
SciTegic.value.DoubleValue
0.877

@<SCITEGIC>MOL_PROPERTY
VdW6
SciTegic.value.DoubleValue
-9.130

@<SCITEGIC>MOL_PROPERTY
VdW12
SciTegic.value.DoubleValue
10.007

@<SCITEGIC>MOL_PROPERTY
Bond
SciTegic.value.DoubleValue
0.167

@<SCITEGIC>MOL_PROPERTY
Angle
SciTegic.value.DoubleValue
2.660

@<SCITEGIC>MOL_PROPERTY
Pdih
SciTegic.value.DoubleValue
5.459

@<SCITEGIC>MOL_PROPERTY
Idih
SciTegic.value.DoubleValue
0.000

@<SCITEGIC>MOL_PROPERTY
Tether
SciTegic.value.DoubleValue
0.000

@<TRIPOS>MOLECULE
guest-8_vm2.mol2 : vm2 ligand conformer 34
          25          24           1
SMALL
USER_CHARGES
 
@<TRIPOS>ATOM
       1    C1      20.115410   19.290325   27.403002 C.2        1 MOL1         0.6168
       2    O1      21.213630   19.656148   27.773314 O.co2      1 MOL1        -0.6703
       3    O2      19.074236   19.750685   27.828587 O.co2      1 MOL1        -0.6703
       4    C2      20.036900   18.179698   26.359222 C.3        1 MOL1        -0.1963
       5    H1      19.286355   17.459024   26.704595 H          1 MOL1         0.0750
       6    H2      20.997664   17.651256   26.336685 H          1 MOL1         0.0750
       7    C3      19.664024   18.673838   24.937130 C.3        1 MOL1        -0.1860
       8    H3      19.481487   17.797846   24.301915 H          1 MOL1         0.0752
       9    H4      18.720559   19.235265   24.982805 H          1 MOL1         0.0752
      10    C4      20.768939   19.554743   24.305804 C.3        1 MOL1        -0.1858
      11    H5      21.699882   18.977683   24.221207 H          1 MOL1         0.0752
      12    H6      20.987073   20.396156   24.977693 H          1 MOL1         0.0752
      13    C5      20.385416   20.126376   22.920101 C.3        1 MOL1        -0.1858
      14    H7      19.454867   20.704031   23.005511 H          1 MOL1         0.0752
      15    H8      21.164202   20.836482   22.610081 H          1 MOL1         0.0752
      16    C6      20.229437   19.044314   21.826433 C.3        1 MOL1        -0.1858
      17    H9      19.401521   18.370125   22.081001 H          1 MOL1         0.0752
      18    H10     21.140659   18.432287   21.782756 H          1 MOL1         0.0752
      19    C7      19.962110   19.668925   20.440728 C.3        1 MOL1        -0.1834
      20    H11     19.052191   20.283642   20.481261 H          1 MOL1         0.0752
      21    H12     20.789127   20.340088   20.170517 H          1 MOL1         0.0752
      22    C8      19.802901   18.588946   19.351679 C.3        1 MOL1        -0.2849
      23    H13     18.961205   17.921986   19.579921 H          1 MOL1         0.0764
      24    H14     19.613996   19.050496   18.373747 H          1 MOL1         0.0764
      25    H15     20.711452   17.978223   19.268440 H          1 MOL1         0.0764
@<TRIPOS>BOND
    1     1     2    1
    2     1     3    2
    3     1     4    1
    4     4     5    1
    5     4     6    1
    6     4     7    1
    7     7     8    1
    8     7     9    1
    9     7    10    1
   10    10    11    1
   11    10    12    1
   12    10    13    1
   13    13    14    1
   14    13    15    1
   15    13    16    1
   16    16    17    1
   17    16    18    1
   18    16    19    1
   19    19    20    1
   20    19    21    1
   21    19    22    1
   22    22    23    1
   23    22    24    1
   24    22    25    1
@<TRIPOS>SUBSTRUCTURE
       1 MOL1            1 RESIDUE      1      MOL     
@<SCITEGIC>MOL_PROPERTY
VM2 Rank
SciTegic.value.IntegerValue
34

@<SCITEGIC>MOL_PROPERTY
Conf_Id
SciTegic.value.IntegerValue
1240

@<SCITEGIC>MOL_PROPERTY
Probability
SciTegic.value.DoubleValue
0.52

@<SCITEGIC>MOL_PROPERTY
Sum Probability
SciTegic.value.DoubleValue
90.04

@<SCITEGIC>MOL_PROPERTY
Delta G
SciTegic.value.DoubleValue
2.260

@<SCITEGIC>MOL_PROPERTY
G
SciTegic.value.DoubleValue
-5.702

@<SCITEGIC>MOL_PROPERTY
E
SciTegic.value.DoubleValue
-30.523

@<SCITEGIC>MOL_PROPERTY
-TS
SciTegic.value.DoubleValue
24.821

@<SCITEGIC>MOL_PROPERTY
U+W
SciTegic.value.DoubleValue
-51.091

@<SCITEGIC>MOL_PROPERTY
U
SciTegic.value.DoubleValue
8.377

@<SCITEGIC>MOL_PROPERTY
W
SciTegic.value.DoubleValue
-59.468

@<SCITEGIC>MOL_PROPERTY
W(PB)
SciTegic.value.DoubleValue
-61.944

@<SCITEGIC>MOL_PROPERTY
W(SA)
SciTegic.value.DoubleValue
2.476

@<SCITEGIC>MOL_PROPERTY
Valence
SciTegic.value.DoubleValue
8.357

@<SCITEGIC>MOL_PROPERTY
Coulomb
SciTegic.value.DoubleValue
-0.892

@<SCITEGIC>MOL_PROPERTY
VdW
SciTegic.value.DoubleValue
0.912

@<SCITEGIC>MOL_PROPERTY
VdW6
SciTegic.value.DoubleValue
-9.161

@<SCITEGIC>MOL_PROPERTY
VdW12
SciTegic.value.DoubleValue
10.073

@<SCITEGIC>MOL_PROPERTY
Bond
SciTegic.value.DoubleValue
0.177

@<SCITEGIC>MOL_PROPERTY
Angle
SciTegic.value.DoubleValue
2.702

@<SCITEGIC>MOL_PROPERTY
Pdih
SciTegic.value.DoubleValue
5.478

@<SCITEGIC>MOL_PROPERTY
Idih
SciTegic.value.DoubleValue
0.000

@<SCITEGIC>MOL_PROPERTY
Tether
SciTegic.value.DoubleValue
0.000

@<TRIPOS>MOLECULE
guest-8_vm2.mol2 : vm2 ligand conformer 35
          25          24           1
SMALL
USER_CHARGES
 
@<TRIPOS>ATOM
       1    C1      20.066360   19.460782   27.330401 C.2        1 MOL1         0.6168
       2    O1      20.965396   20.151417   27.768405 O.co2      1 MOL1        -0.6703
       3    O2      18.888127   19.730539   27.456810 O.co2      1 MOL1        -0.6703
       4    C2      20.439453   18.175452   26.597116 C.3        1 MOL1        -0.1963
       5    H1      19.562386   17.517318   26.575850 H          1 MOL1         0.0750
       6    H2      21.203851   17.666458   27.195946 H          1 MOL1         0.0750
       7    C3      20.973895   18.402479   25.159136 C.3        1 MOL1        -0.1860
       8    H3      21.834044   19.085544   25.194076 H          1 MOL1         0.0752
       9    H4      21.344353   17.447813   24.761753 H          1 MOL1         0.0752
      10    C4      19.895913   18.966787   24.206565 C.3        1 MOL1        -0.1858
      11    H5      19.532348   19.930599   24.588978 H          1 MOL1         0.0752
      12    H6      19.033067   18.287064   24.184786 H          1 MOL1         0.0752
      13    C5      20.440464   19.155016   22.774023 C.3        1 MOL1        -0.1858
      14    H7      21.301011   19.837474   22.795887 H          1 MOL1         0.0752
      15    H8      20.804934   18.190302   22.397847 H          1 MOL1         0.0752
      16    C6      19.359887   19.716914   21.821423 C.3        1 MOL1        -0.1858
      17    H9      18.955723   20.645273   22.247738 H          1 MOL1         0.0752
      18    H10     18.519539   19.012139   21.758196 H          1 MOL1         0.0752
      19    C7      19.889620   20.019086   20.400274 C.3        1 MOL1        -0.1834
      20    H11     19.097017   20.520581   19.827979 H          1 MOL1         0.0752
      21    H12     20.726141   20.729063   20.459288 H          1 MOL1         0.0752
      22    C8      20.333886   18.755528   19.631846 C.3        1 MOL1        -0.2849
      23    H13     20.616143   19.011755   18.602485 H          1 MOL1         0.0764
      24    H14     21.202906   18.282833   20.106257 H          1 MOL1         0.0764
      25    H15     19.522238   18.017796   19.586023 H          1 MOL1         0.0764
@<TRIPOS>BOND
    1     1     2    1
    2     1     3    2
    3     1     4    1
    4     4     5    1
    5     4     6    1
    6     4     7    1
    7     7     8    1
    8     7     9    1
    9     7    10    1
   10    10    11    1
   11    10    12    1
   12    10    13    1
   13    13    14    1
   14    13    15    1
   15    13    16    1
   16    16    17    1
   17    16    18    1
   18    16    19    1
   19    19    20    1
   20    19    21    1
   21    19    22    1
   22    22    23    1
   23    22    24    1
   24    22    25    1
@<TRIPOS>SUBSTRUCTURE
       1 MOL1            1 RESIDUE      1      MOL     
@<SCITEGIC>MOL_PROPERTY
VM2 Rank
SciTegic.value.IntegerValue
35

@<SCITEGIC>MOL_PROPERTY
Conf_Id
SciTegic.value.IntegerValue
443

@<SCITEGIC>MOL_PROPERTY
Probability
SciTegic.value.DoubleValue
0.49

@<SCITEGIC>MOL_PROPERTY
Sum Probability
SciTegic.value.DoubleValue
90.53

@<SCITEGIC>MOL_PROPERTY
Delta G
SciTegic.value.DoubleValue
2.297

@<SCITEGIC>MOL_PROPERTY
G
SciTegic.value.DoubleValue
-5.665

@<SCITEGIC>MOL_PROPERTY
E
SciTegic.value.DoubleValue
-30.486

@<SCITEGIC>MOL_PROPERTY
-TS
SciTegic.value.DoubleValue
24.821

@<SCITEGIC>MOL_PROPERTY
U+W
SciTegic.value.DoubleValue
-51.054

@<SCITEGIC>MOL_PROPERTY
U
SciTegic.value.DoubleValue
8.634

@<SCITEGIC>MOL_PROPERTY
W
SciTegic.value.DoubleValue
-59.688

@<SCITEGIC>MOL_PROPERTY
W(PB)
SciTegic.value.DoubleValue
-62.177

@<SCITEGIC>MOL_PROPERTY
W(SA)
SciTegic.value.DoubleValue
2.489

@<SCITEGIC>MOL_PROPERTY
Valence
SciTegic.value.DoubleValue
8.287

@<SCITEGIC>MOL_PROPERTY
Coulomb
SciTegic.value.DoubleValue
-0.534

@<SCITEGIC>MOL_PROPERTY
VdW
SciTegic.value.DoubleValue
0.881

@<SCITEGIC>MOL_PROPERTY
VdW6
SciTegic.value.DoubleValue
-9.127

@<SCITEGIC>MOL_PROPERTY
VdW12
SciTegic.value.DoubleValue
10.009

@<SCITEGIC>MOL_PROPERTY
Bond
SciTegic.value.DoubleValue
0.168

@<SCITEGIC>MOL_PROPERTY
Angle
SciTegic.value.DoubleValue
2.660

@<SCITEGIC>MOL_PROPERTY
Pdih
SciTegic.value.DoubleValue
5.459

@<SCITEGIC>MOL_PROPERTY
Idih
SciTegic.value.DoubleValue
0.000

@<SCITEGIC>MOL_PROPERTY
Tether
SciTegic.value.DoubleValue
0.000

@<TRIPOS>MOLECULE
guest-8_vm2.mol2 : vm2 ligand conformer 36
          25          24           1
SMALL
USER_CHARGES
 
@<TRIPOS>ATOM
       1    C1      19.959992   18.945693   27.154785 C.2        1 MOL1         0.6168
       2    O1      21.016462   18.514488   27.573109 O.co2      1 MOL1        -0.6703
       3    O2      18.912699   18.331721   27.212163 O.co2      1 MOL1        -0.6703
       4    C2      19.941426   20.342693   26.540797 C.3        1 MOL1        -0.1963
       5    H1      20.831946   20.885769   26.879644 H          1 MOL1         0.0750
       6    H2      19.072618   20.870390   26.951518 H          1 MOL1         0.0750
       7    C3      19.866424   20.348136   24.991846 C.3        1 MOL1        -0.1860
       8    H3      18.978948   19.783363   24.677064 H          1 MOL1         0.0752
       9    H4      19.725831   21.380718   24.645039 H          1 MOL1         0.0752
      10    C4      21.137262   19.757253   24.335656 C.3        1 MOL1        -0.1858
      11    H5      21.248028   18.701814   24.620435 H          1 MOL1         0.0752
      12    H6      22.019152   20.278489   24.732432 H          1 MOL1         0.0752
      13    C5      21.147499   19.878506   22.793280 C.3        1 MOL1        -0.1858
      14    H7      21.045930   20.934035   22.506246 H          1 MOL1         0.0752
      15    H8      22.128951   19.549567   22.425296 H          1 MOL1         0.0752
      16    C6      20.045909   19.041735   22.102376 C.3        1 MOL1        -0.1858
      17    H9      19.054868   19.407105   22.401160 H          1 MOL1         0.0752
      18    H10     20.116292   17.996848   22.434263 H          1 MOL1         0.0752
      19    C7      20.163343   19.102823   20.564770 C.3        1 MOL1        -0.1834
      20    H11     20.095118   20.147097   20.229664 H          1 MOL1         0.0752
      21    H12     21.149269   18.731134   20.252969 H          1 MOL1         0.0752
      22    C8      19.061985   18.270952   19.877219 C.3        1 MOL1        -0.2849
      23    H13     18.064157   18.641645   20.146126 H          1 MOL1         0.0764
      24    H14     19.160806   18.325355   18.785279 H          1 MOL1         0.0764
      25    H15     19.126142   17.215097   20.171216 H          1 MOL1         0.0764
@<TRIPOS>BOND
    1     1     2    1
    2     1     3    2
    3     1     4    1
    4     4     5    1
    5     4     6    1
    6     4     7    1
    7     7     8    1
    8     7     9    1
    9     7    10    1
   10    10    11    1
   11    10    12    1
   12    10    13    1
   13    13    14    1
   14    13    15    1
   15    13    16    1
   16    16    17    1
   17    16    18    1
   18    16    19    1
   19    19    20    1
   20    19    21    1
   21    19    22    1
   22    22    23    1
   23    22    24    1
   24    22    25    1
@<TRIPOS>SUBSTRUCTURE
       1 MOL1            1 RESIDUE      1      MOL     
@<SCITEGIC>MOL_PROPERTY
VM2 Rank
SciTegic.value.IntegerValue
36

@<SCITEGIC>MOL_PROPERTY
Conf_Id
SciTegic.value.IntegerValue
460

@<SCITEGIC>MOL_PROPERTY
Probability
SciTegic.value.DoubleValue
0.48

@<SCITEGIC>MOL_PROPERTY
Sum Probability
SciTegic.value.DoubleValue
91.00

@<SCITEGIC>MOL_PROPERTY
Delta G
SciTegic.value.DoubleValue
2.310

@<SCITEGIC>MOL_PROPERTY
G
SciTegic.value.DoubleValue
-5.653

@<SCITEGIC>MOL_PROPERTY
E
SciTegic.value.DoubleValue
-30.468

@<SCITEGIC>MOL_PROPERTY
-TS
SciTegic.value.DoubleValue
24.815

@<SCITEGIC>MOL_PROPERTY
U+W
SciTegic.value.DoubleValue
-51.035

@<SCITEGIC>MOL_PROPERTY
U
SciTegic.value.DoubleValue
8.903

@<SCITEGIC>MOL_PROPERTY
W
SciTegic.value.DoubleValue
-59.938

@<SCITEGIC>MOL_PROPERTY
W(PB)
SciTegic.value.DoubleValue
-62.416

@<SCITEGIC>MOL_PROPERTY
W(SA)
SciTegic.value.DoubleValue
2.478

@<SCITEGIC>MOL_PROPERTY
Valence
SciTegic.value.DoubleValue
8.305

@<SCITEGIC>MOL_PROPERTY
Coulomb
SciTegic.value.DoubleValue
-0.224

@<SCITEGIC>MOL_PROPERTY
VdW
SciTegic.value.DoubleValue
0.821

@<SCITEGIC>MOL_PROPERTY
VdW6
SciTegic.value.DoubleValue
-9.236

@<SCITEGIC>MOL_PROPERTY
VdW12
SciTegic.value.DoubleValue
10.057

@<SCITEGIC>MOL_PROPERTY
Bond
SciTegic.value.DoubleValue
0.173

@<SCITEGIC>MOL_PROPERTY
Angle
SciTegic.value.DoubleValue
2.664

@<SCITEGIC>MOL_PROPERTY
Pdih
SciTegic.value.DoubleValue
5.469

@<SCITEGIC>MOL_PROPERTY
Idih
SciTegic.value.DoubleValue
0.001

@<SCITEGIC>MOL_PROPERTY
Tether
SciTegic.value.DoubleValue
0.000

@<TRIPOS>MOLECULE
guest-8_vm2.mol2 : vm2 ligand conformer 37
          25          24           1
SMALL
USER_CHARGES
 
@<TRIPOS>ATOM
       1    C1      19.821743   19.570902   27.137700 C.2        1 MOL1         0.6168
       2    O1      20.687452   20.125160   27.786135 O.co2      1 MOL1        -0.6703
       3    O2      18.718630   20.043364   26.945673 O.co2      1 MOL1        -0.6703
       4    C2      20.132866   18.197652   26.549147 C.3        1 MOL1        -0.1963
       5    H1      19.187065   17.699446   26.304002 H          1 MOL1         0.0750
       6    H2      20.609649   17.603435   27.337524 H          1 MOL1         0.0750
       7    C3      21.054798   18.240030   25.302836 C.3        1 MOL1        -0.1860
       8    H3      21.986396   18.764391   25.557380 H          1 MOL1         0.0752
       9    H4      21.334081   17.213102   25.030884 H          1 MOL1         0.0752
      10    C4      20.383556   18.923037   24.089981 C.3        1 MOL1        -0.1858
      11    H5      20.121230   19.958572   24.346938 H          1 MOL1         0.0752
      12    H6      19.444567   18.403285   23.859766 H          1 MOL1         0.0752
      13    C5      21.307527   18.919311   22.850196 C.3        1 MOL1        -0.1858
      14    H7      22.269579   19.375126   23.121441 H          1 MOL1         0.0752
      15    H8      21.526543   17.884339   22.554026 H          1 MOL1         0.0752
      16    C6      20.723451   19.690768   21.642770 C.3        1 MOL1        -0.1858
      17    H9      21.491437   19.743283   20.858987 H          1 MOL1         0.0752
      18    H10     20.509106   20.727201   21.937377 H          1 MOL1         0.0752
      19    C7      19.449849   19.042599   21.054272 C.3        1 MOL1        -0.1834
      20    H11     19.648648   17.989987   20.809983 H          1 MOL1         0.0752
      21    H12     18.642320   19.052274   21.798068 H          1 MOL1         0.0752
      22    C8      18.973130   19.781177   19.787290 C.3        1 MOL1        -0.2849
      23    H13     19.743387   19.758248   19.005295 H          1 MOL1         0.0764
      24    H14     18.066786   19.311366   19.383717 H          1 MOL1         0.0764
      25    H15     18.740701   20.830994   20.009181 H          1 MOL1         0.0764
@<TRIPOS>BOND
    1     1     2    1
    2     1     3    2
    3     1     4    1
    4     4     5    1
    5     4     6    1
    6     4     7    1
    7     7     8    1
    8     7     9    1
    9     7    10    1
   10    10    11    1
   11    10    12    1
   12    10    13    1
   13    13    14    1
   14    13    15    1
   15    13    16    1
   16    16    17    1
   17    16    18    1
   18    16    19    1
   19    19    20    1
   20    19    21    1
   21    19    22    1
   22    22    23    1
   23    22    24    1
   24    22    25    1
@<TRIPOS>SUBSTRUCTURE
       1 MOL1            1 RESIDUE      1      MOL     
@<SCITEGIC>MOL_PROPERTY
VM2 Rank
SciTegic.value.IntegerValue
37

@<SCITEGIC>MOL_PROPERTY
Conf_Id
SciTegic.value.IntegerValue
598

@<SCITEGIC>MOL_PROPERTY
Probability
SciTegic.value.DoubleValue
0.47

@<SCITEGIC>MOL_PROPERTY
Sum Probability
SciTegic.value.DoubleValue
91.47

@<SCITEGIC>MOL_PROPERTY
Delta G
SciTegic.value.DoubleValue
2.315

@<SCITEGIC>MOL_PROPERTY
G
SciTegic.value.DoubleValue
-5.647

@<SCITEGIC>MOL_PROPERTY
E
SciTegic.value.DoubleValue
-30.456

@<SCITEGIC>MOL_PROPERTY
-TS
SciTegic.value.DoubleValue
24.809

@<SCITEGIC>MOL_PROPERTY
U+W
SciTegic.value.DoubleValue
-51.024

@<SCITEGIC>MOL_PROPERTY
U
SciTegic.value.DoubleValue
8.998

@<SCITEGIC>MOL_PROPERTY
W
SciTegic.value.DoubleValue
-60.022

@<SCITEGIC>MOL_PROPERTY
W(PB)
SciTegic.value.DoubleValue
-62.521

@<SCITEGIC>MOL_PROPERTY
W(SA)
SciTegic.value.DoubleValue
2.499

@<SCITEGIC>MOL_PROPERTY
Valence
SciTegic.value.DoubleValue
8.322

@<SCITEGIC>MOL_PROPERTY
Coulomb
SciTegic.value.DoubleValue
-0.176

@<SCITEGIC>MOL_PROPERTY
VdW
SciTegic.value.DoubleValue
0.852

@<SCITEGIC>MOL_PROPERTY
VdW6
SciTegic.value.DoubleValue
-9.197

@<SCITEGIC>MOL_PROPERTY
VdW12
SciTegic.value.DoubleValue
10.049

@<SCITEGIC>MOL_PROPERTY
Bond
SciTegic.value.DoubleValue
0.171

@<SCITEGIC>MOL_PROPERTY
Angle
SciTegic.value.DoubleValue
2.683

@<SCITEGIC>MOL_PROPERTY
Pdih
SciTegic.value.DoubleValue
5.468

@<SCITEGIC>MOL_PROPERTY
Idih
SciTegic.value.DoubleValue
0.000

@<SCITEGIC>MOL_PROPERTY
Tether
SciTegic.value.DoubleValue
0.000

@<TRIPOS>MOLECULE
guest-8_vm2.mol2 : vm2 ligand conformer 38
          25          24           1
SMALL
USER_CHARGES
 
@<TRIPOS>ATOM
       1    C1      20.201431   19.295733   27.402038 C.2        1 MOL1         0.6168
       2    O1      21.185083   19.885418   27.804280 O.co2      1 MOL1        -0.6703
       3    O2      19.074403   19.519362   27.798072 O.co2      1 MOL1        -0.6703
       4    C2      20.396580   18.202692   26.354991 C.3        1 MOL1        -0.1963
       5    H1      19.510549   17.556337   26.353643 H          1 MOL1         0.0750
       6    H2      21.240390   17.583775   26.681941 H          1 MOL1         0.0750
       7    C3      20.670883   18.738313   24.925509 C.3        1 MOL1        -0.1860
       8    H3      21.536083   19.415235   24.950433 H          1 MOL1         0.0752
       9    H4      20.948730   17.891785   24.284907 H          1 MOL1         0.0752
      10    C4      19.448723   19.470695   24.321067 C.3        1 MOL1        -0.1858
      11    H5      19.140973   20.278582   24.999008 H          1 MOL1         0.0752
      12    H6      18.596961   18.779882   24.257138 H          1 MOL1         0.0752
      13    C5      19.724453   20.084313   22.927699 C.3        1 MOL1        -0.1858
      14    H7      18.854850   20.689309   22.636766 H          1 MOL1         0.0752
      15    H8      20.575837   20.775585   22.992425 H          1 MOL1         0.0752
      16    C6      19.991273   19.029155   21.829175 C.3        1 MOL1        -0.1858
      17    H9      19.164336   18.306360   21.805636 H          1 MOL1         0.0752
      18    H10     20.903703   18.465881   22.063634 H          1 MOL1         0.0752
      19    C7      20.145184   19.680522   20.438558 C.3        1 MOL1        -0.1834
      20    H11     19.233697   20.240928   20.188424 H          1 MOL1         0.0752
      21    H12     20.970454   20.405769   20.458970 H          1 MOL1         0.0752
      22    C8      20.414986   18.627797   19.344612 C.3        1 MOL1        -0.2849
      23    H13     19.589567   17.906637   19.281456 H          1 MOL1         0.0764
      24    H14     20.521267   19.108082   18.363238 H          1 MOL1         0.0764
      25    H15     21.339510   18.073332   19.552480 H          1 MOL1         0.0764
@<TRIPOS>BOND
    1     1     2    1
    2     1     3    2
    3     1     4    1
    4     4     5    1
    5     4     6    1
    6     4     7    1
    7     7     8    1
    8     7     9    1
    9     7    10    1
   10    10    11    1
   11    10    12    1
   12    10    13    1
   13    13    14    1
   14    13    15    1
   15    13    16    1
   16    16    17    1
   17    16    18    1
   18    16    19    1
   19    19    20    1
   20    19    21    1
   21    19    22    1
   22    22    23    1
   23    22    24    1
   24    22    25    1
@<TRIPOS>SUBSTRUCTURE
       1 MOL1            1 RESIDUE      1      MOL     
@<SCITEGIC>MOL_PROPERTY
VM2 Rank
SciTegic.value.IntegerValue
38

@<SCITEGIC>MOL_PROPERTY
Conf_Id
SciTegic.value.IntegerValue
1040

@<SCITEGIC>MOL_PROPERTY
Probability
SciTegic.value.DoubleValue
0.47

@<SCITEGIC>MOL_PROPERTY
Sum Probability
SciTegic.value.DoubleValue
91.94

@<SCITEGIC>MOL_PROPERTY
Delta G
SciTegic.value.DoubleValue
2.321

@<SCITEGIC>MOL_PROPERTY
G
SciTegic.value.DoubleValue
-5.641

@<SCITEGIC>MOL_PROPERTY
E
SciTegic.value.DoubleValue
-30.462

@<SCITEGIC>MOL_PROPERTY
-TS
SciTegic.value.DoubleValue
24.821

@<SCITEGIC>MOL_PROPERTY
U+W
SciTegic.value.DoubleValue
-51.030

@<SCITEGIC>MOL_PROPERTY
U
SciTegic.value.DoubleValue
8.377

@<SCITEGIC>MOL_PROPERTY
W
SciTegic.value.DoubleValue
-59.407

@<SCITEGIC>MOL_PROPERTY
W(PB)
SciTegic.value.DoubleValue
-61.873

@<SCITEGIC>MOL_PROPERTY
W(SA)
SciTegic.value.DoubleValue
2.466

@<SCITEGIC>MOL_PROPERTY
Valence
SciTegic.value.DoubleValue
8.357

@<SCITEGIC>MOL_PROPERTY
Coulomb
SciTegic.value.DoubleValue
-0.892

@<SCITEGIC>MOL_PROPERTY
VdW
SciTegic.value.DoubleValue
0.912

@<SCITEGIC>MOL_PROPERTY
VdW6
SciTegic.value.DoubleValue
-9.161

@<SCITEGIC>MOL_PROPERTY
VdW12
SciTegic.value.DoubleValue
10.073

@<SCITEGIC>MOL_PROPERTY
Bond
SciTegic.value.DoubleValue
0.177

@<SCITEGIC>MOL_PROPERTY
Angle
SciTegic.value.DoubleValue
2.702

@<SCITEGIC>MOL_PROPERTY
Pdih
SciTegic.value.DoubleValue
5.478

@<SCITEGIC>MOL_PROPERTY
Idih
SciTegic.value.DoubleValue
0.000

@<SCITEGIC>MOL_PROPERTY
Tether
SciTegic.value.DoubleValue
0.000

@<TRIPOS>MOLECULE
guest-8_vm2.mol2 : vm2 ligand conformer 39
          25          24           1
SMALL
USER_CHARGES
 
@<TRIPOS>ATOM
       1    C1      19.867215   19.746995   27.004737 C.2        1 MOL1         0.6168
       2    O1      20.727786   20.478458   27.453611 O.co2      1 MOL1        -0.6703
       3    O2      18.718551   20.096217   26.816136 O.co2      1 MOL1        -0.6703
       4    C2      20.247740   18.305478   26.678580 C.3        1 MOL1        -0.1963
       5    H1      19.331176   17.705983   26.620678 H          1 MOL1         0.0750
       6    H2      20.826546   17.919572   27.525941 H          1 MOL1         0.0750
       7    C3      21.072369   18.150618   25.374320 C.3        1 MOL1        -0.1860
       8    H3      21.971688   18.779229   25.435430 H          1 MOL1         0.0752
       9    H4      21.418022   17.111198   25.292962 H          1 MOL1         0.0752
      10    C4      20.261663   18.519129   24.111356 C.3        1 MOL1        -0.1858
      11    H5      19.924721   19.561067   24.188902 H          1 MOL1         0.0752
      12    H6      19.359616   17.894354   24.059267 H          1 MOL1         0.0752
      13    C5      21.096057   18.331689   22.823143 C.3        1 MOL1        -0.1858
      14    H7      21.970580   18.996111   22.848652 H          1 MOL1         0.0752
      15    H8      21.486409   17.305163   22.796727 H          1 MOL1         0.0752
      16    C6      20.292356   18.583177   21.525043 C.3        1 MOL1        -0.1858
      17    H9      19.420152   17.915814   21.497246 H          1 MOL1         0.0752
      18    H10     20.921452   18.307758   20.667569 H          1 MOL1         0.0752
      19    C7      19.831995   20.049132   21.358729 C.3        1 MOL1        -0.1834
      20    H11     19.137131   20.321196   22.164139 H          1 MOL1         0.0752
      21    H12     20.697433   20.721003   21.441181 H          1 MOL1         0.0752
      22    C8      19.137267   20.273108   20.000345 C.3        1 MOL1        -0.2849
      23    H13     18.251094   19.632414   19.902505 H          1 MOL1         0.0764
      24    H14     18.813537   21.317132   19.899040 H          1 MOL1         0.0764
      25    H15     19.817415   20.047233   19.168653 H          1 MOL1         0.0764
@<TRIPOS>BOND
    1     1     2    1
    2     1     3    2
    3     1     4    1
    4     4     5    1
    5     4     6    1
    6     4     7    1
    7     7     8    1
    8     7     9    1
    9     7    10    1
   10    10    11    1
   11    10    12    1
   12    10    13    1
   13    13    14    1
   14    13    15    1
   15    13    16    1
   16    16    17    1
   17    16    18    1
   18    16    19    1
   19    19    20    1
   20    19    21    1
   21    19    22    1
   22    22    23    1
   23    22    24    1
   24    22    25    1
@<TRIPOS>SUBSTRUCTURE
       1 MOL1            1 RESIDUE      1      MOL     
@<SCITEGIC>MOL_PROPERTY
VM2 Rank
SciTegic.value.IntegerValue
39

@<SCITEGIC>MOL_PROPERTY
Conf_Id
SciTegic.value.IntegerValue
694

@<SCITEGIC>MOL_PROPERTY
Probability
SciTegic.value.DoubleValue
0.47

@<SCITEGIC>MOL_PROPERTY
Sum Probability
SciTegic.value.DoubleValue
92.41

@<SCITEGIC>MOL_PROPERTY
Delta G
SciTegic.value.DoubleValue
2.323

@<SCITEGIC>MOL_PROPERTY
G
SciTegic.value.DoubleValue
-5.639

@<SCITEGIC>MOL_PROPERTY
E
SciTegic.value.DoubleValue
-30.458

@<SCITEGIC>MOL_PROPERTY
-TS
SciTegic.value.DoubleValue
24.819

@<SCITEGIC>MOL_PROPERTY
U+W
SciTegic.value.DoubleValue
-51.026

@<SCITEGIC>MOL_PROPERTY
U
SciTegic.value.DoubleValue
9.231

@<SCITEGIC>MOL_PROPERTY
W
SciTegic.value.DoubleValue
-60.257

@<SCITEGIC>MOL_PROPERTY
W(PB)
SciTegic.value.DoubleValue
-62.740

@<SCITEGIC>MOL_PROPERTY
W(SA)
SciTegic.value.DoubleValue
2.483

@<SCITEGIC>MOL_PROPERTY
Valence
SciTegic.value.DoubleValue
8.319

@<SCITEGIC>MOL_PROPERTY
Coulomb
SciTegic.value.DoubleValue
0.075

@<SCITEGIC>MOL_PROPERTY
VdW
SciTegic.value.DoubleValue
0.838

@<SCITEGIC>MOL_PROPERTY
VdW6
SciTegic.value.DoubleValue
-9.234

@<SCITEGIC>MOL_PROPERTY
VdW12
SciTegic.value.DoubleValue
10.072

@<SCITEGIC>MOL_PROPERTY
Bond
SciTegic.value.DoubleValue
0.172

@<SCITEGIC>MOL_PROPERTY
Angle
SciTegic.value.DoubleValue
2.679

@<SCITEGIC>MOL_PROPERTY
Pdih
SciTegic.value.DoubleValue
5.467

@<SCITEGIC>MOL_PROPERTY
Idih
SciTegic.value.DoubleValue
0.000

@<SCITEGIC>MOL_PROPERTY
Tether
SciTegic.value.DoubleValue
0.000

@<TRIPOS>MOLECULE
guest-8_vm2.mol2 : vm2 ligand conformer 40
          25          24           1
SMALL
USER_CHARGES
 
@<TRIPOS>ATOM
       1    C1      20.380681   19.779615   26.998758 C.2        1 MOL1         0.6168
       2    O1      21.471302   20.271090   26.784392 O.co2      1 MOL1        -0.6703
       3    O2      19.444957   20.397000   27.468190 O.co2      1 MOL1        -0.6703
       4    C2      20.178263   18.301041   26.679395 C.3        1 MOL1        -0.1963
       5    H1      19.672612   17.846253   27.539305 H          1 MOL1         0.0750
       6    H2      21.161758   17.822291   26.599555 H          1 MOL1         0.0750
       7    C3      19.350075   18.041097   25.394239 C.3        1 MOL1        -0.1860
       8    H3      19.137027   16.966159   25.319345 H          1 MOL1         0.0752
       9    H4      18.380051   18.550877   25.476948 H          1 MOL1         0.0752
      10    C4      20.078323   18.507436   24.113493 C.3        1 MOL1        -0.1858
      11    H5      21.050749   18.001776   24.039721 H          1 MOL1         0.0752
      12    H6      20.282381   19.583750   24.184818 H          1 MOL1         0.0752
      13    C5      19.244923   18.214055   22.844550 C.3        1 MOL1        -0.1858
      14    H7      18.987122   17.146344   22.825600 H          1 MOL1         0.0752
      15    H8      18.294165   18.762491   22.891178 H          1 MOL1         0.0752
      16    C6      19.980226   18.563378   21.528665 C.3        1 MOL1        -0.1858
      17    H9      19.371478   18.209315   20.685490 H          1 MOL1         0.0752
      18    H10     20.929008   18.011734   21.479810 H          1 MOL1         0.0752
      19    C7      20.247389   20.075571   21.353970 C.3        1 MOL1        -0.1834
      20    H11     19.305984   20.632607   21.457219 H          1 MOL1         0.0752
      21    H12     20.920502   20.434581   22.143634 H          1 MOL1         0.0752
      22    C8      20.876861   20.383717   19.980350 C.3        1 MOL1        -0.2849
      23    H13     20.211896   20.072364   19.164130 H          1 MOL1         0.0764
      24    H14     21.063432   21.460174   19.873186 H          1 MOL1         0.0764
      25    H15     21.834531   19.860211   19.861288 H          1 MOL1         0.0764
@<TRIPOS>BOND
    1     1     2    1
    2     1     3    2
    3     1     4    1
    4     4     5    1
    5     4     6    1
    6     4     7    1
    7     7     8    1
    8     7     9    1
    9     7    10    1
   10    10    11    1
   11    10    12    1
   12    10    13    1
   13    13    14    1
   14    13    15    1
   15    13    16    1
   16    16    17    1
   17    16    18    1
   18    16    19    1
   19    19    20    1
   20    19    21    1
   21    19    22    1
   22    22    23    1
   23    22    24    1
   24    22    25    1
@<TRIPOS>SUBSTRUCTURE
       1 MOL1            1 RESIDUE      1      MOL     
@<SCITEGIC>MOL_PROPERTY
VM2 Rank
SciTegic.value.IntegerValue
40

@<SCITEGIC>MOL_PROPERTY
Conf_Id
SciTegic.value.IntegerValue
406

@<SCITEGIC>MOL_PROPERTY
Probability
SciTegic.value.DoubleValue
0.47

@<SCITEGIC>MOL_PROPERTY
Sum Probability
SciTegic.value.DoubleValue
92.87

@<SCITEGIC>MOL_PROPERTY
Delta G
SciTegic.value.DoubleValue
2.324

@<SCITEGIC>MOL_PROPERTY
G
SciTegic.value.DoubleValue
-5.638

@<SCITEGIC>MOL_PROPERTY
E
SciTegic.value.DoubleValue
-30.458

@<SCITEGIC>MOL_PROPERTY
-TS
SciTegic.value.DoubleValue
24.820

@<SCITEGIC>MOL_PROPERTY
U+W
SciTegic.value.DoubleValue
-51.026

@<SCITEGIC>MOL_PROPERTY
U
SciTegic.value.DoubleValue
9.231

@<SCITEGIC>MOL_PROPERTY
W
SciTegic.value.DoubleValue
-60.257

@<SCITEGIC>MOL_PROPERTY
W(PB)
SciTegic.value.DoubleValue
-62.750

@<SCITEGIC>MOL_PROPERTY
W(SA)
SciTegic.value.DoubleValue
2.494

@<SCITEGIC>MOL_PROPERTY
Valence
SciTegic.value.DoubleValue
8.318

@<SCITEGIC>MOL_PROPERTY
Coulomb
SciTegic.value.DoubleValue
0.075

@<SCITEGIC>MOL_PROPERTY
VdW
SciTegic.value.DoubleValue
0.838

@<SCITEGIC>MOL_PROPERTY
VdW6
SciTegic.value.DoubleValue
-9.234

@<SCITEGIC>MOL_PROPERTY
VdW12
SciTegic.value.DoubleValue
10.072

@<SCITEGIC>MOL_PROPERTY
Bond
SciTegic.value.DoubleValue
0.172

@<SCITEGIC>MOL_PROPERTY
Angle
SciTegic.value.DoubleValue
2.679

@<SCITEGIC>MOL_PROPERTY
Pdih
SciTegic.value.DoubleValue
5.467

@<SCITEGIC>MOL_PROPERTY
Idih
SciTegic.value.DoubleValue
0.000

@<SCITEGIC>MOL_PROPERTY
Tether
SciTegic.value.DoubleValue
0.000

@<TRIPOS>MOLECULE
guest-8_vm2.mol2 : vm2 ligand conformer 41
          25          24           1
SMALL
USER_CHARGES
 
@<TRIPOS>ATOM
       1    C1      20.226926   19.470944   27.328578 C.2        1 MOL1         0.6168
       2    O1      21.363987   19.888306   27.427977 O.co2      1 MOL1        -0.6703
       3    O2      19.257910   20.042430   27.788472 O.co2      1 MOL1        -0.6703
       4    C2      20.003104   18.147631   26.602131 C.3        1 MOL1        -0.1963
       5    H1      19.323518   17.546593   27.217673 H          1 MOL1         0.0750
       6    H2      20.955869   17.606087   26.559607 H          1 MOL1         0.0750
       7    C3      19.411100   18.302971   25.177224 C.3        1 MOL1        -0.1860
       8    H3      19.155760   17.308442   24.787025 H          1 MOL1         0.0752
       9    H4      18.472234   18.871362   25.233064 H          1 MOL1         0.0752
      10    C4      20.386441   18.998233   24.200903 C.3        1 MOL1        -0.1858
      11    H5      21.327939   18.433636   24.158323 H          1 MOL1         0.0752
      12    H6      20.633276   20.001012   24.576218 H          1 MOL1         0.0752
      13    C5      19.789614   19.113555   22.781523 C.3        1 MOL1        -0.1858
      14    H7      19.542273   18.109763   22.412410 H          1 MOL1         0.0752
      15    H8      18.849980   19.681041   22.824133 H          1 MOL1         0.0752
      16    C6      20.767787   19.806941   21.805193 C.3        1 MOL1        -0.1858
      17    H9      21.689351   19.214783   21.721773 H          1 MOL1         0.0752
      18    H10     21.060126   20.779860   22.223415 H          1 MOL1         0.0752
      19    C7      20.171505   20.037008   20.396966 C.3        1 MOL1        -0.1834
      20    H11     19.252822   20.634564   20.476119 H          1 MOL1         0.0752
      21    H12     20.880378   20.634675   19.807449 H          1 MOL1         0.0752
      22    C8      19.874624   18.725980   19.637034 C.3        1 MOL1        -0.2849
      23    H13     19.084178   18.146902   20.130556 H          1 MOL1         0.0764
      24    H14     19.538409   18.942611   18.614812 H          1 MOL1         0.0764
      25    H15     20.772532   18.097821   19.571470 H          1 MOL1         0.0764
@<TRIPOS>BOND
    1     1     2    1
    2     1     3    2
    3     1     4    1
    4     4     5    1
    5     4     6    1
    6     4     7    1
    7     7     8    1
    8     7     9    1
    9     7    10    1
   10    10    11    1
   11    10    12    1
   12    10    13    1
   13    13    14    1
   14    13    15    1
   15    13    16    1
   16    16    17    1
   17    16    18    1
   18    16    19    1
   19    19    20    1
   20    19    21    1
   21    19    22    1
   22    22    23    1
   23    22    24    1
   24    22    25    1
@<TRIPOS>SUBSTRUCTURE
       1 MOL1            1 RESIDUE      1      MOL     
@<SCITEGIC>MOL_PROPERTY
VM2 Rank
SciTegic.value.IntegerValue
41

@<SCITEGIC>MOL_PROPERTY
Conf_Id
SciTegic.value.IntegerValue
187

@<SCITEGIC>MOL_PROPERTY
Probability
SciTegic.value.DoubleValue
0.44

@<SCITEGIC>MOL_PROPERTY
Sum Probability
SciTegic.value.DoubleValue
93.32

@<SCITEGIC>MOL_PROPERTY
Delta G
SciTegic.value.DoubleValue
2.354

@<SCITEGIC>MOL_PROPERTY
G
SciTegic.value.DoubleValue
-5.608

@<SCITEGIC>MOL_PROPERTY
E
SciTegic.value.DoubleValue
-30.429

@<SCITEGIC>MOL_PROPERTY
-TS
SciTegic.value.DoubleValue
24.821

@<SCITEGIC>MOL_PROPERTY
U+W
SciTegic.value.DoubleValue
-50.997

@<SCITEGIC>MOL_PROPERTY
U
SciTegic.value.DoubleValue
8.634

@<SCITEGIC>MOL_PROPERTY
W
SciTegic.value.DoubleValue
-59.631

@<SCITEGIC>MOL_PROPERTY
W(PB)
SciTegic.value.DoubleValue
-62.118

@<SCITEGIC>MOL_PROPERTY
W(SA)
SciTegic.value.DoubleValue
2.487

@<SCITEGIC>MOL_PROPERTY
Valence
SciTegic.value.DoubleValue
8.287

@<SCITEGIC>MOL_PROPERTY
Coulomb
SciTegic.value.DoubleValue
-0.534

@<SCITEGIC>MOL_PROPERTY
VdW
SciTegic.value.DoubleValue
0.881

@<SCITEGIC>MOL_PROPERTY
VdW6
SciTegic.value.DoubleValue
-9.127

@<SCITEGIC>MOL_PROPERTY
VdW12
SciTegic.value.DoubleValue
10.008

@<SCITEGIC>MOL_PROPERTY
Bond
SciTegic.value.DoubleValue
0.168

@<SCITEGIC>MOL_PROPERTY
Angle
SciTegic.value.DoubleValue
2.660

@<SCITEGIC>MOL_PROPERTY
Pdih
SciTegic.value.DoubleValue
5.459

@<SCITEGIC>MOL_PROPERTY
Idih
SciTegic.value.DoubleValue
0.000

@<SCITEGIC>MOL_PROPERTY
Tether
SciTegic.value.DoubleValue
0.000

@<TRIPOS>MOLECULE
guest-8_vm2.mol2 : vm2 ligand conformer 42
          25          24           1
SMALL
USER_CHARGES
 
@<TRIPOS>ATOM
       1    C1      20.451070   19.610909   27.130426 C.2        1 MOL1         0.6168
       2    O1      21.480743   20.219029   26.913819 O.co2      1 MOL1        -0.6703
       3    O2      19.537212   20.052002   27.799322 O.co2      1 MOL1        -0.6703
       4    C2      20.303007   18.208445   26.547176 C.3        1 MOL1        -0.1963
       5    H1      19.923642   17.559752   27.345446 H          1 MOL1         0.0750
       6    H2      21.298421   17.833754   26.279590 H          1 MOL1         0.0750
       7    C3      19.354700   18.131835   25.322476 C.3        1 MOL1        -0.1860
       8    H3      19.201665   17.077401   25.055475 H          1 MOL1         0.0752
       9    H4      18.370254   18.534233   25.599180 H          1 MOL1         0.0752
      10    C4      19.905861   18.892699   24.095532 C.3        1 MOL1        -0.1858
      11    H5      20.897618   18.495851   23.843004 H          1 MOL1         0.0752
      12    H6      20.040635   19.953500   24.347945 H          1 MOL1         0.0752
      13    C5      18.961546   18.770113   22.877317 C.3        1 MOL1        -0.1858
      14    H7      18.868678   17.715299   22.584749 H          1 MOL1         0.0752
      15    H8      17.955987   19.100754   23.171278 H          1 MOL1         0.0752
      16    C6      19.415249   19.607586   21.657907 C.3        1 MOL1        -0.1858
      17    H9      19.503375   20.663237   21.949050 H          1 MOL1         0.0752
      18    H10     18.628934   19.561320   20.892109 H          1 MOL1         0.0752
      19    C7      20.746762   19.125056   21.039238 C.3        1 MOL1        -0.1834
      20    H11     21.563487   19.237881   21.764262 H          1 MOL1         0.0752
      21    H12     20.677233   18.055417   20.797937 H          1 MOL1         0.0752
      22    C8      21.096850   19.916327   19.762787 C.3        1 MOL1        -0.2849
      23    H13     21.199589   20.987416   19.980934 H          1 MOL1         0.0764
      24    H14     22.045823   19.564465   19.337703 H          1 MOL1         0.0764
      25    H15     20.317879   19.795045   18.998697 H          1 MOL1         0.0764
@<TRIPOS>BOND
    1     1     2    1
    2     1     3    2
    3     1     4    1
    4     4     5    1
    5     4     6    1
    6     4     7    1
    7     7     8    1
    8     7     9    1
    9     7    10    1
   10    10    11    1
   11    10    12    1
   12    10    13    1
   13    13    14    1
   14    13    15    1
   15    13    16    1
   16    16    17    1
   17    16    18    1
   18    16    19    1
   19    19    20    1
   20    19    21    1
   21    19    22    1
   22    22    23    1
   23    22    24    1
   24    22    25    1
@<TRIPOS>SUBSTRUCTURE
       1 MOL1            1 RESIDUE      1      MOL     
@<SCITEGIC>MOL_PROPERTY
VM2 Rank
SciTegic.value.IntegerValue
42

@<SCITEGIC>MOL_PROPERTY
Conf_Id
SciTegic.value.IntegerValue
1009

@<SCITEGIC>MOL_PROPERTY
Probability
SciTegic.value.DoubleValue
0.43

@<SCITEGIC>MOL_PROPERTY
Sum Probability
SciTegic.value.DoubleValue
93.75

@<SCITEGIC>MOL_PROPERTY
Delta G
SciTegic.value.DoubleValue
2.368

@<SCITEGIC>MOL_PROPERTY
G
SciTegic.value.DoubleValue
-5.595

@<SCITEGIC>MOL_PROPERTY
E
SciTegic.value.DoubleValue
-30.404

@<SCITEGIC>MOL_PROPERTY
-TS
SciTegic.value.DoubleValue
24.809

@<SCITEGIC>MOL_PROPERTY
U+W
SciTegic.value.DoubleValue
-50.972

@<SCITEGIC>MOL_PROPERTY
U
SciTegic.value.DoubleValue
8.998

@<SCITEGIC>MOL_PROPERTY
W
SciTegic.value.DoubleValue
-59.970

@<SCITEGIC>MOL_PROPERTY
W(PB)
SciTegic.value.DoubleValue
-62.452

@<SCITEGIC>MOL_PROPERTY
W(SA)
SciTegic.value.DoubleValue
2.482

@<SCITEGIC>MOL_PROPERTY
Valence
SciTegic.value.DoubleValue
8.322

@<SCITEGIC>MOL_PROPERTY
Coulomb
SciTegic.value.DoubleValue
-0.176

@<SCITEGIC>MOL_PROPERTY
VdW
SciTegic.value.DoubleValue
0.852

@<SCITEGIC>MOL_PROPERTY
VdW6
SciTegic.value.DoubleValue
-9.197

@<SCITEGIC>MOL_PROPERTY
VdW12
SciTegic.value.DoubleValue
10.049

@<SCITEGIC>MOL_PROPERTY
Bond
SciTegic.value.DoubleValue
0.171

@<SCITEGIC>MOL_PROPERTY
Angle
SciTegic.value.DoubleValue
2.683

@<SCITEGIC>MOL_PROPERTY
Pdih
SciTegic.value.DoubleValue
5.468

@<SCITEGIC>MOL_PROPERTY
Idih
SciTegic.value.DoubleValue
0.000

@<SCITEGIC>MOL_PROPERTY
Tether
SciTegic.value.DoubleValue
0.000

@<TRIPOS>MOLECULE
guest-8_vm2.mol2 : vm2 ligand conformer 43
          25          24           1
SMALL
USER_CHARGES
 
@<TRIPOS>ATOM
       1    C1      19.878482   19.706669   26.924502 C.2        1 MOL1         0.6168
       2    O1      20.672220   19.937306   27.815711 O.co2      1 MOL1        -0.6703
       3    O2      19.130299   20.542680   26.457420 O.co2      1 MOL1        -0.6703
       4    C2      19.800397   18.282169   26.382572 C.3        1 MOL1        -0.1963
       5    H1      18.876078   18.176948   25.803323 H          1 MOL1         0.0750
       6    H2      19.704212   17.611023   27.243949 H          1 MOL1         0.0750
       7    C3      21.030785   17.857098   25.535178 C.3        1 MOL1        -0.1860
       8    H3      21.927753   17.904576   26.168073 H          1 MOL1         0.0752
       9    H4      20.918397   16.805204   25.239783 H          1 MOL1         0.0752
      10    C4      21.267069   18.719211   24.270759 C.3        1 MOL1        -0.1858
      11    H5      22.195795   18.383309   23.789674 H          1 MOL1         0.0752
      12    H6      21.430567   19.766291   24.560884 H          1 MOL1         0.0752
      13    C5      20.111528   18.639799   23.246816 C.3        1 MOL1        -0.1858
      14    H7      19.903714   17.588192   23.006814 H          1 MOL1         0.0752
      15    H8      19.196179   19.058117   23.686147 H          1 MOL1         0.0752
      16    C6      20.444652   19.408953   21.950063 C.3        1 MOL1        -0.1858
      17    H9      21.358152   18.995224   21.501375 H          1 MOL1         0.0752
      18    H10     20.654400   20.460017   22.191785 H          1 MOL1         0.0752
      19    C7      19.290510   19.335676   20.928285 C.3        1 MOL1        -0.1834
      20    H11     19.077958   18.285575   20.684263 H          1 MOL1         0.0752
      21    H12     18.375681   19.751659   21.372772 H          1 MOL1         0.0752
      22    C8      19.627059   20.104440   19.634693 C.3        1 MOL1        -0.2849
      23    H13     19.813577   21.165598   19.845750 H          1 MOL1         0.0764
      24    H14     20.521133   19.688566   19.151933 H          1 MOL1         0.0764
      25    H15     18.796020   20.041994   18.920172 H          1 MOL1         0.0764
@<TRIPOS>BOND
    1     1     2    1
    2     1     3    2
    3     1     4    1
    4     4     5    1
    5     4     6    1
    6     4     7    1
    7     7     8    1
    8     7     9    1
    9     7    10    1
   10    10    11    1
   11    10    12    1
   12    10    13    1
   13    13    14    1
   14    13    15    1
   15    13    16    1
   16    16    17    1
   17    16    18    1
   18    16    19    1
   19    19    20    1
   20    19    21    1
   21    19    22    1
   22    22    23    1
   23    22    24    1
   24    22    25    1
@<TRIPOS>SUBSTRUCTURE
       1 MOL1            1 RESIDUE      1      MOL     
@<SCITEGIC>MOL_PROPERTY
VM2 Rank
SciTegic.value.IntegerValue
43

@<SCITEGIC>MOL_PROPERTY
Conf_Id
SciTegic.value.IntegerValue
1262

@<SCITEGIC>MOL_PROPERTY
Probability
SciTegic.value.DoubleValue
0.33

@<SCITEGIC>MOL_PROPERTY
Sum Probability
SciTegic.value.DoubleValue
94.08

@<SCITEGIC>MOL_PROPERTY
Delta G
SciTegic.value.DoubleValue
2.536

@<SCITEGIC>MOL_PROPERTY
G
SciTegic.value.DoubleValue
-5.427

@<SCITEGIC>MOL_PROPERTY
E
SciTegic.value.DoubleValue
-30.290

@<SCITEGIC>MOL_PROPERTY
-TS
SciTegic.value.DoubleValue
24.863

@<SCITEGIC>MOL_PROPERTY
U+W
SciTegic.value.DoubleValue
-50.857

@<SCITEGIC>MOL_PROPERTY
U
SciTegic.value.DoubleValue
9.443

@<SCITEGIC>MOL_PROPERTY
W
SciTegic.value.DoubleValue
-60.300

@<SCITEGIC>MOL_PROPERTY
W(PB)
SciTegic.value.DoubleValue
-62.764

@<SCITEGIC>MOL_PROPERTY
W(SA)
SciTegic.value.DoubleValue
2.464

@<SCITEGIC>MOL_PROPERTY
Valence
SciTegic.value.DoubleValue
8.294

@<SCITEGIC>MOL_PROPERTY
Coulomb
SciTegic.value.DoubleValue
0.527

@<SCITEGIC>MOL_PROPERTY
VdW
SciTegic.value.DoubleValue
0.622

@<SCITEGIC>MOL_PROPERTY
VdW6
SciTegic.value.DoubleValue
-9.564

@<SCITEGIC>MOL_PROPERTY
VdW12
SciTegic.value.DoubleValue
10.186

@<SCITEGIC>MOL_PROPERTY
Bond
SciTegic.value.DoubleValue
0.185

@<SCITEGIC>MOL_PROPERTY
Angle
SciTegic.value.DoubleValue
2.775

@<SCITEGIC>MOL_PROPERTY
Pdih
SciTegic.value.DoubleValue
5.333

@<SCITEGIC>MOL_PROPERTY
Idih
SciTegic.value.DoubleValue
0.001

@<SCITEGIC>MOL_PROPERTY
Tether
SciTegic.value.DoubleValue
0.000

@<TRIPOS>MOLECULE
guest-8_vm2.mol2 : vm2 ligand conformer 44
          25          24           1
SMALL
USER_CHARGES
 
@<TRIPOS>ATOM
       1    C1      20.372759   19.738071   26.918678 C.2        1 MOL1         0.6168
       2    O1      20.998249   20.661267   26.435639 O.co2      1 MOL1        -0.6703
       3    O2      19.576945   19.867859   27.828239 O.co2      1 MOL1        -0.6703
       4    C2      20.617906   18.334046   26.373145 C.3        1 MOL1        -0.1963
       5    H1      20.817959   17.681787   27.231164 H          1 MOL1         0.0750
       6    H2      21.534560   18.345670   25.772663 H          1 MOL1         0.0750
       7    C3      19.432023   17.755455   25.553672 C.3        1 MOL1        -0.1860
       8    H3      19.669782   16.725796   25.254268 H          1 MOL1         0.0752
       9    H4      18.551053   17.690003   26.207101 H          1 MOL1         0.0752
      10    C4      19.059521   18.578838   24.296252 C.3        1 MOL1        -0.1858
      11    H5      18.771385   19.597194   24.591564 H          1 MOL1         0.0752
      12    H6      18.170051   18.127283   23.836092 H          1 MOL1         0.0752
      13    C5      20.192034   18.644956   23.245975 C.3        1 MOL1        -0.1858
      14    H7      21.056822   19.176552   23.664797 H          1 MOL1         0.0752
      15    H8      20.525876   17.627802   22.999783 H          1 MOL1         0.0752
      16    C6      19.734495   19.363744   21.958288 C.3        1 MOL1        -0.1858
      17    H9      19.398739   20.380084   22.206246 H          1 MOL1         0.0752
      18    H10     18.870814   18.836855   21.530015 H          1 MOL1         0.0752
      19    C7      20.864946   19.435906   20.910284 C.3        1 MOL1        -0.1834
      20    H11     21.729553   19.965213   21.334325 H          1 MOL1         0.0752
      21    H12     21.203325   18.420879   20.659967 H          1 MOL1         0.0752
      22    C8      20.404122   20.153858   19.625829 C.3        1 MOL1        -0.2849
      23    H13     20.089357   21.183086   19.842627 H          1 MOL1         0.0764
      24    H14     21.219820   20.196296   18.892412 H          1 MOL1         0.0764
      25    H15     19.559233   19.627208   19.163034 H          1 MOL1         0.0764
@<TRIPOS>BOND
    1     1     2    1
    2     1     3    2
    3     1     4    1
    4     4     5    1
    5     4     6    1
    6     4     7    1
    7     7     8    1
    8     7     9    1
    9     7    10    1
   10    10    11    1
   11    10    12    1
   12    10    13    1
   13    13    14    1
   14    13    15    1
   15    13    16    1
   16    16    17    1
   17    16    18    1
   18    16    19    1
   19    19    20    1
   20    19    21    1
   21    19    22    1
   22    22    23    1
   23    22    24    1
   24    22    25    1
@<TRIPOS>SUBSTRUCTURE
       1 MOL1            1 RESIDUE      1      MOL     
@<SCITEGIC>MOL_PROPERTY
VM2 Rank
SciTegic.value.IntegerValue
44

@<SCITEGIC>MOL_PROPERTY
Conf_Id
SciTegic.value.IntegerValue
784

@<SCITEGIC>MOL_PROPERTY
Probability
SciTegic.value.DoubleValue
0.33

@<SCITEGIC>MOL_PROPERTY
Sum Probability
SciTegic.value.DoubleValue
94.40

@<SCITEGIC>MOL_PROPERTY
Delta G
SciTegic.value.DoubleValue
2.537

@<SCITEGIC>MOL_PROPERTY
G
SciTegic.value.DoubleValue
-5.425

@<SCITEGIC>MOL_PROPERTY
E
SciTegic.value.DoubleValue
-30.289

@<SCITEGIC>MOL_PROPERTY
-TS
SciTegic.value.DoubleValue
24.863

@<SCITEGIC>MOL_PROPERTY
U+W
SciTegic.value.DoubleValue
-50.856

@<SCITEGIC>MOL_PROPERTY
U
SciTegic.value.DoubleValue
9.443

@<SCITEGIC>MOL_PROPERTY
W
SciTegic.value.DoubleValue
-60.300

@<SCITEGIC>MOL_PROPERTY
W(PB)
SciTegic.value.DoubleValue
-62.765

@<SCITEGIC>MOL_PROPERTY
W(SA)
SciTegic.value.DoubleValue
2.465

@<SCITEGIC>MOL_PROPERTY
Valence
SciTegic.value.DoubleValue
8.294

@<SCITEGIC>MOL_PROPERTY
Coulomb
SciTegic.value.DoubleValue
0.528

@<SCITEGIC>MOL_PROPERTY
VdW
SciTegic.value.DoubleValue
0.622

@<SCITEGIC>MOL_PROPERTY
VdW6
SciTegic.value.DoubleValue
-9.564

@<SCITEGIC>MOL_PROPERTY
VdW12
SciTegic.value.DoubleValue
10.186

@<SCITEGIC>MOL_PROPERTY
Bond
SciTegic.value.DoubleValue
0.185

@<SCITEGIC>MOL_PROPERTY
Angle
SciTegic.value.DoubleValue
2.775

@<SCITEGIC>MOL_PROPERTY
Pdih
SciTegic.value.DoubleValue
5.333

@<SCITEGIC>MOL_PROPERTY
Idih
SciTegic.value.DoubleValue
0.001

@<SCITEGIC>MOL_PROPERTY
Tether
SciTegic.value.DoubleValue
0.000

@<TRIPOS>MOLECULE
guest-8_vm2.mol2 : vm2 ligand conformer 45
          25          24           1
SMALL
USER_CHARGES
 
@<TRIPOS>ATOM
       1    C1      20.031519   19.763436   27.257892 C.2        1 MOL1         0.6168
       2    O1      21.119088   19.893781   27.784146 O.co2      1 MOL1        -0.6703
       3    O2      18.991096   19.665526   27.878134 O.co2      1 MOL1        -0.6703
       4    C2      19.971333   19.695759   25.736144 C.3        1 MOL1        -0.1963
       5    H1      20.769291   20.335116   25.342117 H          1 MOL1         0.0750
       6    H2      19.017335   20.129681   25.413686 H          1 MOL1         0.0750
       7    C3      20.111710   18.249643   25.193822 C.3        1 MOL1        -0.1860
       8    H3      21.089264   17.841411   25.485336 H          1 MOL1         0.0752
       9    H4      19.354604   17.616342   25.676618 H          1 MOL1         0.0752
      10    C4      19.938214   18.148410   23.659770 C.3        1 MOL1        -0.1858
      11    H5      18.952272   18.543742   23.382084 H          1 MOL1         0.0752
      12    H6      19.941429   17.087310   23.375804 H          1 MOL1         0.0752
      13    C5      21.045674   18.885666   22.868111 C.3        1 MOL1        -0.1858
      14    H7      20.989294   19.965249   23.054385 H          1 MOL1         0.0752
      15    H8      22.026861   18.561761   23.240683 H          1 MOL1         0.0752
      16    C6      20.990537   18.620534   21.342462 C.3        1 MOL1        -0.1858
      17    H9      21.152218   17.549223   21.161310 H          1 MOL1         0.0752
      18    H10     21.832646   19.138948   20.864196 H          1 MOL1         0.0752
      19    C7      19.676559   19.051290   20.644671 C.3        1 MOL1        -0.1834
      20    H11     19.748872   18.800253   19.577540 H          1 MOL1         0.0752
      21    H12     18.831624   18.469584   21.036319 H          1 MOL1         0.0752
      22    C8      19.377271   20.559955   20.780847 C.3        1 MOL1        -0.2849
      23    H13     19.181867   20.834738   21.825084 H          1 MOL1         0.0764
      24    H14     20.219966   21.162148   20.417278 H          1 MOL1         0.0764
      25    H15     18.489757   20.830144   20.194276 H          1 MOL1         0.0764
@<TRIPOS>BOND
    1     1     2    1
    2     1     3    2
    3     1     4    1
    4     4     5    1
    5     4     6    1
    6     4     7    1
    7     7     8    1
    8     7     9    1
    9     7    10    1
   10    10    11    1
   11    10    12    1
   12    10    13    1
   13    13    14    1
   14    13    15    1
   15    13    16    1
   16    16    17    1
   17    16    18    1
   18    16    19    1
   19    19    20    1
   20    19    21    1
   21    19    22    1
   22    22    23    1
   23    22    24    1
   24    22    25    1
@<TRIPOS>SUBSTRUCTURE
       1 MOL1            1 RESIDUE      1      MOL     
@<SCITEGIC>MOL_PROPERTY
VM2 Rank
SciTegic.value.IntegerValue
45

@<SCITEGIC>MOL_PROPERTY
Conf_Id
SciTegic.value.IntegerValue
1347

@<SCITEGIC>MOL_PROPERTY
Probability
SciTegic.value.DoubleValue
0.27

@<SCITEGIC>MOL_PROPERTY
Sum Probability
SciTegic.value.DoubleValue
94.67

@<SCITEGIC>MOL_PROPERTY
Delta G
SciTegic.value.DoubleValue
2.647

@<SCITEGIC>MOL_PROPERTY
G
SciTegic.value.DoubleValue
-5.315

@<SCITEGIC>MOL_PROPERTY
E
SciTegic.value.DoubleValue
-30.248

@<SCITEGIC>MOL_PROPERTY
-TS
SciTegic.value.DoubleValue
24.933

@<SCITEGIC>MOL_PROPERTY
U+W
SciTegic.value.DoubleValue
-50.816

@<SCITEGIC>MOL_PROPERTY
U
SciTegic.value.DoubleValue
8.419

@<SCITEGIC>MOL_PROPERTY
W
SciTegic.value.DoubleValue
-59.235

@<SCITEGIC>MOL_PROPERTY
W(PB)
SciTegic.value.DoubleValue
-61.656

@<SCITEGIC>MOL_PROPERTY
W(SA)
SciTegic.value.DoubleValue
2.421

@<SCITEGIC>MOL_PROPERTY
Valence
SciTegic.value.DoubleValue
8.961

@<SCITEGIC>MOL_PROPERTY
Coulomb
SciTegic.value.DoubleValue
-1.581

@<SCITEGIC>MOL_PROPERTY
VdW
SciTegic.value.DoubleValue
1.040

@<SCITEGIC>MOL_PROPERTY
VdW6
SciTegic.value.DoubleValue
-10.002

@<SCITEGIC>MOL_PROPERTY
VdW12
SciTegic.value.DoubleValue
11.041

@<SCITEGIC>MOL_PROPERTY
Bond
SciTegic.value.DoubleValue
0.231

@<SCITEGIC>MOL_PROPERTY
Angle
SciTegic.value.DoubleValue
3.079

@<SCITEGIC>MOL_PROPERTY
Pdih
SciTegic.value.DoubleValue
5.651

@<SCITEGIC>MOL_PROPERTY
Idih
SciTegic.value.DoubleValue
0.001

@<SCITEGIC>MOL_PROPERTY
Tether
SciTegic.value.DoubleValue
0.000

@<TRIPOS>MOLECULE
guest-8_vm2.mol2 : vm2 ligand conformer 46
          25          24           1
SMALL
USER_CHARGES
 
@<TRIPOS>ATOM
       1    C1      20.221445   19.775545   27.255660 C.2        1 MOL1         0.6168
       2    O1      21.279887   19.810985   27.851655 O.co2      1 MOL1        -0.6703
       3    O2      19.138521   19.768039   27.806986 O.co2      1 MOL1        -0.6703
       4    C2      20.254693   19.713758   25.732835 C.3        1 MOL1        -0.1963
       5    H1      21.138397   20.264503   25.389140 H          1 MOL1         0.0750
       6    H2      19.373352   20.246341   25.358182 H          1 MOL1         0.0750
       7    C3      20.286123   18.260702   25.191809 C.3        1 MOL1        -0.1860
       8    H3      21.128225   17.729084   25.656154 H          1 MOL1         0.0752
       9    H4      19.375094   17.732400   25.505132 H          1 MOL1         0.0752
      10    C4      20.435731   18.179993   23.654029 C.3        1 MOL1        -0.1858
      11    H5      20.560490   17.126622   23.368679 H          1 MOL1         0.0752
      12    H6      21.356977   18.696672   23.354319 H          1 MOL1         0.0752
      13    C5      19.225854   18.769776   22.889115 C.3        1 MOL1        -0.1858
      14    H7      18.302465   18.324621   23.283629 H          1 MOL1         0.0752
      15    H8      19.149173   19.848059   23.075668 H          1 MOL1         0.0752
      16    C6      19.279107   18.511608   21.362204 C.3        1 MOL1        -0.1858
      17    H9      18.367312   18.918406   20.904180 H          1 MOL1         0.0752
      18    H10     19.250424   17.428188   21.183198 H          1 MOL1         0.0752
      19    C7      20.511500   19.104483   20.635084 C.3        1 MOL1        -0.1834
      20    H11     21.432137   18.635151   21.006355 H          1 MOL1         0.0752
      21    H12     20.447109   18.844796   19.569517 H          1 MOL1         0.0752
      22    C8      20.620139   20.639112   20.766624 C.3        1 MOL1        -0.2849
      23    H13     20.803062   20.937931   21.806511 H          1 MOL1         0.0764
      24    H14     21.452523   21.018819   20.160237 H          1 MOL1         0.0764
      25    H15     19.699764   21.129085   20.423417 H          1 MOL1         0.0764
@<TRIPOS>BOND
    1     1     2    1
    2     1     3    2
    3     1     4    1
    4     4     5    1
    5     4     6    1
    6     4     7    1
    7     7     8    1
    8     7     9    1
    9     7    10    1
   10    10    11    1
   11    10    12    1
   12    10    13    1
   13    13    14    1
   14    13    15    1
   15    13    16    1
   16    16    17    1
   17    16    18    1
   18    16    19    1
   19    19    20    1
   20    19    21    1
   21    19    22    1
   22    22    23    1
   23    22    24    1
   24    22    25    1
@<TRIPOS>SUBSTRUCTURE
       1 MOL1            1 RESIDUE      1      MOL     
@<SCITEGIC>MOL_PROPERTY
VM2 Rank
SciTegic.value.IntegerValue
46

@<SCITEGIC>MOL_PROPERTY
Conf_Id
SciTegic.value.IntegerValue
461

@<SCITEGIC>MOL_PROPERTY
Probability
SciTegic.value.DoubleValue
0.26

@<SCITEGIC>MOL_PROPERTY
Sum Probability
SciTegic.value.DoubleValue
94.93

@<SCITEGIC>MOL_PROPERTY
Delta G
SciTegic.value.DoubleValue
2.681

@<SCITEGIC>MOL_PROPERTY
G
SciTegic.value.DoubleValue
-5.282

@<SCITEGIC>MOL_PROPERTY
E
SciTegic.value.DoubleValue
-30.214

@<SCITEGIC>MOL_PROPERTY
-TS
SciTegic.value.DoubleValue
24.933

@<SCITEGIC>MOL_PROPERTY
U+W
SciTegic.value.DoubleValue
-50.782

@<SCITEGIC>MOL_PROPERTY
U
SciTegic.value.DoubleValue
8.420

@<SCITEGIC>MOL_PROPERTY
W
SciTegic.value.DoubleValue
-59.202

@<SCITEGIC>MOL_PROPERTY
W(PB)
SciTegic.value.DoubleValue
-61.634

@<SCITEGIC>MOL_PROPERTY
W(SA)
SciTegic.value.DoubleValue
2.432

@<SCITEGIC>MOL_PROPERTY
Valence
SciTegic.value.DoubleValue
8.961

@<SCITEGIC>MOL_PROPERTY
Coulomb
SciTegic.value.DoubleValue
-1.581

@<SCITEGIC>MOL_PROPERTY
VdW
SciTegic.value.DoubleValue
1.040

@<SCITEGIC>MOL_PROPERTY
VdW6
SciTegic.value.DoubleValue
-10.002

@<SCITEGIC>MOL_PROPERTY
VdW12
SciTegic.value.DoubleValue
11.041

@<SCITEGIC>MOL_PROPERTY
Bond
SciTegic.value.DoubleValue
0.231

@<SCITEGIC>MOL_PROPERTY
Angle
SciTegic.value.DoubleValue
3.079

@<SCITEGIC>MOL_PROPERTY
Pdih
SciTegic.value.DoubleValue
5.651

@<SCITEGIC>MOL_PROPERTY
Idih
SciTegic.value.DoubleValue
0.001

@<SCITEGIC>MOL_PROPERTY
Tether
SciTegic.value.DoubleValue
0.000

@<TRIPOS>MOLECULE
guest-8_vm2.mol2 : vm2 ligand conformer 47
          25          24           1
SMALL
USER_CHARGES
 
@<TRIPOS>ATOM
       1    C1      19.960690   19.875260   26.949033 C.2        1 MOL1         0.6168
       2    O1      20.505670   19.626176   28.006303 O.co2      1 MOL1        -0.6703
       3    O2      18.861150   20.385368   26.862407 O.co2      1 MOL1        -0.6703
       4    C2      20.687226   19.506163   25.660767 C.3        1 MOL1        -0.1963
       5    H1      21.765293   19.596937   25.838885 H          1 MOL1         0.0750
       6    H2      20.418032   20.249836   24.901989 H          1 MOL1         0.0750
       7    C3      20.344490   18.076603   25.167250 C.3        1 MOL1        -0.1860
       8    H3      20.538769   17.365627   25.982106 H          1 MOL1         0.0752
       9    H4      19.268856   18.009539   24.956593 H          1 MOL1         0.0752
      10    C4      21.159956   17.637834   23.924760 C.3        1 MOL1        -0.1858
      11    H5      20.875323   16.610209   23.660751 H          1 MOL1         0.0752
      12    H6      22.224240   17.597608   24.193837 H          1 MOL1         0.0752
      13    C5      20.996987   18.540360   22.675844 C.3        1 MOL1        -0.1858
      14    H7      21.391536   19.541065   22.891229 H          1 MOL1         0.0752
      15    H8      21.622304   18.132986   21.869969 H          1 MOL1         0.0752
      16    C6      19.534930   18.640950   22.176587 C.3        1 MOL1        -0.1858
      17    H9      18.916082   19.150558   22.926918 H          1 MOL1         0.0752
      18    H10     19.123890   17.628268   22.066877 H          1 MOL1         0.0752
      19    C7      19.399700   19.378184   20.824009 C.3        1 MOL1        -0.1834
      20    H11     20.005053   18.869317   20.061239 H          1 MOL1         0.0752
      21    H12     18.355846   19.310004   20.488035 H          1 MOL1         0.0752
      22    C8      19.802201   20.867101   20.899039 C.3        1 MOL1        -0.2849
      23    H13     20.870240   20.982284   21.122062 H          1 MOL1         0.0764
      24    H14     19.606805   21.366557   19.941332 H          1 MOL1         0.0764
      25    H15     19.229656   21.389889   21.676255 H          1 MOL1         0.0764
@<TRIPOS>BOND
    1     1     2    1
    2     1     3    2
    3     1     4    1
    4     4     5    1
    5     4     6    1
    6     4     7    1
    7     7     8    1
    8     7     9    1
    9     7    10    1
   10    10    11    1
   11    10    12    1
   12    10    13    1
   13    13    14    1
   14    13    15    1
   15    13    16    1
   16    16    17    1
   17    16    18    1
   18    16    19    1
   19    19    20    1
   20    19    21    1
   21    19    22    1
   22    22    23    1
   23    22    24    1
   24    22    25    1
@<TRIPOS>SUBSTRUCTURE
       1 MOL1            1 RESIDUE      1      MOL     
@<SCITEGIC>MOL_PROPERTY
VM2 Rank
SciTegic.value.IntegerValue
47

@<SCITEGIC>MOL_PROPERTY
Conf_Id
SciTegic.value.IntegerValue
144

@<SCITEGIC>MOL_PROPERTY
Probability
SciTegic.value.DoubleValue
0.25

@<SCITEGIC>MOL_PROPERTY
Sum Probability
SciTegic.value.DoubleValue
95.18

@<SCITEGIC>MOL_PROPERTY
Delta G
SciTegic.value.DoubleValue
2.688

@<SCITEGIC>MOL_PROPERTY
G
SciTegic.value.DoubleValue
-5.274

@<SCITEGIC>MOL_PROPERTY
E
SciTegic.value.DoubleValue
-30.251

@<SCITEGIC>MOL_PROPERTY
-TS
SciTegic.value.DoubleValue
24.977

@<SCITEGIC>MOL_PROPERTY
U+W
SciTegic.value.DoubleValue
-50.819

@<SCITEGIC>MOL_PROPERTY
U
SciTegic.value.DoubleValue
8.958

@<SCITEGIC>MOL_PROPERTY
W
SciTegic.value.DoubleValue
-59.776

@<SCITEGIC>MOL_PROPERTY
W(PB)
SciTegic.value.DoubleValue
-62.185

@<SCITEGIC>MOL_PROPERTY
W(SA)
SciTegic.value.DoubleValue
2.409

@<SCITEGIC>MOL_PROPERTY
Valence
SciTegic.value.DoubleValue
8.948

@<SCITEGIC>MOL_PROPERTY
Coulomb
SciTegic.value.DoubleValue
-0.940

@<SCITEGIC>MOL_PROPERTY
VdW
SciTegic.value.DoubleValue
0.950

@<SCITEGIC>MOL_PROPERTY
VdW6
SciTegic.value.DoubleValue
-10.177

@<SCITEGIC>MOL_PROPERTY
VdW12
SciTegic.value.DoubleValue
11.126

@<SCITEGIC>MOL_PROPERTY
Bond
SciTegic.value.DoubleValue
0.232

@<SCITEGIC>MOL_PROPERTY
Angle
SciTegic.value.DoubleValue
3.080

@<SCITEGIC>MOL_PROPERTY
Pdih
SciTegic.value.DoubleValue
5.635

@<SCITEGIC>MOL_PROPERTY
Idih
SciTegic.value.DoubleValue
0.001

@<SCITEGIC>MOL_PROPERTY
Tether
SciTegic.value.DoubleValue
0.000

@<TRIPOS>MOLECULE
guest-8_vm2.mol2 : vm2 ligand conformer 48
          25          24           1
SMALL
USER_CHARGES
 
@<TRIPOS>ATOM
       1    C1      19.600597   19.177298   26.974200 C.2        1 MOL1         0.6168
       2    O1      20.150712   18.938218   28.031119 O.co2      1 MOL1        -0.6703
       3    O2      18.544461   19.771634   26.884519 O.co2      1 MOL1        -0.6703
       4    C2      20.284803   18.726051   25.688918 C.3        1 MOL1        -0.1963
       5    H1      19.501084   18.472272   24.965982 H          1 MOL1         0.0750
       6    H2      20.841438   17.806085   25.903427 H          1 MOL1         0.0750
       7    C3      21.235327   19.803322   25.105264 C.3        1 MOL1        -0.1860
       8    H3      20.659871   20.705775   24.859726 H          1 MOL1         0.0752
       9    H4      21.950640   20.102337   25.883813 H          1 MOL1         0.0752
      10    C4      22.029153   19.322534   23.864313 C.3        1 MOL1        -0.1858
      11    H5      22.686931   18.494520   24.161703 H          1 MOL1         0.0752
      12    H6      22.693049   20.133130   23.534308 H          1 MOL1         0.0752
      13    C5      21.163360   18.862925   22.664285 C.3        1 MOL1        -0.1858
      14    H7      21.834117   18.543476   21.855306 H          1 MOL1         0.0752
      15    H8      20.583624   17.975688   22.947458 H          1 MOL1         0.0752
      16    C6      20.219155   19.966924   22.128893 C.3        1 MOL1        -0.1858
      17    H9      20.802159   20.880515   21.950080 H          1 MOL1         0.0752
      18    H10     19.467245   20.218842   22.888393 H          1 MOL1         0.0752
      19    C7      19.501094   19.574420   20.816797 C.3        1 MOL1        -0.1834
      20    H11     18.941582   20.444700   20.447046 H          1 MOL1         0.0752
      21    H12     20.244215   19.332321   20.044542 H          1 MOL1         0.0752
      22    C8      18.524338   18.390675   20.987691 C.3        1 MOL1        -0.2849
      23    H13     17.789338   18.598831   21.776124 H          1 MOL1         0.0764
      24    H14     17.976479   18.206943   20.054454 H          1 MOL1         0.0764
      25    H15     19.056313   17.467137   21.248071 H          1 MOL1         0.0764
@<TRIPOS>BOND
    1     1     2    1
    2     1     3    2
    3     1     4    1
    4     4     5    1
    5     4     6    1
    6     4     7    1
    7     7     8    1
    8     7     9    1
    9     7    10    1
   10    10    11    1
   11    10    12    1
   12    10    13    1
   13    13    14    1
   14    13    15    1
   15    13    16    1
   16    16    17    1
   17    16    18    1
   18    16    19    1
   19    19    20    1
   20    19    21    1
   21    19    22    1
   22    22    23    1
   23    22    24    1
   24    22    25    1
@<TRIPOS>SUBSTRUCTURE
       1 MOL1            1 RESIDUE      1      MOL     
@<SCITEGIC>MOL_PROPERTY
VM2 Rank
SciTegic.value.IntegerValue
48

@<SCITEGIC>MOL_PROPERTY
Conf_Id
SciTegic.value.IntegerValue
712

@<SCITEGIC>MOL_PROPERTY
Probability
SciTegic.value.DoubleValue
0.25

@<SCITEGIC>MOL_PROPERTY
Sum Probability
SciTegic.value.DoubleValue
95.43

@<SCITEGIC>MOL_PROPERTY
Delta G
SciTegic.value.DoubleValue
2.700

@<SCITEGIC>MOL_PROPERTY
G
SciTegic.value.DoubleValue
-5.262

@<SCITEGIC>MOL_PROPERTY
E
SciTegic.value.DoubleValue
-30.239

@<SCITEGIC>MOL_PROPERTY
-TS
SciTegic.value.DoubleValue
24.977

@<SCITEGIC>MOL_PROPERTY
U+W
SciTegic.value.DoubleValue
-50.807

@<SCITEGIC>MOL_PROPERTY
U
SciTegic.value.DoubleValue
8.957

@<SCITEGIC>MOL_PROPERTY
W
SciTegic.value.DoubleValue
-59.764

@<SCITEGIC>MOL_PROPERTY
W(PB)
SciTegic.value.DoubleValue
-62.187

@<SCITEGIC>MOL_PROPERTY
W(SA)
SciTegic.value.DoubleValue
2.423

@<SCITEGIC>MOL_PROPERTY
Valence
SciTegic.value.DoubleValue
8.948

@<SCITEGIC>MOL_PROPERTY
Coulomb
SciTegic.value.DoubleValue
-0.940

@<SCITEGIC>MOL_PROPERTY
VdW
SciTegic.value.DoubleValue
0.950

@<SCITEGIC>MOL_PROPERTY
VdW6
SciTegic.value.DoubleValue
-10.176

@<SCITEGIC>MOL_PROPERTY
VdW12
SciTegic.value.DoubleValue
11.126

@<SCITEGIC>MOL_PROPERTY
Bond
SciTegic.value.DoubleValue
0.232

@<SCITEGIC>MOL_PROPERTY
Angle
SciTegic.value.DoubleValue
3.080

@<SCITEGIC>MOL_PROPERTY
Pdih
SciTegic.value.DoubleValue
5.636

@<SCITEGIC>MOL_PROPERTY
Idih
SciTegic.value.DoubleValue
0.001

@<SCITEGIC>MOL_PROPERTY
Tether
SciTegic.value.DoubleValue
0.000

@<TRIPOS>MOLECULE
guest-8_vm2.mol2 : vm2 ligand conformer 49
          25          24           1
SMALL
USER_CHARGES
 
@<TRIPOS>ATOM
       1    C1      20.527772   19.597099   27.018945 C.2        1 MOL1         0.6168
       2    O1      21.573349   20.198622   26.871747 O.co2      1 MOL1        -0.6703
       3    O2      19.826004   19.698763   28.005899 O.co2      1 MOL1        -0.6703
       4    C2      20.060296   18.679174   25.895266 C.3        1 MOL1        -0.1963
       5    H1      19.510830   17.843243   26.344119 H          1 MOL1         0.0750
       6    H2      20.951407   18.261915   25.412773 H          1 MOL1         0.0750
       7    C3      19.169849   19.408569   24.856310 C.3        1 MOL1        -0.1860
       8    H3      18.330025   19.883094   25.382275 H          1 MOL1         0.0752
       9    H4      19.739071   20.225888   24.393788 H          1 MOL1         0.0752
      10    C4      18.601101   18.469900   23.762764 C.3        1 MOL1        -0.1858
      11    H5      17.943289   19.050759   23.103000 H          1 MOL1         0.0752
      12    H6      17.955218   17.720385   24.239891 H          1 MOL1         0.0752
      13    C5      19.664902   17.732978   22.906783 C.3        1 MOL1        -0.1858
      14    H7      20.209282   17.020050   23.539761 H          1 MOL1         0.0752
      15    H8      19.147330   17.124247   22.153057 H          1 MOL1         0.0752
      16    C6      20.688661   18.649651   22.190934 C.3        1 MOL1        -0.1858
      17    H9      21.399333   18.014456   21.645001 H          1 MOL1         0.0752
      18    H10     21.281506   19.200691   22.932897 H          1 MOL1         0.0752
      19    C7      20.038998   19.641608   21.200056 C.3        1 MOL1        -0.1834
      20    H11     19.414734   19.092437   20.481905 H          1 MOL1         0.0752
      21    H12     19.376585   20.332111   21.738623 H          1 MOL1         0.0752
      22    C8      21.102068   20.457637   20.437296 C.3        1 MOL1        -0.2849
      23    H13     21.761185   19.799222   19.856497 H          1 MOL1         0.0764
      24    H14     20.624864   21.159274   19.740906 H          1 MOL1         0.0764
      25    H15     21.722930   21.038640   21.131801 H          1 MOL1         0.0764
@<TRIPOS>BOND
    1     1     2    1
    2     1     3    2
    3     1     4    1
    4     4     5    1
    5     4     6    1
    6     4     7    1
    7     7     8    1
    8     7     9    1
    9     7    10    1
   10    10    11    1
   11    10    12    1
   12    10    13    1
   13    13    14    1
   14    13    15    1
   15    13    16    1
   16    16    17    1
   17    16    18    1
   18    16    19    1
   19    19    20    1
   20    19    21    1
   21    19    22    1
   22    22    23    1
   23    22    24    1
   24    22    25    1
@<TRIPOS>SUBSTRUCTURE
       1 MOL1            1 RESIDUE      1      MOL     
@<SCITEGIC>MOL_PROPERTY
VM2 Rank
SciTegic.value.IntegerValue
49

@<SCITEGIC>MOL_PROPERTY
Conf_Id
SciTegic.value.IntegerValue
781

@<SCITEGIC>MOL_PROPERTY
Probability
SciTegic.value.DoubleValue
0.22

@<SCITEGIC>MOL_PROPERTY
Sum Probability
SciTegic.value.DoubleValue
95.65

@<SCITEGIC>MOL_PROPERTY
Delta G
SciTegic.value.DoubleValue
2.767

@<SCITEGIC>MOL_PROPERTY
G
SciTegic.value.DoubleValue
-5.196

@<SCITEGIC>MOL_PROPERTY
E
SciTegic.value.DoubleValue
-30.372

@<SCITEGIC>MOL_PROPERTY
-TS
SciTegic.value.DoubleValue
25.176

@<SCITEGIC>MOL_PROPERTY
U+W
SciTegic.value.DoubleValue
-50.940

@<SCITEGIC>MOL_PROPERTY
U
SciTegic.value.DoubleValue
8.897

@<SCITEGIC>MOL_PROPERTY
W
SciTegic.value.DoubleValue
-59.836

@<SCITEGIC>MOL_PROPERTY
W(PB)
SciTegic.value.DoubleValue
-62.244

@<SCITEGIC>MOL_PROPERTY
W(SA)
SciTegic.value.DoubleValue
2.407

@<SCITEGIC>MOL_PROPERTY
Valence
SciTegic.value.DoubleValue
8.933

@<SCITEGIC>MOL_PROPERTY
Coulomb
SciTegic.value.DoubleValue
-0.847

@<SCITEGIC>MOL_PROPERTY
VdW
SciTegic.value.DoubleValue
0.811

@<SCITEGIC>MOL_PROPERTY
VdW6
SciTegic.value.DoubleValue
-10.409

@<SCITEGIC>MOL_PROPERTY
VdW12
SciTegic.value.DoubleValue
11.221

@<SCITEGIC>MOL_PROPERTY
Bond
SciTegic.value.DoubleValue
0.240

@<SCITEGIC>MOL_PROPERTY
Angle
SciTegic.value.DoubleValue
3.240

@<SCITEGIC>MOL_PROPERTY
Pdih
SciTegic.value.DoubleValue
5.452

@<SCITEGIC>MOL_PROPERTY
Idih
SciTegic.value.DoubleValue
0.001

@<SCITEGIC>MOL_PROPERTY
Tether
SciTegic.value.DoubleValue
0.000

@<TRIPOS>MOLECULE
guest-8_vm2.mol2 : vm2 ligand conformer 50
          25          24           1
SMALL
USER_CHARGES
 
@<TRIPOS>ATOM
       1    C1      20.297539   19.371135   27.451443 C.2        1 MOL1         0.6168
       2    O1      21.395667   19.801699   27.743793 O.co2      1 MOL1        -0.6703
       3    O2      19.342912   19.396038   28.203003 O.co2      1 MOL1        -0.6703
       4    C2      20.100528   18.787950   26.056722 C.3        1 MOL1        -0.1963
       5    H1      19.345437   17.995638   26.123188 H          1 MOL1         0.0750
       6    H2      21.042882   18.315667   25.757929 H          1 MOL1         0.0750
       7    C3      19.667282   19.854319   25.017147 C.3        1 MOL1        -0.1860
       8    H3      18.776416   20.373270   25.397243 H          1 MOL1         0.0752
       9    H4      20.452992   20.616598   24.922854 H          1 MOL1         0.0752
      10    C4      19.339267   19.266285   23.623831 C.3        1 MOL1        -0.1858
      11    H5      18.910503   20.068863   23.010220 H          1 MOL1         0.0752
      12    H6      18.560660   18.497694   23.721839 H          1 MOL1         0.0752
      13    C5      20.572883   18.672434   22.900344 C.3        1 MOL1        -0.1858
      14    H7      21.350711   19.440718   22.801673 H          1 MOL1         0.0752
      15    H8      21.008582   17.875448   23.515728 H          1 MOL1         0.0752
      16    C6      20.244352   18.070365   21.510403 C.3        1 MOL1        -0.1858
      17    H9      19.530084   17.245942   21.640107 H          1 MOL1         0.0752
      18    H10     21.157252   17.617666   21.100100 H          1 MOL1         0.0752
      19    C7      19.672828   19.066066   20.470499 C.3        1 MOL1        -0.1834
      20    H11     19.479170   18.521590   19.536109 H          1 MOL1         0.0752
      21    H12     18.699112   19.447449   20.804811 H          1 MOL1         0.0752
      22    C8      20.619741   20.247710   20.168814 C.3        1 MOL1        -0.2849
      23    H13     21.608614   19.888761   19.855347 H          1 MOL1         0.0764
      24    H14     20.213137   20.869408   19.360773 H          1 MOL1         0.0764
      25    H15     20.748705   20.889689   21.049329 H          1 MOL1         0.0764
@<TRIPOS>BOND
    1     1     2    1
    2     1     3    2
    3     1     4    1
    4     4     5    1
    5     4     6    1
    6     4     7    1
    7     7     8    1
    8     7     9    1
    9     7    10    1
   10    10    11    1
   11    10    12    1
   12    10    13    1
   13    13    14    1
   14    13    15    1
   15    13    16    1
   16    16    17    1
   17    16    18    1
   18    16    19    1
   19    19    20    1
   20    19    21    1
   21    19    22    1
   22    22    23    1
   23    22    24    1
   24    22    25    1
@<TRIPOS>SUBSTRUCTURE
       1 MOL1            1 RESIDUE      1      MOL     
@<SCITEGIC>MOL_PROPERTY
VM2 Rank
SciTegic.value.IntegerValue
50

@<SCITEGIC>MOL_PROPERTY
Conf_Id
SciTegic.value.IntegerValue
700

@<SCITEGIC>MOL_PROPERTY
Probability
SciTegic.value.DoubleValue
0.22

@<SCITEGIC>MOL_PROPERTY
Sum Probability
SciTegic.value.DoubleValue
95.87

@<SCITEGIC>MOL_PROPERTY
Delta G
SciTegic.value.DoubleValue
2.780

@<SCITEGIC>MOL_PROPERTY
G
SciTegic.value.DoubleValue
-5.183

@<SCITEGIC>MOL_PROPERTY
E
SciTegic.value.DoubleValue
-30.048

@<SCITEGIC>MOL_PROPERTY
-TS
SciTegic.value.DoubleValue
24.865

@<SCITEGIC>MOL_PROPERTY
U+W
SciTegic.value.DoubleValue
-50.616

@<SCITEGIC>MOL_PROPERTY
U
SciTegic.value.DoubleValue
8.474

@<SCITEGIC>MOL_PROPERTY
W
SciTegic.value.DoubleValue
-59.089

@<SCITEGIC>MOL_PROPERTY
W(PB)
SciTegic.value.DoubleValue
-61.530

@<SCITEGIC>MOL_PROPERTY
W(SA)
SciTegic.value.DoubleValue
2.441

@<SCITEGIC>MOL_PROPERTY
Valence
SciTegic.value.DoubleValue
9.080

@<SCITEGIC>MOL_PROPERTY
Coulomb
SciTegic.value.DoubleValue
-1.772

@<SCITEGIC>MOL_PROPERTY
VdW
SciTegic.value.DoubleValue
1.165

@<SCITEGIC>MOL_PROPERTY
VdW6
SciTegic.value.DoubleValue
-9.830

@<SCITEGIC>MOL_PROPERTY
VdW12
SciTegic.value.DoubleValue
10.996

@<SCITEGIC>MOL_PROPERTY
Bond
SciTegic.value.DoubleValue
0.240

@<SCITEGIC>MOL_PROPERTY
Angle
SciTegic.value.DoubleValue
3.225

@<SCITEGIC>MOL_PROPERTY
Pdih
SciTegic.value.DoubleValue
5.615

@<SCITEGIC>MOL_PROPERTY
Idih
SciTegic.value.DoubleValue
0.001

@<SCITEGIC>MOL_PROPERTY
Tether
SciTegic.value.DoubleValue
0.000

@<TRIPOS>MOLECULE
guest-8_vm2.mol2 : vm2 ligand conformer 51
          25          24           1
SMALL
USER_CHARGES
 
@<TRIPOS>ATOM
       1    C1      19.718807   19.344197   27.160409 C.2        1 MOL1         0.6168
       2    O1      20.320762   19.037960   28.170712 O.co2      1 MOL1        -0.6703
       3    O2      18.791943   20.129867   27.141237 O.co2      1 MOL1        -0.6703
       4    C2      20.166041   18.725446   25.840975 C.3        1 MOL1        -0.1963
       5    H1      19.277139   18.605665   25.211191 H          1 MOL1         0.0750
       6    H2      20.556242   17.722192   26.049427 H          1 MOL1         0.0750
       7    C3      21.238302   19.576334   25.112501 C.3        1 MOL1        -0.1860
       8    H3      20.824239   20.565465   24.876455 H          1 MOL1         0.0752
       9    H4      22.074365   19.755959   25.802423 H          1 MOL1         0.0752
      10    C4      21.793980   18.908225   23.829322 C.3        1 MOL1        -0.1858
      11    H5      22.317425   17.984168   24.110166 H          1 MOL1         0.0752
      12    H6      22.556518   19.566246   23.390807 H          1 MOL1         0.0752
      13    C5      20.740521   18.569434   22.744130 C.3        1 MOL1        -0.1858
      14    H7      21.262050   18.082105   21.910737 H          1 MOL1         0.0752
      15    H8      20.027683   17.829571   23.130561 H          1 MOL1         0.0752
      16    C6      19.974707   19.807957   22.217146 C.3        1 MOL1        -0.1858
      17    H9      20.688059   20.548694   21.831232 H          1 MOL1         0.0752
      18    H10     19.444310   20.288553   23.049263 H          1 MOL1         0.0752
      19    C7      18.936354   19.468538   21.122214 C.3        1 MOL1        -0.1834
      20    H11     18.228383   18.718941   21.501883 H          1 MOL1         0.0752
      21    H12     18.346645   20.370064   20.906121 H          1 MOL1         0.0752
      22    C8      19.571583   18.966042   19.807354 C.3        1 MOL1        -0.2849
      23    H13     20.071639   17.999598   19.946302 H          1 MOL1         0.0764
      24    H14     18.801883   18.832872   19.036178 H          1 MOL1         0.0764
      25    H15     20.309301   19.684814   19.427576 H          1 MOL1         0.0764
@<TRIPOS>BOND
    1     1     2    1
    2     1     3    2
    3     1     4    1
    4     4     5    1
    5     4     6    1
    6     4     7    1
    7     7     8    1
    8     7     9    1
    9     7    10    1
   10    10    11    1
   11    10    12    1
   12    10    13    1
   13    13    14    1
   14    13    15    1
   15    13    16    1
   16    16    17    1
   17    16    18    1
   18    16    19    1
   19    19    20    1
   20    19    21    1
   21    19    22    1
   22    22    23    1
   23    22    24    1
   24    22    25    1
@<TRIPOS>SUBSTRUCTURE
       1 MOL1            1 RESIDUE      1      MOL     
@<SCITEGIC>MOL_PROPERTY
VM2 Rank
SciTegic.value.IntegerValue
51

@<SCITEGIC>MOL_PROPERTY
Conf_Id
SciTegic.value.IntegerValue
1264

@<SCITEGIC>MOL_PROPERTY
Probability
SciTegic.value.DoubleValue
0.21

@<SCITEGIC>MOL_PROPERTY
Sum Probability
SciTegic.value.DoubleValue
96.08

@<SCITEGIC>MOL_PROPERTY
Delta G
SciTegic.value.DoubleValue
2.790

@<SCITEGIC>MOL_PROPERTY
G
SciTegic.value.DoubleValue
-5.173

@<SCITEGIC>MOL_PROPERTY
E
SciTegic.value.DoubleValue
-30.088

@<SCITEGIC>MOL_PROPERTY
-TS
SciTegic.value.DoubleValue
24.915

@<SCITEGIC>MOL_PROPERTY
U+W
SciTegic.value.DoubleValue
-50.655

@<SCITEGIC>MOL_PROPERTY
U
SciTegic.value.DoubleValue
8.774

@<SCITEGIC>MOL_PROPERTY
W
SciTegic.value.DoubleValue
-59.429

@<SCITEGIC>MOL_PROPERTY
W(PB)
SciTegic.value.DoubleValue
-61.891

@<SCITEGIC>MOL_PROPERTY
W(SA)
SciTegic.value.DoubleValue
2.462

@<SCITEGIC>MOL_PROPERTY
Valence
SciTegic.value.DoubleValue
9.062

@<SCITEGIC>MOL_PROPERTY
Coulomb
SciTegic.value.DoubleValue
-1.371

@<SCITEGIC>MOL_PROPERTY
VdW
SciTegic.value.DoubleValue
1.082

@<SCITEGIC>MOL_PROPERTY
VdW6
SciTegic.value.DoubleValue
-9.990

@<SCITEGIC>MOL_PROPERTY
VdW12
SciTegic.value.DoubleValue
11.073

@<SCITEGIC>MOL_PROPERTY
Bond
SciTegic.value.DoubleValue
0.239

@<SCITEGIC>MOL_PROPERTY
Angle
SciTegic.value.DoubleValue
3.221

@<SCITEGIC>MOL_PROPERTY
Pdih
SciTegic.value.DoubleValue
5.602

@<SCITEGIC>MOL_PROPERTY
Idih
SciTegic.value.DoubleValue
0.001

@<SCITEGIC>MOL_PROPERTY
Tether
SciTegic.value.DoubleValue
0.000

@<TRIPOS>MOLECULE
guest-8_vm2.mol2 : vm2 ligand conformer 52
          25          24           1
SMALL
USER_CHARGES
 
@<TRIPOS>ATOM
       1    C1      20.582403   19.399188   27.150437 C.2        1 MOL1         0.6168
       2    O1      21.401316   20.296161   27.111150 O.co2      1 MOL1        -0.6703
       3    O2      20.047645   19.020385   28.173855 O.co2      1 MOL1        -0.6703
       4    C2      20.187093   18.726833   25.840689 C.3        1 MOL1        -0.1963
       5    H1      19.932343   17.682445   26.056516 H          1 MOL1         0.0750
       6    H2      21.069271   18.720014   25.190430 H          1 MOL1         0.0750
       7    C3      18.998984   19.433669   25.138399 C.3        1 MOL1        -0.1860
       8    H3      18.163014   19.506707   25.847677 H          1 MOL1         0.0752
       9    H4      19.278578   20.467016   24.894343 H          1 MOL1         0.0752
      10    C4      18.503180   18.698555   23.867382 C.3        1 MOL1        -0.1858
      11    H5      17.653340   19.253777   23.447556 H          1 MOL1         0.0752
      12    H6      18.107940   17.715917   24.158852 H          1 MOL1         0.0752
      13    C5      19.565819   18.494705   22.757682 C.3        1 MOL1        -0.1858
      14    H7      20.375635   17.852039   23.126517 H          1 MOL1         0.0752
      15    H8      19.091358   17.943752   21.935879 H          1 MOL1         0.0752
      16    C6      20.155643   19.819684   22.214857 C.3        1 MOL1        -0.1858
      17    H9      20.639489   20.365238   23.035206 H          1 MOL1         0.0752
      18    H10     19.345235   20.463028   21.846288 H          1 MOL1         0.0752
      19    C7      21.203441   19.613239   21.096037 C.3        1 MOL1        -0.1834
      20    H11     21.668494   20.582105   20.867504 H          1 MOL1         0.0752
      21    H12     22.009570   18.960548   21.458553 H          1 MOL1         0.0752
      22    C8      20.607474   19.031580   19.795511 C.3        1 MOL1        -0.2849
      23    H13     19.775834   19.649952   19.433463 H          1 MOL1         0.0764
      24    H14     21.370070   18.995980   19.006800 H          1 MOL1         0.0764
      25    H15     20.237746   18.009629   19.944825 H          1 MOL1         0.0764
@<TRIPOS>BOND
    1     1     2    1
    2     1     3    2
    3     1     4    1
    4     4     5    1
    5     4     6    1
    6     4     7    1
    7     7     8    1
    8     7     9    1
    9     7    10    1
   10    10    11    1
   11    10    12    1
   12    10    13    1
   13    13    14    1
   14    13    15    1
   15    13    16    1
   16    16    17    1
   17    16    18    1
   18    16    19    1
   19    19    20    1
   20    19    21    1
   21    19    22    1
   22    22    23    1
   23    22    24    1
   24    22    25    1
@<TRIPOS>SUBSTRUCTURE
       1 MOL1            1 RESIDUE      1      MOL     
@<SCITEGIC>MOL_PROPERTY
VM2 Rank
SciTegic.value.IntegerValue
52

@<SCITEGIC>MOL_PROPERTY
Conf_Id
SciTegic.value.IntegerValue
740

@<SCITEGIC>MOL_PROPERTY
Probability
SciTegic.value.DoubleValue
0.20

@<SCITEGIC>MOL_PROPERTY
Sum Probability
SciTegic.value.DoubleValue
96.28

@<SCITEGIC>MOL_PROPERTY
Delta G
SciTegic.value.DoubleValue
2.815

@<SCITEGIC>MOL_PROPERTY
G
SciTegic.value.DoubleValue
-5.148

@<SCITEGIC>MOL_PROPERTY
E
SciTegic.value.DoubleValue
-30.062

@<SCITEGIC>MOL_PROPERTY
-TS
SciTegic.value.DoubleValue
24.914

@<SCITEGIC>MOL_PROPERTY
U+W
SciTegic.value.DoubleValue
-50.630

@<SCITEGIC>MOL_PROPERTY
U
SciTegic.value.DoubleValue
8.774

@<SCITEGIC>MOL_PROPERTY
W
SciTegic.value.DoubleValue
-59.402

@<SCITEGIC>MOL_PROPERTY
W(PB)
SciTegic.value.DoubleValue
-61.849

@<SCITEGIC>MOL_PROPERTY
W(SA)
SciTegic.value.DoubleValue
2.447

@<SCITEGIC>MOL_PROPERTY
Valence
SciTegic.value.DoubleValue
9.062

@<SCITEGIC>MOL_PROPERTY
Coulomb
SciTegic.value.DoubleValue
-1.371

@<SCITEGIC>MOL_PROPERTY
VdW
SciTegic.value.DoubleValue
1.083

@<SCITEGIC>MOL_PROPERTY
VdW6
SciTegic.value.DoubleValue
-9.990

@<SCITEGIC>MOL_PROPERTY
VdW12
SciTegic.value.DoubleValue
11.073

@<SCITEGIC>MOL_PROPERTY
Bond
SciTegic.value.DoubleValue
0.239

@<SCITEGIC>MOL_PROPERTY
Angle
SciTegic.value.DoubleValue
3.221

@<SCITEGIC>MOL_PROPERTY
Pdih
SciTegic.value.DoubleValue
5.601

@<SCITEGIC>MOL_PROPERTY
Idih
SciTegic.value.DoubleValue
0.001

@<SCITEGIC>MOL_PROPERTY
Tether
SciTegic.value.DoubleValue
0.000

@<TRIPOS>MOLECULE
guest-8_vm2.mol2 : vm2 ligand conformer 53
          25          24           1
SMALL
USER_CHARGES
 
@<TRIPOS>ATOM
       1    C1      19.744799   19.547410   27.027697 C.2        1 MOL1         0.6168
       2    O1      20.450331   19.738456   27.998580 O.co2      1 MOL1        -0.6703
       3    O2      18.628492   20.011701   26.905137 O.co2      1 MOL1        -0.6703
       4    C2      20.298929   18.694299   25.892396 C.3        1 MOL1        -0.1963
       5    H1      19.457011   18.166867   25.429829 H          1 MOL1         0.0750
       6    H2      20.959893   17.935330   26.327433 H          1 MOL1         0.0750
       7    C3      21.065919   19.528947   24.834370 C.3        1 MOL1        -0.1860
       8    H3      20.387440   20.267048   24.386237 H          1 MOL1         0.0752
       9    H4      21.850829   20.106631   25.341631 H          1 MOL1         0.0752
      10    C4      21.723558   18.668186   23.726661 C.3        1 MOL1        -0.1858
      11    H5      22.469914   18.007138   24.187700 H          1 MOL1         0.0752
      12    H6      22.287203   19.326653   23.052769 H          1 MOL1         0.0752
      13    C5      20.742142   17.801307   22.894328 C.3        1 MOL1        -0.1858
      14    H7      21.315066   17.262009   22.127874 H          1 MOL1         0.0752
      15    H8      20.307230   17.026035   23.538596 H          1 MOL1         0.0752
      16    C6      19.594236   18.579959   22.203799 C.3        1 MOL1        -0.1858
      17    H9      18.953665   19.052417   22.960152 H          1 MOL1         0.0752
      18    H10     18.957334   17.859135   21.673385 H          1 MOL1         0.0752
      19    C7      20.089914   19.644941   21.199813 C.3        1 MOL1        -0.1834
      20    H11     20.671843   20.414465   21.724059 H          1 MOL1         0.0752
      21    H12     20.761896   19.178335   20.466496 H          1 MOL1         0.0752
      22    C8      18.914679   20.318795   20.463219 C.3        1 MOL1        -0.2849
      23    H13     18.330935   19.581462   19.896779 H          1 MOL1         0.0764
      24    H14     18.241528   20.817437   21.172864 H          1 MOL1         0.0764
      25    H15     19.282930   21.074281   19.757096 H          1 MOL1         0.0764
@<TRIPOS>BOND
    1     1     2    1
    2     1     3    2
    3     1     4    1
    4     4     5    1
    5     4     6    1
    6     4     7    1
    7     7     8    1
    8     7     9    1
    9     7    10    1
   10    10    11    1
   11    10    12    1
   12    10    13    1
   13    13    14    1
   14    13    15    1
   15    13    16    1
   16    16    17    1
   17    16    18    1
   18    16    19    1
   19    19    20    1
   20    19    21    1
   21    19    22    1
   22    22    23    1
   23    22    24    1
   24    22    25    1
@<TRIPOS>SUBSTRUCTURE
       1 MOL1            1 RESIDUE      1      MOL     
@<SCITEGIC>MOL_PROPERTY
VM2 Rank
SciTegic.value.IntegerValue
53

@<SCITEGIC>MOL_PROPERTY
Conf_Id
SciTegic.value.IntegerValue
1088

@<SCITEGIC>MOL_PROPERTY
Probability
SciTegic.value.DoubleValue
0.20

@<SCITEGIC>MOL_PROPERTY
Sum Probability
SciTegic.value.DoubleValue
96.49

@<SCITEGIC>MOL_PROPERTY
Delta G
SciTegic.value.DoubleValue
2.824

@<SCITEGIC>MOL_PROPERTY
G
SciTegic.value.DoubleValue
-5.139

@<SCITEGIC>MOL_PROPERTY
E
SciTegic.value.DoubleValue
-30.316

@<SCITEGIC>MOL_PROPERTY
-TS
SciTegic.value.DoubleValue
25.177

@<SCITEGIC>MOL_PROPERTY
U+W
SciTegic.value.DoubleValue
-50.883

@<SCITEGIC>MOL_PROPERTY
U
SciTegic.value.DoubleValue
8.897

@<SCITEGIC>MOL_PROPERTY
W
SciTegic.value.DoubleValue
-59.781

@<SCITEGIC>MOL_PROPERTY
W(PB)
SciTegic.value.DoubleValue
-62.194

@<SCITEGIC>MOL_PROPERTY
W(SA)
SciTegic.value.DoubleValue
2.414

@<SCITEGIC>MOL_PROPERTY
Valence
SciTegic.value.DoubleValue
8.932

@<SCITEGIC>MOL_PROPERTY
Coulomb
SciTegic.value.DoubleValue
-0.846

@<SCITEGIC>MOL_PROPERTY
VdW
SciTegic.value.DoubleValue
0.811

@<SCITEGIC>MOL_PROPERTY
VdW6
SciTegic.value.DoubleValue
-10.411

@<SCITEGIC>MOL_PROPERTY
VdW12
SciTegic.value.DoubleValue
11.222

@<SCITEGIC>MOL_PROPERTY
Bond
SciTegic.value.DoubleValue
0.240

@<SCITEGIC>MOL_PROPERTY
Angle
SciTegic.value.DoubleValue
3.240

@<SCITEGIC>MOL_PROPERTY
Pdih
SciTegic.value.DoubleValue
5.452

@<SCITEGIC>MOL_PROPERTY
Idih
SciTegic.value.DoubleValue
0.001

@<SCITEGIC>MOL_PROPERTY
Tether
SciTegic.value.DoubleValue
0.000

@<TRIPOS>MOLECULE
guest-8_vm2.mol2 : vm2 ligand conformer 54
          25          24           1
SMALL
USER_CHARGES
 
@<TRIPOS>ATOM
       1    C1      19.826835   19.407613   27.270567 C.2        1 MOL1         0.6168
       2    O1      20.739652   19.626221   28.042394 O.co2      1 MOL1        -0.6703
       3    O2      18.717383   19.889746   27.386100 O.co2      1 MOL1        -0.6703
       4    C2      20.093697   18.492125   26.081097 C.3        1 MOL1        -0.1963
       5    H1      19.163331   17.962601   25.843198 H          1 MOL1         0.0750
       6    H2      20.826903   17.737459   26.389920 H          1 MOL1         0.0750
       7    C3      20.605273   19.257628   24.836006 C.3        1 MOL1        -0.1860
       8    H3      19.864629   20.019334   24.558449 H          1 MOL1         0.0752
       9    H4      21.532104   19.789483   25.091464 H          1 MOL1         0.0752
      10    C4      20.860870   18.307414   23.643363 C.3        1 MOL1        -0.1858
      11    H5      19.926198   17.805159   23.361348 H          1 MOL1         0.0752
      12    H6      21.549743   17.512861   23.960792 H          1 MOL1         0.0752
      13    C5      21.471063   19.017547   22.408974 C.3        1 MOL1        -0.1858
      14    H7      22.449670   19.431863   22.686716 H          1 MOL1         0.0752
      15    H8      21.675808   18.267527   21.633777 H          1 MOL1         0.0752
      16    C6      20.606136   20.154866   21.803805 C.3        1 MOL1        -0.1858
      17    H9      21.129919   20.565247   20.929889 H          1 MOL1         0.0752
      18    H10     20.537926   20.981502   22.523031 H          1 MOL1         0.0752
      19    C7      19.175930   19.740570   21.378368 C.3        1 MOL1        -0.1834
      20    H11     18.602271   19.409365   22.254183 H          1 MOL1         0.0752
      21    H12     18.654964   20.627051   20.991524 H          1 MOL1         0.0752
      22    C8      19.156161   18.640270   20.295325 C.3        1 MOL1        -0.2849
      23    H13     18.127462   18.441105   19.968464 H          1 MOL1         0.0764
      24    H14     19.738300   18.944435   19.415818 H          1 MOL1         0.0764
      25    H15     19.572780   17.699192   20.675775 H          1 MOL1         0.0764
@<TRIPOS>BOND
    1     1     2    1
    2     1     3    2
    3     1     4    1
    4     4     5    1
    5     4     6    1
    6     4     7    1
    7     7     8    1
    8     7     9    1
    9     7    10    1
   10    10    11    1
   11    10    12    1
   12    10    13    1
   13    13    14    1
   14    13    15    1
   15    13    16    1
   16    16    17    1
   17    16    18    1
   18    16    19    1
   19    19    20    1
   20    19    21    1
   21    19    22    1
   22    22    23    1
   23    22    24    1
   24    22    25    1
@<TRIPOS>SUBSTRUCTURE
       1 MOL1            1 RESIDUE      1      MOL     
@<SCITEGIC>MOL_PROPERTY
VM2 Rank
SciTegic.value.IntegerValue
54

@<SCITEGIC>MOL_PROPERTY
Conf_Id
SciTegic.value.IntegerValue
1190

@<SCITEGIC>MOL_PROPERTY
Probability
SciTegic.value.DoubleValue
0.20

@<SCITEGIC>MOL_PROPERTY
Sum Probability
SciTegic.value.DoubleValue
96.69

@<SCITEGIC>MOL_PROPERTY
Delta G
SciTegic.value.DoubleValue
2.827

@<SCITEGIC>MOL_PROPERTY
G
SciTegic.value.DoubleValue
-5.136

@<SCITEGIC>MOL_PROPERTY
E
SciTegic.value.DoubleValue
-30.278

@<SCITEGIC>MOL_PROPERTY
-TS
SciTegic.value.DoubleValue
25.143

@<SCITEGIC>MOL_PROPERTY
U+W
SciTegic.value.DoubleValue
-50.846

@<SCITEGIC>MOL_PROPERTY
U
SciTegic.value.DoubleValue
8.646

@<SCITEGIC>MOL_PROPERTY
W
SciTegic.value.DoubleValue
-59.492

@<SCITEGIC>MOL_PROPERTY
W(PB)
SciTegic.value.DoubleValue
-61.923

@<SCITEGIC>MOL_PROPERTY
W(SA)
SciTegic.value.DoubleValue
2.431

@<SCITEGIC>MOL_PROPERTY
Valence
SciTegic.value.DoubleValue
8.924

@<SCITEGIC>MOL_PROPERTY
Coulomb
SciTegic.value.DoubleValue
-1.171

@<SCITEGIC>MOL_PROPERTY
VdW
SciTegic.value.DoubleValue
0.894

@<SCITEGIC>MOL_PROPERTY
VdW6
SciTegic.value.DoubleValue
-10.224

@<SCITEGIC>MOL_PROPERTY
VdW12
SciTegic.value.DoubleValue
11.117

@<SCITEGIC>MOL_PROPERTY
Bond
SciTegic.value.DoubleValue
0.231

@<SCITEGIC>MOL_PROPERTY
Angle
SciTegic.value.DoubleValue
3.232

@<SCITEGIC>MOL_PROPERTY
Pdih
SciTegic.value.DoubleValue
5.461

@<SCITEGIC>MOL_PROPERTY
Idih
SciTegic.value.DoubleValue
0.001

@<SCITEGIC>MOL_PROPERTY
Tether
SciTegic.value.DoubleValue
0.000

@<TRIPOS>MOLECULE
guest-8_vm2.mol2 : vm2 ligand conformer 55
          25          24           1
SMALL
USER_CHARGES
 
@<TRIPOS>ATOM
       1    C1      20.296496   19.376030   27.451288 C.2        1 MOL1         0.6168
       2    O1      21.466362   19.512194   27.750642 O.co2      1 MOL1        -0.6703
       3    O2      19.451672   18.950645   28.214239 O.co2      1 MOL1        -0.6703
       4    C2      19.869307   19.736883   26.033028 C.3        1 MOL1        -0.1963
       5    H1      20.492369   20.574858   25.701441 H          1 MOL1         0.0750
       6    H2      18.833785   20.095492   26.070849 H          1 MOL1         0.0750
       7    C3      19.986691   18.543046   25.049905 C.3        1 MOL1        -0.1860
       8    H3      21.035920   18.223870   24.982502 H          1 MOL1         0.0752
       9    H4      19.429923   17.691171   25.464323 H          1 MOL1         0.0752
      10    C4      19.440900   18.847994   23.634338 C.3        1 MOL1        -0.1858
      11    H5      18.394953   19.175956   23.705041 H          1 MOL1         0.0752
      12    H6      19.436407   17.910257   23.064150 H          1 MOL1         0.0752
      13    C5      20.271263   19.907946   22.869551 C.3        1 MOL1        -0.1858
      14    H7      20.284195   20.844084   23.441565 H          1 MOL1         0.0752
      15    H8      21.316455   19.580029   22.798445 H          1 MOL1         0.0752
      16    C6      19.718747   20.224944   21.456541 C.3        1 MOL1        -0.1858
      17    H9      20.325589   21.027084   21.014970 H          1 MOL1         0.0752
      18    H10     18.703735   20.633211   21.555257 H          1 MOL1         0.0752
      19    C7      19.681799   19.030132   20.471387 C.3        1 MOL1        -0.1834
      20    H11     18.989072   18.259612   20.834382 H          1 MOL1         0.0752
      21    H12     19.270167   19.379624   19.514591 H          1 MOL1         0.0752
      22    C8      21.069762   18.404184   20.215081 C.3        1 MOL1        -0.2849
      23    H13     21.469465   17.935924   21.123401 H          1 MOL1         0.0764
      24    H14     21.004372   17.627788   19.441972 H          1 MOL1         0.0764
      25    H15     21.786033   19.162771   19.873790 H          1 MOL1         0.0764
@<TRIPOS>BOND
    1     1     2    1
    2     1     3    2
    3     1     4    1
    4     4     5    1
    5     4     6    1
    6     4     7    1
    7     7     8    1
    8     7     9    1
    9     7    10    1
   10    10    11    1
   11    10    12    1
   12    10    13    1
   13    13    14    1
   14    13    15    1
   15    13    16    1
   16    16    17    1
   17    16    18    1
   18    16    19    1
   19    19    20    1
   20    19    21    1
   21    19    22    1
   22    22    23    1
   23    22    24    1
   24    22    25    1
@<TRIPOS>SUBSTRUCTURE
       1 MOL1            1 RESIDUE      1      MOL     
@<SCITEGIC>MOL_PROPERTY
VM2 Rank
SciTegic.value.IntegerValue
55

@<SCITEGIC>MOL_PROPERTY
Conf_Id
SciTegic.value.IntegerValue
260

@<SCITEGIC>MOL_PROPERTY
Probability
SciTegic.value.DoubleValue
0.20

@<SCITEGIC>MOL_PROPERTY
Sum Probability
SciTegic.value.DoubleValue
96.88

@<SCITEGIC>MOL_PROPERTY
Delta G
SciTegic.value.DoubleValue
2.830

@<SCITEGIC>MOL_PROPERTY
G
SciTegic.value.DoubleValue
-5.132

@<SCITEGIC>MOL_PROPERTY
E
SciTegic.value.DoubleValue
-29.998

@<SCITEGIC>MOL_PROPERTY
-TS
SciTegic.value.DoubleValue
24.865

@<SCITEGIC>MOL_PROPERTY
U+W
SciTegic.value.DoubleValue
-50.565

@<SCITEGIC>MOL_PROPERTY
U
SciTegic.value.DoubleValue
8.474

@<SCITEGIC>MOL_PROPERTY
W
SciTegic.value.DoubleValue
-59.039

@<SCITEGIC>MOL_PROPERTY
W(PB)
SciTegic.value.DoubleValue
-61.492

@<SCITEGIC>MOL_PROPERTY
W(SA)
SciTegic.value.DoubleValue
2.453

@<SCITEGIC>MOL_PROPERTY
Valence
SciTegic.value.DoubleValue
9.080

@<SCITEGIC>MOL_PROPERTY
Coulomb
SciTegic.value.DoubleValue
-1.772

@<SCITEGIC>MOL_PROPERTY
VdW
SciTegic.value.DoubleValue
1.165

@<SCITEGIC>MOL_PROPERTY
VdW6
SciTegic.value.DoubleValue
-9.830

@<SCITEGIC>MOL_PROPERTY
VdW12
SciTegic.value.DoubleValue
10.996

@<SCITEGIC>MOL_PROPERTY
Bond
SciTegic.value.DoubleValue
0.240

@<SCITEGIC>MOL_PROPERTY
Angle
SciTegic.value.DoubleValue
3.225

@<SCITEGIC>MOL_PROPERTY
Pdih
SciTegic.value.DoubleValue
5.614

@<SCITEGIC>MOL_PROPERTY
Idih
SciTegic.value.DoubleValue
0.001

@<SCITEGIC>MOL_PROPERTY
Tether
SciTegic.value.DoubleValue
0.000

@<TRIPOS>MOLECULE
guest-8_vm2.mol2 : vm2 ligand conformer 56
          25          24           1
SMALL
USER_CHARGES
 
@<TRIPOS>ATOM
       1    C1      20.469734   19.448569   27.263178 C.2        1 MOL1         0.6168
       2    O1      21.511293   20.067956   27.353716 O.co2      1 MOL1        -0.6703
       3    O2      19.554663   19.550507   28.056270 O.co2      1 MOL1        -0.6703
       4    C2      20.293908   18.504879   26.078818 C.3        1 MOL1        -0.1963
       5    H1      19.669723   17.663707   26.403325 H          1 MOL1         0.0750
       6    H2      21.278233   18.097377   25.818784 H          1 MOL1         0.0750
       7    C3      19.660782   19.197439   24.846964 C.3        1 MOL1        -0.1860
       8    H3      18.680047   19.607679   25.124461 H          1 MOL1         0.0752
       9    H4      20.292137   20.046618   24.553587 H          1 MOL1         0.0752
      10    C4      19.500538   18.220754   23.659093 C.3        1 MOL1        -0.1858
      11    H5      18.925601   17.345626   23.991086 H          1 MOL1         0.0752
      12    H6      20.484679   17.840825   23.354912 H          1 MOL1         0.0752
      13    C5      18.776900   18.845904   22.440130 C.3        1 MOL1        -0.1858
      14    H7      18.651190   18.074835   21.668749 H          1 MOL1         0.0752
      15    H8      17.760285   19.133087   22.740945 H          1 MOL1         0.0752
      16    C6      19.476341   20.082903   21.816882 C.3        1 MOL1        -0.1858
      17    H9      19.455724   20.912537   22.535594 H          1 MOL1         0.0752
      18    H10     18.884680   20.422274   20.955921 H          1 MOL1         0.0752
      19    C7      20.937336   19.852788   21.357893 C.3        1 MOL1        -0.1834
      20    H11     21.332535   20.797637   20.960424 H          1 MOL1         0.0752
      21    H12     21.568465   19.598325   22.219727 H          1 MOL1         0.0752
      22    C8      21.071507   18.762300   20.273055 C.3        1 MOL1        -0.2849
      23    H13     20.435248   18.988818   19.407723 H          1 MOL1         0.0764
      24    H14     22.109314   18.694834   19.922153 H          1 MOL1         0.0764
      25    H15     20.786633   17.776514   20.661665 H          1 MOL1         0.0764
@<TRIPOS>BOND
    1     1     2    1
    2     1     3    2
    3     1     4    1
    4     4     5    1
    5     4     6    1
    6     4     7    1
    7     7     8    1
    8     7     9    1
    9     7    10    1
   10    10    11    1
   11    10    12    1
   12    10    13    1
   13    13    14    1
   14    13    15    1
   15    13    16    1
   16    16    17    1
   17    16    18    1
   18    16    19    1
   19    19    20    1
   20    19    21    1
   21    19    22    1
   22    22    23    1
   23    22    24    1
   24    22    25    1
@<TRIPOS>SUBSTRUCTURE
       1 MOL1            1 RESIDUE      1      MOL     
@<SCITEGIC>MOL_PROPERTY
VM2 Rank
SciTegic.value.IntegerValue
56

@<SCITEGIC>MOL_PROPERTY
Conf_Id
SciTegic.value.IntegerValue
892

@<SCITEGIC>MOL_PROPERTY
Probability
SciTegic.value.DoubleValue
0.18

@<SCITEGIC>MOL_PROPERTY
Sum Probability
SciTegic.value.DoubleValue
97.06

@<SCITEGIC>MOL_PROPERTY
Delta G
SciTegic.value.DoubleValue
2.893

@<SCITEGIC>MOL_PROPERTY
G
SciTegic.value.DoubleValue
-5.069

@<SCITEGIC>MOL_PROPERTY
E
SciTegic.value.DoubleValue
-30.212

@<SCITEGIC>MOL_PROPERTY
-TS
SciTegic.value.DoubleValue
25.143

@<SCITEGIC>MOL_PROPERTY
U+W
SciTegic.value.DoubleValue
-50.779

@<SCITEGIC>MOL_PROPERTY
U
SciTegic.value.DoubleValue
8.646

@<SCITEGIC>MOL_PROPERTY
W
SciTegic.value.DoubleValue
-59.426

@<SCITEGIC>MOL_PROPERTY
W(PB)
SciTegic.value.DoubleValue
-61.868

@<SCITEGIC>MOL_PROPERTY
W(SA)
SciTegic.value.DoubleValue
2.442

@<SCITEGIC>MOL_PROPERTY
Valence
SciTegic.value.DoubleValue
8.924

@<SCITEGIC>MOL_PROPERTY
Coulomb
SciTegic.value.DoubleValue
-1.171

@<SCITEGIC>MOL_PROPERTY
VdW
SciTegic.value.DoubleValue
0.894

@<SCITEGIC>MOL_PROPERTY
VdW6
SciTegic.value.DoubleValue
-10.223

@<SCITEGIC>MOL_PROPERTY
VdW12
SciTegic.value.DoubleValue
11.117

@<SCITEGIC>MOL_PROPERTY
Bond
SciTegic.value.DoubleValue
0.231

@<SCITEGIC>MOL_PROPERTY
Angle
SciTegic.value.DoubleValue
3.232

@<SCITEGIC>MOL_PROPERTY
Pdih
SciTegic.value.DoubleValue
5.461

@<SCITEGIC>MOL_PROPERTY
Idih
SciTegic.value.DoubleValue
0.001

@<SCITEGIC>MOL_PROPERTY
Tether
SciTegic.value.DoubleValue
0.000

@<TRIPOS>MOLECULE
guest-8_vm2.mol2 : vm2 ligand conformer 57
          25          24           1
SMALL
USER_CHARGES
 
@<TRIPOS>ATOM
       1    C1      20.008129   19.468185   27.197525 C.2        1 MOL1         0.6168
       2    O1      21.044267   19.960313   27.599149 O.co2      1 MOL1        -0.6703
       3    O2      18.914102   19.968056   27.371686 O.co2      1 MOL1        -0.6703
       4    C2      20.080495   18.139084   26.451071 C.3        1 MOL1        -0.1963
       5    H1      19.293164   17.492098   26.855408 H          1 MOL1         0.0750
       6    H2      21.037908   17.657991   26.684900 H          1 MOL1         0.0750
       7    C3      19.906320   18.269546   24.915652 C.3        1 MOL1        -0.1860
       8    H3      19.840177   17.264730   24.477193 H          1 MOL1         0.0752
       9    H4      18.951803   18.770707   24.707021 H          1 MOL1         0.0752
      10    C4      21.071430   19.041078   24.250926 C.3        1 MOL1        -0.1858
      11    H5      22.022010   18.573535   24.541791 H          1 MOL1         0.0752
      12    H6      21.103599   20.070572   24.633505 H          1 MOL1         0.0752
      13    C5      20.988494   19.067455   22.706186 C.3        1 MOL1        -0.1858
      14    H7      21.903163   19.533861   22.315816 H          1 MOL1         0.0752
      15    H8      20.977270   18.037038   22.327539 H          1 MOL1         0.0752
      16    C6      19.759593   19.842638   22.171091 C.3        1 MOL1        -0.1858
      17    H9      19.718475   20.827370   22.656203 H          1 MOL1         0.0752
      18    H10     18.834838   19.319336   22.447023 H          1 MOL1         0.0752
      19    C7      19.786678   20.049130   20.638727 C.3        1 MOL1        -0.1834
      20    H11     18.943721   20.694019   20.354578 H          1 MOL1         0.0752
      21    H12     20.700097   20.588773   20.352870 H          1 MOL1         0.0752
      22    C8      19.693491   18.728515   19.843986 C.3        1 MOL1        -0.2849
      23    H13     18.800659   18.158662   20.132493 H          1 MOL1         0.0764
      24    H14     19.631503   18.931855   18.767100 H          1 MOL1         0.0764
      25    H15     20.574619   18.096902   20.012783 H          1 MOL1         0.0764
@<TRIPOS>BOND
    1     1     2    1
    2     1     3    2
    3     1     4    1
    4     4     5    1
    5     4     6    1
    6     4     7    1
    7     7     8    1
    8     7     9    1
    9     7    10    1
   10    10    11    1
   11    10    12    1
   12    10    13    1
   13    13    14    1
   14    13    15    1
   15    13    16    1
   16    16    17    1
   17    16    18    1
   18    16    19    1
   19    19    20    1
   20    19    21    1
   21    19    22    1
   22    22    23    1
   23    22    24    1
   24    22    25    1
@<TRIPOS>SUBSTRUCTURE
       1 MOL1            1 RESIDUE      1      MOL     
@<SCITEGIC>MOL_PROPERTY
VM2 Rank
SciTegic.value.IntegerValue
57

@<SCITEGIC>MOL_PROPERTY
Conf_Id
SciTegic.value.IntegerValue
782

@<SCITEGIC>MOL_PROPERTY
Probability
SciTegic.value.DoubleValue
0.11

@<SCITEGIC>MOL_PROPERTY
Sum Probability
SciTegic.value.DoubleValue
97.17

@<SCITEGIC>MOL_PROPERTY
Delta G
SciTegic.value.DoubleValue
3.194

@<SCITEGIC>MOL_PROPERTY
G
SciTegic.value.DoubleValue
-4.768

@<SCITEGIC>MOL_PROPERTY
E
SciTegic.value.DoubleValue
-29.716

@<SCITEGIC>MOL_PROPERTY
-TS
SciTegic.value.DoubleValue
24.948

@<SCITEGIC>MOL_PROPERTY
U+W
SciTegic.value.DoubleValue
-50.284

@<SCITEGIC>MOL_PROPERTY
U
SciTegic.value.DoubleValue
9.530

@<SCITEGIC>MOL_PROPERTY
W
SciTegic.value.DoubleValue
-59.814

@<SCITEGIC>MOL_PROPERTY
W(PB)
SciTegic.value.DoubleValue
-62.279

@<SCITEGIC>MOL_PROPERTY
W(SA)
SciTegic.value.DoubleValue
2.465

@<SCITEGIC>MOL_PROPERTY
Valence
SciTegic.value.DoubleValue
8.779

@<SCITEGIC>MOL_PROPERTY
Coulomb
SciTegic.value.DoubleValue
-0.179

@<SCITEGIC>MOL_PROPERTY
VdW
SciTegic.value.DoubleValue
0.930

@<SCITEGIC>MOL_PROPERTY
VdW6
SciTegic.value.DoubleValue
-9.874

@<SCITEGIC>MOL_PROPERTY
VdW12
SciTegic.value.DoubleValue
10.804

@<SCITEGIC>MOL_PROPERTY
Bond
SciTegic.value.DoubleValue
0.204

@<SCITEGIC>MOL_PROPERTY
Angle
SciTegic.value.DoubleValue
2.848

@<SCITEGIC>MOL_PROPERTY
Pdih
SciTegic.value.DoubleValue
5.726

@<SCITEGIC>MOL_PROPERTY
Idih
SciTegic.value.DoubleValue
0.001

@<SCITEGIC>MOL_PROPERTY
Tether
SciTegic.value.DoubleValue
0.000

@<TRIPOS>MOLECULE
guest-8_vm2.mol2 : vm2 ligand conformer 58
          25          24           1
SMALL
USER_CHARGES
 
@<TRIPOS>ATOM
       1    C1      20.030055   19.191190   27.319897 C.2        1 MOL1         0.6168
       2    O1      21.071936   18.717260   27.728474 O.co2      1 MOL1        -0.6703
       3    O2      18.932328   18.787664   27.650463 O.co2      1 MOL1        -0.6703
       4    C2      20.101623   20.369549   26.352690 C.3        1 MOL1        -0.1963
       5    H1      21.098299   20.821610   26.424046 H          1 MOL1         0.0750
       6    H2      19.385686   21.122917   26.701731 H          1 MOL1         0.0750
       7    C3      19.785990   19.998722   24.880158 C.3        1 MOL1        -0.1860
       8    H3      18.802591   19.511001   24.830387 H          1 MOL1         0.0752
       9    H4      19.710345   20.925114   24.296718 H          1 MOL1         0.0752
      10    C4      20.861008   19.076651   24.256181 C.3        1 MOL1        -0.1858
      11    H5      20.970833   18.177607   24.877969 H          1 MOL1         0.0752
      12    H6      21.836082   19.582424   24.269510 H          1 MOL1         0.0752
      13    C5      20.526782   18.631839   22.812396 C.3        1 MOL1        -0.1858
      14    H7      21.274546   17.892956   22.493876 H          1 MOL1         0.0752
      15    H8      19.557548   18.116174   22.809387 H          1 MOL1         0.0752
      16    C6      20.509315   19.800270   21.796453 C.3        1 MOL1        -0.1858
      17    H9      21.435733   20.380934   21.902307 H          1 MOL1         0.0752
      18    H10     19.682482   20.485481   22.024195 H          1 MOL1         0.0752
      19    C7      20.387416   19.331322   20.327858 C.3        1 MOL1        -0.1834
      20    H11     20.489099   20.204609   19.668895 H          1 MOL1         0.0752
      21    H12     21.220971   18.658869   20.082372 H          1 MOL1         0.0752
      22    C8      19.046548   18.629533   20.021431 C.3        1 MOL1        -0.2849
      23    H13     18.197168   19.273617   20.283787 H          1 MOL1         0.0764
      24    H14     18.973014   18.391669   18.952371 H          1 MOL1         0.0764
      25    H15     18.950629   17.689171   20.578519 H          1 MOL1         0.0764
@<TRIPOS>BOND
    1     1     2    1
    2     1     3    2
    3     1     4    1
    4     4     5    1
    5     4     6    1
    6     4     7    1
    7     7     8    1
    8     7     9    1
    9     7    10    1
   10    10    11    1
   11    10    12    1
   12    10    13    1
   13    13    14    1
   14    13    15    1
   15    13    16    1
   16    16    17    1
   17    16    18    1
   18    16    19    1
   19    19    20    1
   20    19    21    1
   21    19    22    1
   22    22    23    1
   23    22    24    1
   24    22    25    1
@<TRIPOS>SUBSTRUCTURE
       1 MOL1            1 RESIDUE      1      MOL     
@<SCITEGIC>MOL_PROPERTY
VM2 Rank
SciTegic.value.IntegerValue
58

@<SCITEGIC>MOL_PROPERTY
Conf_Id
SciTegic.value.IntegerValue
88

@<SCITEGIC>MOL_PROPERTY
Probability
SciTegic.value.DoubleValue
0.10

@<SCITEGIC>MOL_PROPERTY
Sum Probability
SciTegic.value.DoubleValue
97.28

@<SCITEGIC>MOL_PROPERTY
Delta G
SciTegic.value.DoubleValue
3.213

@<SCITEGIC>MOL_PROPERTY
G
SciTegic.value.DoubleValue
-4.750

@<SCITEGIC>MOL_PROPERTY
E
SciTegic.value.DoubleValue
-29.708

@<SCITEGIC>MOL_PROPERTY
-TS
SciTegic.value.DoubleValue
24.958

@<SCITEGIC>MOL_PROPERTY
U+W
SciTegic.value.DoubleValue
-50.276

@<SCITEGIC>MOL_PROPERTY
U
SciTegic.value.DoubleValue
9.318

@<SCITEGIC>MOL_PROPERTY
W
SciTegic.value.DoubleValue
-59.594

@<SCITEGIC>MOL_PROPERTY
W(PB)
SciTegic.value.DoubleValue
-62.048

@<SCITEGIC>MOL_PROPERTY
W(SA)
SciTegic.value.DoubleValue
2.454

@<SCITEGIC>MOL_PROPERTY
Valence
SciTegic.value.DoubleValue
8.828

@<SCITEGIC>MOL_PROPERTY
Coulomb
SciTegic.value.DoubleValue
-0.523

@<SCITEGIC>MOL_PROPERTY
VdW
SciTegic.value.DoubleValue
1.014

@<SCITEGIC>MOL_PROPERTY
VdW6
SciTegic.value.DoubleValue
-9.806

@<SCITEGIC>MOL_PROPERTY
VdW12
SciTegic.value.DoubleValue
10.819

@<SCITEGIC>MOL_PROPERTY
Bond
SciTegic.value.DoubleValue
0.208

@<SCITEGIC>MOL_PROPERTY
Angle
SciTegic.value.DoubleValue
2.883

@<SCITEGIC>MOL_PROPERTY
Pdih
SciTegic.value.DoubleValue
5.736

@<SCITEGIC>MOL_PROPERTY
Idih
SciTegic.value.DoubleValue
0.001

@<SCITEGIC>MOL_PROPERTY
Tether
SciTegic.value.DoubleValue
0.000

@<TRIPOS>MOLECULE
guest-8_vm2.mol2 : vm2 ligand conformer 59
          25          24           1
SMALL
USER_CHARGES
 
@<TRIPOS>ATOM
       1    C1      20.030338   19.411353   27.316326 C.2        1 MOL1         0.6168
       2    O1      21.073578   19.894974   27.709800 O.co2      1 MOL1        -0.6703
       3    O2      18.933774   19.828128   27.634064 O.co2      1 MOL1        -0.6703
       4    C2      20.098517   18.202631   26.387088 C.3        1 MOL1        -0.1963
       5    H1      19.380437   17.462784   26.759849 H          1 MOL1         0.0750
       6    H2      21.093898   17.750221   26.472851 H          1 MOL1         0.0750
       7    C3      19.783926   18.527371   24.903492 C.3        1 MOL1        -0.1860
       8    H3      19.705639   17.583128   24.349774 H          1 MOL1         0.0752
       9    H4      18.801920   19.016064   24.838172 H          1 MOL1         0.0752
      10    C4      20.861560   19.426092   24.250624 C.3        1 MOL1        -0.1858
      11    H5      21.835183   18.918209   24.280058 H          1 MOL1         0.0752
      12    H6      20.973979   20.344102   24.843570 H          1 MOL1         0.0752
      13    C5      20.528562   19.825817   22.793431 C.3        1 MOL1        -0.1858
      14    H7      19.560809   20.343899   22.774003 H          1 MOL1         0.0752
      15    H8      21.278426   20.552080   22.451670 H          1 MOL1         0.0752
      16    C6      20.507724   18.625797   21.815069 C.3        1 MOL1        -0.1858
      17    H9      19.678992   17.950477   22.064430 H          1 MOL1         0.0752
      18    H10     21.432517   18.046182   21.939290 H          1 MOL1         0.0752
      19    C7      20.387013   19.048270   20.332339 C.3        1 MOL1        -0.1834
      20    H11     21.222355   19.710364   20.065681 H          1 MOL1         0.0752
      21    H12     20.486321   18.154257   19.701403 H          1 MOL1         0.0752
      22    C8      19.048008   19.743568   20.003765 C.3        1 MOL1        -0.2849
      23    H13     18.975071   19.947625   18.927699 H          1 MOL1         0.0764
      24    H14     18.196929   19.110379   20.286349 H          1 MOL1         0.0764
      25    H15     18.954601   20.701360   20.530775 H          1 MOL1         0.0764
@<TRIPOS>BOND
    1     1     2    1
    2     1     3    2
    3     1     4    1
    4     4     5    1
    5     4     6    1
    6     4     7    1
    7     7     8    1
    8     7     9    1
    9     7    10    1
   10    10    11    1
   11    10    12    1
   12    10    13    1
   13    13    14    1
   14    13    15    1
   15    13    16    1
   16    16    17    1
   17    16    18    1
   18    16    19    1
   19    19    20    1
   20    19    21    1
   21    19    22    1
   22    22    23    1
   23    22    24    1
   24    22    25    1
@<TRIPOS>SUBSTRUCTURE
       1 MOL1            1 RESIDUE      1      MOL     
@<SCITEGIC>MOL_PROPERTY
VM2 Rank
SciTegic.value.IntegerValue
59

@<SCITEGIC>MOL_PROPERTY
Conf_Id
SciTegic.value.IntegerValue
279

@<SCITEGIC>MOL_PROPERTY
Probability
SciTegic.value.DoubleValue
0.10

@<SCITEGIC>MOL_PROPERTY
Sum Probability
SciTegic.value.DoubleValue
97.38

@<SCITEGIC>MOL_PROPERTY
Delta G
SciTegic.value.DoubleValue
3.221

@<SCITEGIC>MOL_PROPERTY
G
SciTegic.value.DoubleValue
-4.741

@<SCITEGIC>MOL_PROPERTY
E
SciTegic.value.DoubleValue
-29.700

@<SCITEGIC>MOL_PROPERTY
-TS
SciTegic.value.DoubleValue
24.959

@<SCITEGIC>MOL_PROPERTY
U+W
SciTegic.value.DoubleValue
-50.268

@<SCITEGIC>MOL_PROPERTY
U
SciTegic.value.DoubleValue
9.318

@<SCITEGIC>MOL_PROPERTY
W
SciTegic.value.DoubleValue
-59.585

@<SCITEGIC>MOL_PROPERTY
W(PB)
SciTegic.value.DoubleValue
-62.043

@<SCITEGIC>MOL_PROPERTY
W(SA)
SciTegic.value.DoubleValue
2.458

@<SCITEGIC>MOL_PROPERTY
Valence
SciTegic.value.DoubleValue
8.828

@<SCITEGIC>MOL_PROPERTY
Coulomb
SciTegic.value.DoubleValue
-0.524

@<SCITEGIC>MOL_PROPERTY
VdW
SciTegic.value.DoubleValue
1.014

@<SCITEGIC>MOL_PROPERTY
VdW6
SciTegic.value.DoubleValue
-9.805

@<SCITEGIC>MOL_PROPERTY
VdW12
SciTegic.value.DoubleValue
10.819

@<SCITEGIC>MOL_PROPERTY
Bond
SciTegic.value.DoubleValue
0.208

@<SCITEGIC>MOL_PROPERTY
Angle
SciTegic.value.DoubleValue
2.883

@<SCITEGIC>MOL_PROPERTY
Pdih
SciTegic.value.DoubleValue
5.736

@<SCITEGIC>MOL_PROPERTY
Idih
SciTegic.value.DoubleValue
0.000

@<SCITEGIC>MOL_PROPERTY
Tether
SciTegic.value.DoubleValue
0.000

@<TRIPOS>MOLECULE
guest-8_vm2.mol2 : vm2 ligand conformer 60
          25          24           1
SMALL
USER_CHARGES
 
@<TRIPOS>ATOM
       1    C1      20.129980   19.613134   27.178567 C.2        1 MOL1         0.6168
       2    O1      21.243837   20.016699   27.449712 O.co2      1 MOL1        -0.6703
       3    O2      19.116310   20.255337   27.371309 O.co2      1 MOL1        -0.6703
       4    C2      19.992614   18.215108   26.582240 C.3        1 MOL1        -0.1963
       5    H1      19.174048   17.711885   27.110154 H          1 MOL1         0.0750
       6    H2      20.906496   17.649803   26.801383 H          1 MOL1         0.0750
       7    C3      19.708733   18.206554   25.057669 C.3        1 MOL1        -0.1860
       8    H3      19.496829   17.176738   24.740139 H          1 MOL1         0.0752
       9    H4      18.801086   18.792633   24.862701 H          1 MOL1         0.0752
      10    C4      20.894010   18.762276   24.232111 C.3        1 MOL1        -0.1858
      11    H5      21.807962   18.222012   24.514337 H          1 MOL1         0.0752
      12    H6      21.066885   19.816501   24.489063 H          1 MOL1         0.0752
      13    C5      20.699449   18.629694   22.702651 C.3        1 MOL1        -0.1858
      14    H7      21.641896   18.910807   22.215869 H          1 MOL1         0.0752
      15    H8      20.517147   17.577743   22.444417 H          1 MOL1         0.0752
      16    C6      19.552552   19.510710   22.148591 C.3        1 MOL1        -0.1858
      17    H9      19.733617   20.562116   22.410204 H          1 MOL1         0.0752
      18    H10     18.608619   19.227772   22.631290 H          1 MOL1         0.0752
      19    C7      19.363914   19.383251   20.618685 C.3        1 MOL1        -0.1834
      20    H11     19.193827   18.330986   20.352048 H          1 MOL1         0.0752
      21    H12     18.453547   19.926851   20.330638 H          1 MOL1         0.0752
      22    C8      20.551600   19.941237   19.804464 C.3        1 MOL1        -0.2849
      23    H13     21.462094   19.351035   19.965927 H          1 MOL1         0.0764
      24    H14     20.326077   19.915118   18.730518 H          1 MOL1         0.0764
      25    H15     20.762162   20.982794   20.080023 H          1 MOL1         0.0764
@<TRIPOS>BOND
    1     1     2    1
    2     1     3    2
    3     1     4    1
    4     4     5    1
    5     4     6    1
    6     4     7    1
    7     7     8    1
    8     7     9    1
    9     7    10    1
   10    10    11    1
   11    10    12    1
   12    10    13    1
   13    13    14    1
   14    13    15    1
   15    13    16    1
   16    16    17    1
   17    16    18    1
   18    16    19    1
   19    19    20    1
   20    19    21    1
   21    19    22    1
   22    22    23    1
   23    22    24    1
   24    22    25    1
@<TRIPOS>SUBSTRUCTURE
       1 MOL1            1 RESIDUE      1      MOL     
@<SCITEGIC>MOL_PROPERTY
VM2 Rank
SciTegic.value.IntegerValue
60

@<SCITEGIC>MOL_PROPERTY
Conf_Id
SciTegic.value.IntegerValue
163

@<SCITEGIC>MOL_PROPERTY
Probability
SciTegic.value.DoubleValue
0.10

@<SCITEGIC>MOL_PROPERTY
Sum Probability
SciTegic.value.DoubleValue
97.48

@<SCITEGIC>MOL_PROPERTY
Delta G
SciTegic.value.DoubleValue
3.222

@<SCITEGIC>MOL_PROPERTY
G
SciTegic.value.DoubleValue
-4.741

@<SCITEGIC>MOL_PROPERTY
E
SciTegic.value.DoubleValue
-29.609

@<SCITEGIC>MOL_PROPERTY
-TS
SciTegic.value.DoubleValue
24.868

@<SCITEGIC>MOL_PROPERTY
U+W
SciTegic.value.DoubleValue
-50.176

@<SCITEGIC>MOL_PROPERTY
U
SciTegic.value.DoubleValue
9.764

@<SCITEGIC>MOL_PROPERTY
W
SciTegic.value.DoubleValue
-59.940

@<SCITEGIC>MOL_PROPERTY
W(PB)
SciTegic.value.DoubleValue
-62.392

@<SCITEGIC>MOL_PROPERTY
W(SA)
SciTegic.value.DoubleValue
2.452

@<SCITEGIC>MOL_PROPERTY
Valence
SciTegic.value.DoubleValue
8.882

@<SCITEGIC>MOL_PROPERTY
Coulomb
SciTegic.value.DoubleValue
-0.122

@<SCITEGIC>MOL_PROPERTY
VdW
SciTegic.value.DoubleValue
1.003

@<SCITEGIC>MOL_PROPERTY
VdW6
SciTegic.value.DoubleValue
-9.782

@<SCITEGIC>MOL_PROPERTY
VdW12
SciTegic.value.DoubleValue
10.785

@<SCITEGIC>MOL_PROPERTY
Bond
SciTegic.value.DoubleValue
0.212

@<SCITEGIC>MOL_PROPERTY
Angle
SciTegic.value.DoubleValue
2.941

@<SCITEGIC>MOL_PROPERTY
Pdih
SciTegic.value.DoubleValue
5.730

@<SCITEGIC>MOL_PROPERTY
Idih
SciTegic.value.DoubleValue
0.001

@<SCITEGIC>MOL_PROPERTY
Tether
SciTegic.value.DoubleValue
0.000

@<TRIPOS>MOLECULE
guest-8_vm2.mol2 : vm2 ligand conformer 61
          25          24           1
SMALL
USER_CHARGES
 
@<TRIPOS>ATOM
       1    C1      20.280627   19.485676   27.194271 C.2        1 MOL1         0.6168
       2    O1      21.306054   20.120674   27.343865 O.co2      1 MOL1        -0.6703
       3    O2      19.199916   19.842909   27.620323 O.co2      1 MOL1        -0.6703
       4    C2      20.360438   18.156956   26.447897 C.3        1 MOL1        -0.1963
       5    H1      19.477514   17.558550   26.703092 H          1 MOL1         0.0750
       6    H2      21.232661   17.615833   26.833102 H          1 MOL1         0.0750
       7    C3      20.481216   18.306051   24.909049 C.3        1 MOL1        -0.1860
       8    H3      21.359192   18.924196   24.679165 H          1 MOL1         0.0752
       9    H4      20.664499   17.317107   24.467833 H          1 MOL1         0.0752
      10    C4      19.212449   18.922072   24.272376 C.3        1 MOL1        -0.1858
      11    H5      19.058282   19.939639   24.657148 H          1 MOL1         0.0752
      12    H6      18.336035   18.337754   24.584256 H          1 MOL1         0.0752
      13    C5      19.255907   18.956599   22.726182 C.3        1 MOL1        -0.1858
      14    H7      19.389656   17.935477   22.345815 H          1 MOL1         0.0752
      15    H8      18.280555   19.302097   22.357591 H          1 MOL1         0.0752
      16    C6      20.363408   19.881311   22.164238 C.3        1 MOL1        -0.1858
      17    H9      21.353395   19.480561   22.418163 H          1 MOL1         0.0752
      18    H10     20.289765   20.863960   22.649727 H          1 MOL1         0.0752
      19    C7      20.275158   20.080427   20.633201 C.3        1 MOL1        -0.1834
      20    H11     19.294069   20.498741   20.369109 H          1 MOL1         0.0752
      21    H12     21.022255   20.827150   20.330793 H          1 MOL1         0.0752
      22    C8      20.517827   18.781325   19.834598 C.3        1 MOL1        -0.2849
      23    H13     21.482412   18.330427   20.101779 H          1 MOL1         0.0764
      24    H14     19.728548   18.042732   20.022573 H          1 MOL1         0.0764
      25    H15     20.528736   18.989341   18.756875 H          1 MOL1         0.0764
@<TRIPOS>BOND
    1     1     2    1
    2     1     3    2
    3     1     4    1
    4     4     5    1
    5     4     6    1
    6     4     7    1
    7     7     8    1
    8     7     9    1
    9     7    10    1
   10    10    11    1
   11    10    12    1
   12    10    13    1
   13    13    14    1
   14    13    15    1
   15    13    16    1
   16    16    17    1
   17    16    18    1
   18    16    19    1
   19    19    20    1
   20    19    21    1
   21    19    22    1
   22    22    23    1
   23    22    24    1
   24    22    25    1
@<TRIPOS>SUBSTRUCTURE
       1 MOL1            1 RESIDUE      1      MOL     
@<SCITEGIC>MOL_PROPERTY
VM2 Rank
SciTegic.value.IntegerValue
61

@<SCITEGIC>MOL_PROPERTY
Conf_Id
SciTegic.value.IntegerValue
1254

@<SCITEGIC>MOL_PROPERTY
Probability
SciTegic.value.DoubleValue
0.10

@<SCITEGIC>MOL_PROPERTY
Sum Probability
SciTegic.value.DoubleValue
97.58

@<SCITEGIC>MOL_PROPERTY
Delta G
SciTegic.value.DoubleValue
3.239

@<SCITEGIC>MOL_PROPERTY
G
SciTegic.value.DoubleValue
-4.723

@<SCITEGIC>MOL_PROPERTY
E
SciTegic.value.DoubleValue
-29.671

@<SCITEGIC>MOL_PROPERTY
-TS
SciTegic.value.DoubleValue
24.948

@<SCITEGIC>MOL_PROPERTY
U+W
SciTegic.value.DoubleValue
-50.239

@<SCITEGIC>MOL_PROPERTY
U
SciTegic.value.DoubleValue
9.530

@<SCITEGIC>MOL_PROPERTY
W
SciTegic.value.DoubleValue
-59.769

@<SCITEGIC>MOL_PROPERTY
W(PB)
SciTegic.value.DoubleValue
-62.236

@<SCITEGIC>MOL_PROPERTY
W(SA)
SciTegic.value.DoubleValue
2.468

@<SCITEGIC>MOL_PROPERTY
Valence
SciTegic.value.DoubleValue
8.779

@<SCITEGIC>MOL_PROPERTY
Coulomb
SciTegic.value.DoubleValue
-0.179

@<SCITEGIC>MOL_PROPERTY
VdW
SciTegic.value.DoubleValue
0.930

@<SCITEGIC>MOL_PROPERTY
VdW6
SciTegic.value.DoubleValue
-9.873

@<SCITEGIC>MOL_PROPERTY
VdW12
SciTegic.value.DoubleValue
10.803

@<SCITEGIC>MOL_PROPERTY
Bond
SciTegic.value.DoubleValue
0.204

@<SCITEGIC>MOL_PROPERTY
Angle
SciTegic.value.DoubleValue
2.848

@<SCITEGIC>MOL_PROPERTY
Pdih
SciTegic.value.DoubleValue
5.727

@<SCITEGIC>MOL_PROPERTY
Idih
SciTegic.value.DoubleValue
0.001

@<SCITEGIC>MOL_PROPERTY
Tether
SciTegic.value.DoubleValue
0.000

@<TRIPOS>MOLECULE
guest-8_vm2.mol2 : vm2 ligand conformer 62
          25          24           1
SMALL
USER_CHARGES
 
@<TRIPOS>ATOM
       1    C1      20.140979   19.613873   27.178451 C.2        1 MOL1         0.6168
       2    O1      21.069302   20.379527   27.349009 O.co2      1 MOL1        -0.6703
       3    O2      18.991463   19.873523   27.475532 O.co2      1 MOL1        -0.6703
       4    C2      20.440642   18.243656   26.577071 C.3        1 MOL1        -0.1963
       5    H1      19.611042   17.567425   26.816345 H          1 MOL1         0.0750
       6    H2      21.328296   17.848983   27.085287 H          1 MOL1         0.0750
       7    C3      20.688191   18.268918   25.046365 C.3        1 MOL1        -0.1860
       8    H3      21.509485   18.965054   24.831427 H          1 MOL1         0.0752
       9    H4      21.021590   17.273810   24.722551 H          1 MOL1         0.0752
      10    C4      19.423357   18.668669   24.249090 C.3        1 MOL1        -0.1858
      11    H5      19.124223   19.692873   24.511438 H          1 MOL1         0.0752
      12    H6      18.591988   18.017361   24.551522 H          1 MOL1         0.0752
      13    C5      19.597891   18.559484   22.715369 C.3        1 MOL1        -0.1858
      14    H7      19.905964   17.538702   22.451519 H          1 MOL1         0.0752
      15    H8      18.616478   18.718232   22.250815 H          1 MOL1         0.0752
      16    C6      20.610916   19.577815   22.136296 C.3        1 MOL1        -0.1858
      17    H9      21.593979   19.417307   22.596611 H          1 MOL1         0.0752
      18    H10     20.304323   20.598211   22.403638 H          1 MOL1         0.0752
      19    C7      20.778722   19.473107   20.602244 C.3        1 MOL1        -0.1834
      20    H11     21.606191   20.126993   20.294075 H          1 MOL1         0.0752
      21    H12     21.074201   18.450406   20.330102 H          1 MOL1         0.0752
      22    C8      19.511537   19.875428   19.816571 C.3        1 MOL1        -0.2849
      23    H13     19.177550   20.882448   20.098485 H          1 MOL1         0.0764
      24    H14     19.713626   19.876453   18.737656 H          1 MOL1         0.0764
      25    H15     18.686859   19.175195   19.998189 H          1 MOL1         0.0764
@<TRIPOS>BOND
    1     1     2    1
    2     1     3    2
    3     1     4    1
    4     4     5    1
    5     4     6    1
    6     4     7    1
    7     7     8    1
    8     7     9    1
    9     7    10    1
   10    10    11    1
   11    10    12    1
   12    10    13    1
   13    13    14    1
   14    13    15    1
   15    13    16    1
   16    16    17    1
   17    16    18    1
   18    16    19    1
   19    19    20    1
   20    19    21    1
   21    19    22    1
   22    22    23    1
   23    22    24    1
   24    22    25    1
@<TRIPOS>SUBSTRUCTURE
       1 MOL1            1 RESIDUE      1      MOL     
@<SCITEGIC>MOL_PROPERTY
VM2 Rank
SciTegic.value.IntegerValue
62

@<SCITEGIC>MOL_PROPERTY
Conf_Id
SciTegic.value.IntegerValue
1091

@<SCITEGIC>MOL_PROPERTY
Probability
SciTegic.value.DoubleValue
0.10

@<SCITEGIC>MOL_PROPERTY
Sum Probability
SciTegic.value.DoubleValue
97.68

@<SCITEGIC>MOL_PROPERTY
Delta G
SciTegic.value.DoubleValue
3.247

@<SCITEGIC>MOL_PROPERTY
G
SciTegic.value.DoubleValue
-4.715

@<SCITEGIC>MOL_PROPERTY
E
SciTegic.value.DoubleValue
-29.583

@<SCITEGIC>MOL_PROPERTY
-TS
SciTegic.value.DoubleValue
24.867

@<SCITEGIC>MOL_PROPERTY
U+W
SciTegic.value.DoubleValue
-50.150

@<SCITEGIC>MOL_PROPERTY
U
SciTegic.value.DoubleValue
9.763

@<SCITEGIC>MOL_PROPERTY
W
SciTegic.value.DoubleValue
-59.914

@<SCITEGIC>MOL_PROPERTY
W(PB)
SciTegic.value.DoubleValue
-62.382

@<SCITEGIC>MOL_PROPERTY
W(SA)
SciTegic.value.DoubleValue
2.468

@<SCITEGIC>MOL_PROPERTY
Valence
SciTegic.value.DoubleValue
8.883

@<SCITEGIC>MOL_PROPERTY
Coulomb
SciTegic.value.DoubleValue
-0.122

@<SCITEGIC>MOL_PROPERTY
VdW
SciTegic.value.DoubleValue
1.003

@<SCITEGIC>MOL_PROPERTY
VdW6
SciTegic.value.DoubleValue
-9.782

@<SCITEGIC>MOL_PROPERTY
VdW12
SciTegic.value.DoubleValue
10.785

@<SCITEGIC>MOL_PROPERTY
Bond
SciTegic.value.DoubleValue
0.212

@<SCITEGIC>MOL_PROPERTY
Angle
SciTegic.value.DoubleValue
2.941

@<SCITEGIC>MOL_PROPERTY
Pdih
SciTegic.value.DoubleValue
5.730

@<SCITEGIC>MOL_PROPERTY
Idih
SciTegic.value.DoubleValue
0.001

@<SCITEGIC>MOL_PROPERTY
Tether
SciTegic.value.DoubleValue
0.000

@<TRIPOS>MOLECULE
guest-8_vm2.mol2 : vm2 ligand conformer 63
          25          24           1
SMALL
USER_CHARGES
 
@<TRIPOS>ATOM
       1    C1      20.200481   19.178163   27.362638 C.2        1 MOL1         0.6168
       2    O1      21.317882   19.404822   27.783533 O.co2      1 MOL1        -0.6703
       3    O2      19.556284   18.191997   27.661865 O.co2      1 MOL1        -0.6703
       4    C2      19.566341   20.198077   26.420921 C.3        1 MOL1        -0.1963
       5    H1      19.735228   21.191279   26.853350 H          1 MOL1         0.0750
       6    H2      18.481522   20.037270   26.409111 H          1 MOL1         0.0750
       7    C3      20.129035   20.160234   24.976066 C.3        1 MOL1        -0.1860
       8    H3      19.730098   21.021836   24.426253 H          1 MOL1         0.0752
       9    H4      21.220702   20.281315   25.007700 H          1 MOL1         0.0752
      10    C4      19.767390   18.851898   24.232148 C.3        1 MOL1        -0.1858
      11    H5      18.675480   18.754611   24.161107 H          1 MOL1         0.0752
      12    H6      20.115660   17.994373   24.824042 H          1 MOL1         0.0752
      13    C5      20.390375   18.749846   22.819199 C.3        1 MOL1        -0.1858
      14    H7      21.480389   18.866548   22.888674 H          1 MOL1         0.0752
      15    H8      20.209711   17.735059   22.442716 H          1 MOL1         0.0752
      16    C6      19.816652   19.779254   21.814215 C.3        1 MOL1        -0.1858
      17    H9      20.002128   20.795109   22.185034 H          1 MOL1         0.0752
      18    H10     18.726110   19.665088   21.748645 H          1 MOL1         0.0752
      19    C7      20.434149   19.667334   20.400475 C.3        1 MOL1        -0.1834
      20    H11     20.078976   20.512103   19.794288 H          1 MOL1         0.0752
      21    H12     21.526411   19.768849   20.463394 H          1 MOL1         0.0752
      22    C8      20.074411   18.352374   19.674941 C.3        1 MOL1        -0.2849
      23    H13     18.986448   18.212657   19.631058 H          1 MOL1         0.0764
      24    H14     20.454806   18.366199   18.645372 H          1 MOL1         0.0764
      25    H15     20.513758   17.482376   20.178411 H          1 MOL1         0.0764
@<TRIPOS>BOND
    1     1     2    1
    2     1     3    2
    3     1     4    1
    4     4     5    1
    5     4     6    1
    6     4     7    1
    7     7     8    1
    8     7     9    1
    9     7    10    1
   10    10    11    1
   11    10    12    1
   12    10    13    1
   13    13    14    1
   14    13    15    1
   15    13    16    1
   16    16    17    1
   17    16    18    1
   18    16    19    1
   19    19    20    1
   20    19    21    1
   21    19    22    1
   22    22    23    1
   23    22    24    1
   24    22    25    1
@<TRIPOS>SUBSTRUCTURE
       1 MOL1            1 RESIDUE      1      MOL     
@<SCITEGIC>MOL_PROPERTY
VM2 Rank
SciTegic.value.IntegerValue
63

@<SCITEGIC>MOL_PROPERTY
Conf_Id
SciTegic.value.IntegerValue
928

@<SCITEGIC>MOL_PROPERTY
Probability
SciTegic.value.DoubleValue
0.10

@<SCITEGIC>MOL_PROPERTY
Sum Probability
SciTegic.value.DoubleValue
97.78

@<SCITEGIC>MOL_PROPERTY
Delta G
SciTegic.value.DoubleValue
3.248

@<SCITEGIC>MOL_PROPERTY
G
SciTegic.value.DoubleValue
-4.714

@<SCITEGIC>MOL_PROPERTY
E
SciTegic.value.DoubleValue
-29.585

@<SCITEGIC>MOL_PROPERTY
-TS
SciTegic.value.DoubleValue
24.871

@<SCITEGIC>MOL_PROPERTY
U+W
SciTegic.value.DoubleValue
-50.153

@<SCITEGIC>MOL_PROPERTY
U
SciTegic.value.DoubleValue
9.417

@<SCITEGIC>MOL_PROPERTY
W
SciTegic.value.DoubleValue
-59.570

@<SCITEGIC>MOL_PROPERTY
W(PB)
SciTegic.value.DoubleValue
-62.047

@<SCITEGIC>MOL_PROPERTY
W(SA)
SciTegic.value.DoubleValue
2.477

@<SCITEGIC>MOL_PROPERTY
Valence
SciTegic.value.DoubleValue
8.939

@<SCITEGIC>MOL_PROPERTY
Coulomb
SciTegic.value.DoubleValue
-0.614

@<SCITEGIC>MOL_PROPERTY
VdW
SciTegic.value.DoubleValue
1.091

@<SCITEGIC>MOL_PROPERTY
VdW6
SciTegic.value.DoubleValue
-9.711

@<SCITEGIC>MOL_PROPERTY
VdW12
SciTegic.value.DoubleValue
10.802

@<SCITEGIC>MOL_PROPERTY
Bond
SciTegic.value.DoubleValue
0.216

@<SCITEGIC>MOL_PROPERTY
Angle
SciTegic.value.DoubleValue
2.979

@<SCITEGIC>MOL_PROPERTY
Pdih
SciTegic.value.DoubleValue
5.743

@<SCITEGIC>MOL_PROPERTY
Idih
SciTegic.value.DoubleValue
0.000

@<SCITEGIC>MOL_PROPERTY
Tether
SciTegic.value.DoubleValue
0.000

@<TRIPOS>MOLECULE
guest-8_vm2.mol2 : vm2 ligand conformer 64
          25          24           1
SMALL
USER_CHARGES
 
@<TRIPOS>ATOM
       1    C1      20.088783   19.418163   27.359774 C.2        1 MOL1         0.6168
       2    O1      20.978307   20.134522   27.775330 O.co2      1 MOL1        -0.6703
       3    O2      18.916894   19.566416   27.645691 O.co2      1 MOL1        -0.6703
       4    C2      20.468649   18.258191   26.443610 C.3        1 MOL1        -0.1963
       5    H1      19.646837   17.531949   26.438377 H          1 MOL1         0.0750
       6    H2      21.333093   17.755972   26.893588 H          1 MOL1         0.0750
       7    C3      20.815261   18.685061   24.993333 C.3        1 MOL1        -0.1860
       8    H3      21.610938   19.442497   25.017546 H          1 MOL1         0.0752
       9    H4      21.222040   17.814455   24.463825 H          1 MOL1         0.0752
      10    C4      19.588432   19.236844   24.227582 C.3        1 MOL1        -0.1858
      11    H5      19.151698   20.066855   24.799704 H          1 MOL1         0.0752
      12    H6      18.811179   18.463108   24.164415 H          1 MOL1         0.0752
      13    C5      19.924459   19.751807   22.807423 C.3        1 MOL1        -0.1858
      14    H7      19.035277   20.259661   22.412949 H          1 MOL1         0.0752
      15    H8      20.715098   20.511820   22.869434 H          1 MOL1         0.0752
      16    C6      20.351587   18.630797   21.827765 C.3        1 MOL1        -0.1858
      17    H9      19.562713   17.868591   21.770012 H          1 MOL1         0.0752
      18    H10     21.244985   18.126135   22.216386 H          1 MOL1         0.0752
      19    C7      20.676012   19.147823   20.406527 C.3        1 MOL1        -0.1834
      20    H11     21.456132   19.919641   20.461387 H          1 MOL1         0.0752
      21    H12     21.099334   18.320683   19.820112 H          1 MOL1         0.0752
      22    C8      19.444617   19.704376   19.658964 C.3        1 MOL1        -0.2849
      23    H13     19.057046   20.610144   20.141430 H          1 MOL1         0.0764
      24    H14     19.709221   19.966534   18.626413 H          1 MOL1         0.0764
      25    H15     18.637877   18.960776   19.622346 H          1 MOL1         0.0764
@<TRIPOS>BOND
    1     1     2    1
    2     1     3    2
    3     1     4    1
    4     4     5    1
    5     4     6    1
    6     4     7    1
    7     7     8    1
    8     7     9    1
    9     7    10    1
   10    10    11    1
   11    10    12    1
   12    10    13    1
   13    13    14    1
   14    13    15    1
   15    13    16    1
   16    16    17    1
   17    16    18    1
   18    16    19    1
   19    19    20    1
   20    19    21    1
   21    19    22    1
   22    22    23    1
   23    22    24    1
   24    22    25    1
@<TRIPOS>SUBSTRUCTURE
       1 MOL1            1 RESIDUE      1      MOL     
@<SCITEGIC>MOL_PROPERTY
VM2 Rank
SciTegic.value.IntegerValue
64

@<SCITEGIC>MOL_PROPERTY
Conf_Id
SciTegic.value.IntegerValue
408

@<SCITEGIC>MOL_PROPERTY
Probability
SciTegic.value.DoubleValue
0.10

@<SCITEGIC>MOL_PROPERTY
Sum Probability
SciTegic.value.DoubleValue
97.88

@<SCITEGIC>MOL_PROPERTY
Delta G
SciTegic.value.DoubleValue
3.259

@<SCITEGIC>MOL_PROPERTY
G
SciTegic.value.DoubleValue
-4.703

@<SCITEGIC>MOL_PROPERTY
E
SciTegic.value.DoubleValue
-29.574

@<SCITEGIC>MOL_PROPERTY
-TS
SciTegic.value.DoubleValue
24.871

@<SCITEGIC>MOL_PROPERTY
U+W
SciTegic.value.DoubleValue
-50.142

@<SCITEGIC>MOL_PROPERTY
U
SciTegic.value.DoubleValue
9.416

@<SCITEGIC>MOL_PROPERTY
W
SciTegic.value.DoubleValue
-59.558

@<SCITEGIC>MOL_PROPERTY
W(PB)
SciTegic.value.DoubleValue
-62.022

@<SCITEGIC>MOL_PROPERTY
W(SA)
SciTegic.value.DoubleValue
2.464

@<SCITEGIC>MOL_PROPERTY
Valence
SciTegic.value.DoubleValue
8.939

@<SCITEGIC>MOL_PROPERTY
Coulomb
SciTegic.value.DoubleValue
-0.614

@<SCITEGIC>MOL_PROPERTY
VdW
SciTegic.value.DoubleValue
1.092

@<SCITEGIC>MOL_PROPERTY
VdW6
SciTegic.value.DoubleValue
-9.710

@<SCITEGIC>MOL_PROPERTY
VdW12
SciTegic.value.DoubleValue
10.802

@<SCITEGIC>MOL_PROPERTY
Bond
SciTegic.value.DoubleValue
0.216

@<SCITEGIC>MOL_PROPERTY
Angle
SciTegic.value.DoubleValue
2.979

@<SCITEGIC>MOL_PROPERTY
Pdih
SciTegic.value.DoubleValue
5.743

@<SCITEGIC>MOL_PROPERTY
Idih
SciTegic.value.DoubleValue
0.000

@<SCITEGIC>MOL_PROPERTY
Tether
SciTegic.value.DoubleValue
0.000

@<TRIPOS>MOLECULE
guest-8_vm2.mol2 : vm2 ligand conformer 65
          25          24           1
SMALL
USER_CHARGES
 
@<TRIPOS>ATOM
       1    C1      19.853470   19.407272   27.102246 C.2        1 MOL1         0.6168
       2    O1      20.735491   19.875569   27.794991 O.co2      1 MOL1        -0.6703
       3    O2      18.745225   19.896036   27.002773 O.co2      1 MOL1        -0.6703
       4    C2      20.149588   18.123301   26.332331 C.3        1 MOL1        -0.1963
       5    H1      19.197880   17.657889   26.048633 H          1 MOL1         0.0750
       6    H2      20.646670   17.433307   27.024247 H          1 MOL1         0.0750
       7    C3      21.038967   18.330527   25.078910 C.3        1 MOL1        -0.1860
       8    H3      21.976732   18.820809   25.375203 H          1 MOL1         0.0752
       9    H4      21.311201   17.348663   24.668615 H          1 MOL1         0.0752
      10    C4      20.336210   19.162613   23.982703 C.3        1 MOL1        -0.1858
      11    H5      20.080613   20.155477   24.377574 H          1 MOL1         0.0752
      12    H6      19.391797   18.673513   23.710620 H          1 MOL1         0.0752
      13    C5      21.225937   19.321408   22.728333 C.3        1 MOL1        -0.1858
      14    H7      22.195181   19.741226   23.029952 H          1 MOL1         0.0752
      15    H8      21.442421   18.334403   22.299152 H          1 MOL1         0.0752
      16    C6      20.610857   20.245050   21.646739 C.3        1 MOL1        -0.1858
      17    H9      21.326851   20.343646   20.819531 H          1 MOL1         0.0752
      18    H10     20.492213   21.253291   22.066372 H          1 MOL1         0.0752
      19    C7      19.248392   19.780044   21.075446 C.3        1 MOL1        -0.1834
      20    H11     18.487533   19.774668   21.867125 H          1 MOL1         0.0752
      21    H12     18.909876   20.517787   20.335061 H          1 MOL1         0.0752
      22    C8      19.308863   18.392181   20.401528 C.3        1 MOL1        -0.2849
      23    H13     19.531232   17.604023   21.131884 H          1 MOL1         0.0764
      24    H14     18.345973   18.149901   19.933653 H          1 MOL1         0.0764
      25    H15     20.080516   18.367495   19.621201 H          1 MOL1         0.0764
@<TRIPOS>BOND
    1     1     2    1
    2     1     3    2
    3     1     4    1
    4     4     5    1
    5     4     6    1
    6     4     7    1
    7     7     8    1
    8     7     9    1
    9     7    10    1
   10    10    11    1
   11    10    12    1
   12    10    13    1
   13    13    14    1
   14    13    15    1
   15    13    16    1
   16    16    17    1
   17    16    18    1
   18    16    19    1
   19    19    20    1
   20    19    21    1
   21    19    22    1
   22    22    23    1
   23    22    24    1
   24    22    25    1
@<TRIPOS>SUBSTRUCTURE
       1 MOL1            1 RESIDUE      1      MOL     
@<SCITEGIC>MOL_PROPERTY
VM2 Rank
SciTegic.value.IntegerValue
65

@<SCITEGIC>MOL_PROPERTY
Conf_Id
SciTegic.value.IntegerValue
1004

@<SCITEGIC>MOL_PROPERTY
Probability
SciTegic.value.DoubleValue
0.09

@<SCITEGIC>MOL_PROPERTY
Sum Probability
SciTegic.value.DoubleValue
97.97

@<SCITEGIC>MOL_PROPERTY
Delta G
SciTegic.value.DoubleValue
3.298

@<SCITEGIC>MOL_PROPERTY
G
SciTegic.value.DoubleValue
-4.664

@<SCITEGIC>MOL_PROPERTY
E
SciTegic.value.DoubleValue
-29.775

@<SCITEGIC>MOL_PROPERTY
-TS
SciTegic.value.DoubleValue
25.111

@<SCITEGIC>MOL_PROPERTY
U+W
SciTegic.value.DoubleValue
-50.342

@<SCITEGIC>MOL_PROPERTY
U
SciTegic.value.DoubleValue
9.796

@<SCITEGIC>MOL_PROPERTY
W
SciTegic.value.DoubleValue
-60.138

@<SCITEGIC>MOL_PROPERTY
W(PB)
SciTegic.value.DoubleValue
-62.574

@<SCITEGIC>MOL_PROPERTY
W(SA)
SciTegic.value.DoubleValue
2.436

@<SCITEGIC>MOL_PROPERTY
Valence
SciTegic.value.DoubleValue
8.738

@<SCITEGIC>MOL_PROPERTY
Coulomb
SciTegic.value.DoubleValue
0.242

@<SCITEGIC>MOL_PROPERTY
VdW
SciTegic.value.DoubleValue
0.816

@<SCITEGIC>MOL_PROPERTY
VdW6
SciTegic.value.DoubleValue
-10.096

@<SCITEGIC>MOL_PROPERTY
VdW12
SciTegic.value.DoubleValue
10.912

@<SCITEGIC>MOL_PROPERTY
Bond
SciTegic.value.DoubleValue
0.210

@<SCITEGIC>MOL_PROPERTY
Angle
SciTegic.value.DoubleValue
3.062

@<SCITEGIC>MOL_PROPERTY
Pdih
SciTegic.value.DoubleValue
5.466

@<SCITEGIC>MOL_PROPERTY
Idih
SciTegic.value.DoubleValue
0.001

@<SCITEGIC>MOL_PROPERTY
Tether
SciTegic.value.DoubleValue
0.000

@<TRIPOS>MOLECULE
guest-8_vm2.mol2 : vm2 ligand conformer 66
          25          24           1
SMALL
USER_CHARGES
 
@<TRIPOS>ATOM
       1    C1      20.186864   19.826380   26.866317 C.2        1 MOL1         0.6168
       2    O1      21.224621   20.449547   26.758114 O.co2      1 MOL1        -0.6703
       3    O2      19.133426   20.327556   27.207257 O.co2      1 MOL1        -0.6703
       4    C2      20.210537   18.327142   26.581754 C.3        1 MOL1        -0.1963
       5    H1      19.673955   17.830086   27.398423 H          1 MOL1         0.0750
       6    H2      21.249525   17.978743   26.625877 H          1 MOL1         0.0750
       7    C3      19.570521   17.932392   25.225451 C.3        1 MOL1        -0.1860
       8    H3      19.505209   16.837479   25.167678 H          1 MOL1         0.0752
       9    H4      18.540625   18.313518   25.184213 H          1 MOL1         0.0752
      10    C4      20.371850   18.460344   24.014218 C.3        1 MOL1        -0.1858
      11    H5      21.402969   18.084915   24.063649 H          1 MOL1         0.0752
      12    H6      20.427039   19.555707   24.066169 H          1 MOL1         0.0752
      13    C5      19.729091   18.033186   22.674543 C.3        1 MOL1        -0.1858
      14    H7      19.612523   16.940963   22.666784 H          1 MOL1         0.0752
      15    H8      18.715137   18.447663   22.601089 H          1 MOL1         0.0752
      16    C6      20.559283   18.442653   21.431772 C.3        1 MOL1        -0.1858
      17    H9      20.060503   18.056276   20.532565 H          1 MOL1         0.0752
      18    H10     21.535587   17.941074   21.475647 H          1 MOL1         0.0752
      19    C7      20.788699   19.964832   21.260500 C.3        1 MOL1        -0.1834
      20    H11     21.379069   20.355967   22.099711 H          1 MOL1         0.0752
      21    H12     21.397127   20.127409   20.360280 H          1 MOL1         0.0752
      22    C8      19.478107   20.769968   21.126074 C.3        1 MOL1        -0.2849
      23    H13     18.859187   20.379857   20.307719 H          1 MOL1         0.0764
      24    H14     18.890507   20.731541   22.052056 H          1 MOL1         0.0764
      25    H15     19.695182   21.824739   20.913732 H          1 MOL1         0.0764
@<TRIPOS>BOND
    1     1     2    1
    2     1     3    2
    3     1     4    1
    4     4     5    1
    5     4     6    1
    6     4     7    1
    7     7     8    1
    8     7     9    1
    9     7    10    1
   10    10    11    1
   11    10    12    1
   12    10    13    1
   13    13    14    1
   14    13    15    1
   15    13    16    1
   16    16    17    1
   17    16    18    1
   18    16    19    1
   19    19    20    1
   20    19    21    1
   21    19    22    1
   22    22    23    1
   23    22    24    1
   24    22    25    1
@<TRIPOS>SUBSTRUCTURE
       1 MOL1            1 RESIDUE      1      MOL     
@<SCITEGIC>MOL_PROPERTY
VM2 Rank
SciTegic.value.IntegerValue
66

@<SCITEGIC>MOL_PROPERTY
Conf_Id
SciTegic.value.IntegerValue
835

@<SCITEGIC>MOL_PROPERTY
Probability
SciTegic.value.DoubleValue
0.08

@<SCITEGIC>MOL_PROPERTY
Sum Probability
SciTegic.value.DoubleValue
98.05

@<SCITEGIC>MOL_PROPERTY
Delta G
SciTegic.value.DoubleValue
3.340

@<SCITEGIC>MOL_PROPERTY
G
SciTegic.value.DoubleValue
-4.622

@<SCITEGIC>MOL_PROPERTY
E
SciTegic.value.DoubleValue
-29.747

@<SCITEGIC>MOL_PROPERTY
-TS
SciTegic.value.DoubleValue
25.125

@<SCITEGIC>MOL_PROPERTY
U+W
SciTegic.value.DoubleValue
-50.314

@<SCITEGIC>MOL_PROPERTY
U
SciTegic.value.DoubleValue
10.400

@<SCITEGIC>MOL_PROPERTY
W
SciTegic.value.DoubleValue
-60.714

@<SCITEGIC>MOL_PROPERTY
W(PB)
SciTegic.value.DoubleValue
-63.153

@<SCITEGIC>MOL_PROPERTY
W(SA)
SciTegic.value.DoubleValue
2.439

@<SCITEGIC>MOL_PROPERTY
Valence
SciTegic.value.DoubleValue
8.736

@<SCITEGIC>MOL_PROPERTY
Coulomb
SciTegic.value.DoubleValue
0.892

@<SCITEGIC>MOL_PROPERTY
VdW
SciTegic.value.DoubleValue
0.772

@<SCITEGIC>MOL_PROPERTY
VdW6
SciTegic.value.DoubleValue
-10.163

@<SCITEGIC>MOL_PROPERTY
VdW12
SciTegic.value.DoubleValue
10.935

@<SCITEGIC>MOL_PROPERTY
Bond
SciTegic.value.DoubleValue
0.210

@<SCITEGIC>MOL_PROPERTY
Angle
SciTegic.value.DoubleValue
3.058

@<SCITEGIC>MOL_PROPERTY
Pdih
SciTegic.value.DoubleValue
5.467

@<SCITEGIC>MOL_PROPERTY
Idih
SciTegic.value.DoubleValue
0.001

@<SCITEGIC>MOL_PROPERTY
Tether
SciTegic.value.DoubleValue
0.000

@<TRIPOS>MOLECULE
guest-8_vm2.mol2 : vm2 ligand conformer 67
          25          24           1
SMALL
USER_CHARGES
 
@<TRIPOS>ATOM
       1    C1      20.439445   19.444618   27.095554 C.2        1 MOL1         0.6168
       2    O1      21.474042   20.070076   26.971457 O.co2      1 MOL1        -0.6703
       3    O2      19.521173   19.798057   27.809010 O.co2      1 MOL1        -0.6703
       4    C2      20.291293   18.132339   26.330694 C.3        1 MOL1        -0.1963
       5    H1      19.901977   17.385743   27.032805 H          1 MOL1         0.0750
       6    H2      21.287656   17.791256   26.024485 H          1 MOL1         0.0750
       7    C3      19.354201   18.223080   25.098367 C.3        1 MOL1        -0.1860
       8    H3      19.199544   17.213993   24.692982 H          1 MOL1         0.0752
       9    H4      18.368814   18.590683   25.416882 H          1 MOL1         0.0752
      10    C4      19.920152   19.136113   23.987523 C.3        1 MOL1        -0.1858
      11    H5      20.912503   18.770512   23.693010 H          1 MOL1         0.0752
      12    H6      20.056633   20.153958   24.377903 H          1 MOL1         0.0752
      13    C5      18.988782   19.178852   22.754233 C.3        1 MOL1        -0.1858
      14    H7      18.889489   18.171725   22.328703 H          1 MOL1         0.0752
      15    H8      17.981305   19.472692   23.078740 H          1 MOL1         0.0752
      16    C6      19.456544   20.171511   21.660106 C.3        1 MOL1        -0.1858
      17    H9      19.455968   21.187262   22.078396 H          1 MOL1         0.0752
      18    H10     18.714905   20.177270   20.849810 H          1 MOL1         0.0752
      19    C7      20.853425   19.882304   21.056782 C.3        1 MOL1        -0.1834
      20    H11     21.078414   20.655999   20.309919 H          1 MOL1         0.0752
      21    H12     21.626912   19.974595   21.830663 H          1 MOL1         0.0752
      22    C8      20.953943   18.497052   20.382275 C.3        1 MOL1        -0.2849
      23    H13     20.850311   17.688059   21.116340 H          1 MOL1         0.0764
      24    H14     20.173820   18.373594   19.619953 H          1 MOL1         0.0764
      25    H15     21.928707   18.378243   19.891884 H          1 MOL1         0.0764
@<TRIPOS>BOND
    1     1     2    1
    2     1     3    2
    3     1     4    1
    4     4     5    1
    5     4     6    1
    6     4     7    1
    7     7     8    1
    8     7     9    1
    9     7    10    1
   10    10    11    1
   11    10    12    1
   12    10    13    1
   13    13    14    1
   14    13    15    1
   15    13    16    1
   16    16    17    1
   17    16    18    1
   18    16    19    1
   19    19    20    1
   20    19    21    1
   21    19    22    1
   22    22    23    1
   23    22    24    1
   24    22    25    1
@<TRIPOS>SUBSTRUCTURE
       1 MOL1            1 RESIDUE      1      MOL     
@<SCITEGIC>MOL_PROPERTY
VM2 Rank
SciTegic.value.IntegerValue
67

@<SCITEGIC>MOL_PROPERTY
Conf_Id
SciTegic.value.IntegerValue
863

@<SCITEGIC>MOL_PROPERTY
Probability
SciTegic.value.DoubleValue
0.08

@<SCITEGIC>MOL_PROPERTY
Sum Probability
SciTegic.value.DoubleValue
98.14

@<SCITEGIC>MOL_PROPERTY
Delta G
SciTegic.value.DoubleValue
3.365

@<SCITEGIC>MOL_PROPERTY
G
SciTegic.value.DoubleValue
-4.598

@<SCITEGIC>MOL_PROPERTY
E
SciTegic.value.DoubleValue
-29.709

@<SCITEGIC>MOL_PROPERTY
-TS
SciTegic.value.DoubleValue
25.111

@<SCITEGIC>MOL_PROPERTY
U+W
SciTegic.value.DoubleValue
-50.276

@<SCITEGIC>MOL_PROPERTY
U
SciTegic.value.DoubleValue
9.796

@<SCITEGIC>MOL_PROPERTY
W
SciTegic.value.DoubleValue
-60.072

@<SCITEGIC>MOL_PROPERTY
W(PB)
SciTegic.value.DoubleValue
-62.519

@<SCITEGIC>MOL_PROPERTY
W(SA)
SciTegic.value.DoubleValue
2.448

@<SCITEGIC>MOL_PROPERTY
Valence
SciTegic.value.DoubleValue
8.738

@<SCITEGIC>MOL_PROPERTY
Coulomb
SciTegic.value.DoubleValue
0.242

@<SCITEGIC>MOL_PROPERTY
VdW
SciTegic.value.DoubleValue
0.816

@<SCITEGIC>MOL_PROPERTY
VdW6
SciTegic.value.DoubleValue
-10.096

@<SCITEGIC>MOL_PROPERTY
VdW12
SciTegic.value.DoubleValue
10.911

@<SCITEGIC>MOL_PROPERTY
Bond
SciTegic.value.DoubleValue
0.210

@<SCITEGIC>MOL_PROPERTY
Angle
SciTegic.value.DoubleValue
3.062

@<SCITEGIC>MOL_PROPERTY
Pdih
SciTegic.value.DoubleValue
5.466

@<SCITEGIC>MOL_PROPERTY
Idih
SciTegic.value.DoubleValue
0.001

@<SCITEGIC>MOL_PROPERTY
Tether
SciTegic.value.DoubleValue
0.000

@<TRIPOS>MOLECULE
guest-8_vm2.mol2 : vm2 ligand conformer 68
          25          24           1
SMALL
USER_CHARGES
 
@<TRIPOS>ATOM
       1    C1      20.274611   19.149306   27.216032 C.2        1 MOL1         0.6168
       2    O1      21.342398   19.655408   27.500256 O.co2      1 MOL1        -0.6703
       3    O2      19.248578   19.351291   27.835397 O.co2      1 MOL1        -0.6703
       4    C2      20.221123   18.191904   26.028762 C.3        1 MOL1        -0.1963
       5    H1      19.657467   17.307154   26.347240 H          1 MOL1         0.0750
       6    H2      21.240315   17.855077   25.803822 H          1 MOL1         0.0750
       7    C3      19.564407   18.794598   24.759579 C.3        1 MOL1        -0.1860
       8    H3      19.435127   17.992846   24.021287 H          1 MOL1         0.0752
       9    H4      18.559654   19.162998   25.008630 H          1 MOL1         0.0752
      10    C4      20.404511   19.937920   24.141661 C.3        1 MOL1        -0.1858
      11    H5      21.396235   19.559931   23.861087 H          1 MOL1         0.0752
      12    H6      20.580357   20.708806   24.904305 H          1 MOL1         0.0752
      13    C5      19.728665   20.611945   22.920901 C.3        1 MOL1        -0.1858
      14    H7      18.789076   21.077449   23.248244 H          1 MOL1         0.0752
      15    H8      20.368940   21.434622   22.574627 H          1 MOL1         0.0752
      16    C6      19.428202   19.674846   21.723705 C.3        1 MOL1        -0.1858
      17    H9      18.944077   20.267151   20.935351 H          1 MOL1         0.0752
      18    H10     18.698105   18.910028   22.018870 H          1 MOL1         0.0752
      19    C7      20.687578   18.996679   21.138872 C.3        1 MOL1        -0.1834
      20    H11     21.436188   19.760177   20.886419 H          1 MOL1         0.0752
      21    H12     21.142441   18.336597   21.889279 H          1 MOL1         0.0752
      22    C8      20.352926   18.170102   19.880834 C.3        1 MOL1        -0.2849
      23    H13     19.929005   18.806692   19.093219 H          1 MOL1         0.0764
      24    H14     21.256442   17.692223   19.480469 H          1 MOL1         0.0764
      25    H15     19.625980   17.380593   20.112272 H          1 MOL1         0.0764
@<TRIPOS>BOND
    1     1     2    1
    2     1     3    2
    3     1     4    1
    4     4     5    1
    5     4     6    1
    6     4     7    1
    7     7     8    1
    8     7     9    1
    9     7    10    1
   10    10    11    1
   11    10    12    1
   12    10    13    1
   13    13    14    1
   14    13    15    1
   15    13    16    1
   16    16    17    1
   17    16    18    1
   18    16    19    1
   19    19    20    1
   20    19    21    1
   21    19    22    1
   22    22    23    1
   23    22    24    1
   24    22    25    1
@<TRIPOS>SUBSTRUCTURE
       1 MOL1            1 RESIDUE      1      MOL     
@<SCITEGIC>MOL_PROPERTY
VM2 Rank
SciTegic.value.IntegerValue
68

@<SCITEGIC>MOL_PROPERTY
Conf_Id
SciTegic.value.IntegerValue
1272

@<SCITEGIC>MOL_PROPERTY
Probability
SciTegic.value.DoubleValue
0.08

@<SCITEGIC>MOL_PROPERTY
Sum Probability
SciTegic.value.DoubleValue
98.22

@<SCITEGIC>MOL_PROPERTY
Delta G
SciTegic.value.DoubleValue
3.371

@<SCITEGIC>MOL_PROPERTY
G
SciTegic.value.DoubleValue
-4.591

@<SCITEGIC>MOL_PROPERTY
E
SciTegic.value.DoubleValue
-29.743

@<SCITEGIC>MOL_PROPERTY
-TS
SciTegic.value.DoubleValue
25.152

@<SCITEGIC>MOL_PROPERTY
U+W
SciTegic.value.DoubleValue
-50.311

@<SCITEGIC>MOL_PROPERTY
U
SciTegic.value.DoubleValue
9.263

@<SCITEGIC>MOL_PROPERTY
W
SciTegic.value.DoubleValue
-59.574

@<SCITEGIC>MOL_PROPERTY
W(PB)
SciTegic.value.DoubleValue
-62.031

@<SCITEGIC>MOL_PROPERTY
W(SA)
SciTegic.value.DoubleValue
2.457

@<SCITEGIC>MOL_PROPERTY
Valence
SciTegic.value.DoubleValue
8.801

@<SCITEGIC>MOL_PROPERTY
Coulomb
SciTegic.value.DoubleValue
-0.375

@<SCITEGIC>MOL_PROPERTY
VdW
SciTegic.value.DoubleValue
0.837

@<SCITEGIC>MOL_PROPERTY
VdW6
SciTegic.value.DoubleValue
-10.171

@<SCITEGIC>MOL_PROPERTY
VdW12
SciTegic.value.DoubleValue
11.009

@<SCITEGIC>MOL_PROPERTY
Bond
SciTegic.value.DoubleValue
0.218

@<SCITEGIC>MOL_PROPERTY
Angle
SciTegic.value.DoubleValue
3.129

@<SCITEGIC>MOL_PROPERTY
Pdih
SciTegic.value.DoubleValue
5.454

@<SCITEGIC>MOL_PROPERTY
Idih
SciTegic.value.DoubleValue
0.000

@<SCITEGIC>MOL_PROPERTY
Tether
SciTegic.value.DoubleValue
0.000

@<TRIPOS>MOLECULE
guest-8_vm2.mol2 : vm2 ligand conformer 69
          25          24           1
SMALL
USER_CHARGES
 
@<TRIPOS>ATOM
       1    C1      20.249394   18.768226   26.882064 C.2        1 MOL1         0.6168
       2    O1      21.353401   18.268458   26.790505 O.co2      1 MOL1        -0.6703
       3    O2      19.261561   18.156942   27.239368 O.co2      1 MOL1        -0.6703
       4    C2      20.097056   20.250678   26.552847 C.3        1 MOL1        -0.1963
       5    H1      21.087777   20.720019   26.584696 H          1 MOL1         0.0750
       6    H2      19.504326   20.705318   27.355283 H          1 MOL1         0.0750
       7    C3      19.417404   20.526766   25.186518 C.3        1 MOL1        -0.1860
       8    H3      18.439548   20.026112   25.158529 H          1 MOL1         0.0752
       9    H4      19.223882   21.604185   25.096205 H          1 MOL1         0.0752
      10    C4      20.277347   20.060782   23.990148 C.3        1 MOL1        -0.1858
      11    H5      20.461003   18.981581   24.074771 H          1 MOL1         0.0752
      12    H6      21.257016   20.556292   24.026405 H          1 MOL1         0.0752
      13    C5      19.591023   20.368971   22.639479 C.3        1 MOL1        -0.1858
      14    H7      18.633026   19.836017   22.580380 H          1 MOL1         0.0752
      15    H8      19.346720   21.439154   22.599207 H          1 MOL1         0.0752
      16    C6      20.465691   20.022963   21.407976 C.3        1 MOL1        -0.1858
      17    H9      21.375995   20.637213   21.434824 H          1 MOL1         0.0752
      18    H10     19.926280   20.320591   20.498527 H          1 MOL1         0.0752
      19    C7      20.873224   18.533975   21.282146 C.3        1 MOL1        -0.1834
      20    H11     21.497819   18.417164   20.385903 H          1 MOL1         0.0752
      21    H12     21.504442   18.240697   22.131469 H          1 MOL1         0.0752
      22    C8      19.666899   17.576240   21.174949 C.3        1 MOL1        -0.2849
      23    H13     19.007410   17.865761   20.346575 H          1 MOL1         0.0764
      24    H14     20.007128   16.548491   20.994036 H          1 MOL1         0.0764
      25    H15     19.077608   17.573072   22.100650 H          1 MOL1         0.0764
@<TRIPOS>BOND
    1     1     2    1
    2     1     3    2
    3     1     4    1
    4     4     5    1
    5     4     6    1
    6     4     7    1
    7     7     8    1
    8     7     9    1
    9     7    10    1
   10    10    11    1
   11    10    12    1
   12    10    13    1
   13    13    14    1
   14    13    15    1
   15    13    16    1
   16    16    17    1
   17    16    18    1
   18    16    19    1
   19    19    20    1
   20    19    21    1
   21    19    22    1
   22    22    23    1
   23    22    24    1
   24    22    25    1
@<TRIPOS>SUBSTRUCTURE
       1 MOL1            1 RESIDUE      1      MOL     
@<SCITEGIC>MOL_PROPERTY
VM2 Rank
SciTegic.value.IntegerValue
69

@<SCITEGIC>MOL_PROPERTY
Conf_Id
SciTegic.value.IntegerValue
434

@<SCITEGIC>MOL_PROPERTY
Probability
SciTegic.value.DoubleValue
0.08

@<SCITEGIC>MOL_PROPERTY
Sum Probability
SciTegic.value.DoubleValue
98.29

@<SCITEGIC>MOL_PROPERTY
Delta G
SciTegic.value.DoubleValue
3.395

@<SCITEGIC>MOL_PROPERTY
G
SciTegic.value.DoubleValue
-4.567

@<SCITEGIC>MOL_PROPERTY
E
SciTegic.value.DoubleValue
-29.693

@<SCITEGIC>MOL_PROPERTY
-TS
SciTegic.value.DoubleValue
25.126

@<SCITEGIC>MOL_PROPERTY
U+W
SciTegic.value.DoubleValue
-50.260

@<SCITEGIC>MOL_PROPERTY
U
SciTegic.value.DoubleValue
10.401

@<SCITEGIC>MOL_PROPERTY
W
SciTegic.value.DoubleValue
-60.662

@<SCITEGIC>MOL_PROPERTY
W(PB)
SciTegic.value.DoubleValue
-63.100

@<SCITEGIC>MOL_PROPERTY
W(SA)
SciTegic.value.DoubleValue
2.438

@<SCITEGIC>MOL_PROPERTY
Valence
SciTegic.value.DoubleValue
8.736

@<SCITEGIC>MOL_PROPERTY
Coulomb
SciTegic.value.DoubleValue
0.894

@<SCITEGIC>MOL_PROPERTY
VdW
SciTegic.value.DoubleValue
0.772

@<SCITEGIC>MOL_PROPERTY
VdW6
SciTegic.value.DoubleValue
-10.164

@<SCITEGIC>MOL_PROPERTY
VdW12
SciTegic.value.DoubleValue
10.936

@<SCITEGIC>MOL_PROPERTY
Bond
SciTegic.value.DoubleValue
0.210

@<SCITEGIC>MOL_PROPERTY
Angle
SciTegic.value.DoubleValue
3.058

@<SCITEGIC>MOL_PROPERTY
Pdih
SciTegic.value.DoubleValue
5.466

@<SCITEGIC>MOL_PROPERTY
Idih
SciTegic.value.DoubleValue
0.001

@<SCITEGIC>MOL_PROPERTY
Tether
SciTegic.value.DoubleValue
0.000

@<TRIPOS>MOLECULE
guest-8_vm2.mol2 : vm2 ligand conformer 70
          25          24           1
SMALL
USER_CHARGES
 
@<TRIPOS>ATOM
       1    C1      20.057390   19.135390   27.218585 C.2        1 MOL1         0.6168
       2    O1      21.063217   19.467371   27.814620 O.co2      1 MOL1        -0.6703
       3    O2      18.940591   19.501644   27.527954 O.co2      1 MOL1        -0.6703
       4    C2      20.205286   18.190921   26.028965 C.3        1 MOL1        -0.1963
       5    H1      19.232516   17.726425   25.827057 H          1 MOL1         0.0750
       6    H2      20.884456   17.385824   26.333050 H          1 MOL1         0.0750
       7    C3      20.750288   18.870660   24.745894 C.3        1 MOL1        -0.1860
       8    H3      21.705230   19.364727   24.972301 H          1 MOL1         0.0752
       9    H4      20.963880   18.090882   24.003653 H          1 MOL1         0.0752
      10    C4      19.757063   19.896408   24.149129 C.3        1 MOL1        -0.1858
      11    H5      19.501817   20.639678   24.916732 H          1 MOL1         0.0752
      12    H6      18.815535   19.394448   23.890913 H          1 MOL1         0.0752
      13    C5      20.313021   20.649377   22.914105 C.3        1 MOL1        -0.1858
      14    H7      19.565138   21.383043   22.583865 H          1 MOL1         0.0752
      15    H8      21.192770   21.231534   23.220392 H          1 MOL1         0.0752
      16    C6      20.703019   19.756519   21.708942 C.3        1 MOL1        -0.1858
      17    H9      21.531367   19.091590   21.986104 H          1 MOL1         0.0752
      18    H10     21.089304   20.404607   20.910525 H          1 MOL1         0.0752
      19    C7      19.527387   18.922282   21.152251 C.3        1 MOL1        -0.1834
      20    H11     19.177950   18.210591   21.911927 H          1 MOL1         0.0752
      21    H12     18.681802   19.583591   20.918296 H          1 MOL1         0.0752
      22    C8      19.935738   18.143428   19.885554 C.3        1 MOL1        -0.2849
      23    H13     20.762700   17.453546   20.098940 H          1 MOL1         0.0764
      24    H14     19.091650   17.553515   19.505396 H          1 MOL1         0.0764
      25    H15     20.256604   18.827830   19.089356 H          1 MOL1         0.0764
@<TRIPOS>BOND
    1     1     2    1
    2     1     3    2
    3     1     4    1
    4     4     5    1
    5     4     6    1
    6     4     7    1
    7     7     8    1
    8     7     9    1
    9     7    10    1
   10    10    11    1
   11    10    12    1
   12    10    13    1
   13    13    14    1
   14    13    15    1
   15    13    16    1
   16    16    17    1
   17    16    18    1
   18    16    19    1
   19    19    20    1
   20    19    21    1
   21    19    22    1
   22    22    23    1
   23    22    24    1
   24    22    25    1
@<TRIPOS>SUBSTRUCTURE
       1 MOL1            1 RESIDUE      1      MOL     
@<SCITEGIC>MOL_PROPERTY
VM2 Rank
SciTegic.value.IntegerValue
70

@<SCITEGIC>MOL_PROPERTY
Conf_Id
SciTegic.value.IntegerValue
1295

@<SCITEGIC>MOL_PROPERTY
Probability
SciTegic.value.DoubleValue
0.08

@<SCITEGIC>MOL_PROPERTY
Sum Probability
SciTegic.value.DoubleValue
98.37

@<SCITEGIC>MOL_PROPERTY
Delta G
SciTegic.value.DoubleValue
3.404

@<SCITEGIC>MOL_PROPERTY
G
SciTegic.value.DoubleValue
-4.559

@<SCITEGIC>MOL_PROPERTY
E
SciTegic.value.DoubleValue
-29.710

@<SCITEGIC>MOL_PROPERTY
-TS
SciTegic.value.DoubleValue
25.151

@<SCITEGIC>MOL_PROPERTY
U+W
SciTegic.value.DoubleValue
-50.278

@<SCITEGIC>MOL_PROPERTY
U
SciTegic.value.DoubleValue
9.263

@<SCITEGIC>MOL_PROPERTY
W
SciTegic.value.DoubleValue
-59.541

@<SCITEGIC>MOL_PROPERTY
W(PB)
SciTegic.value.DoubleValue
-61.978

@<SCITEGIC>MOL_PROPERTY
W(SA)
SciTegic.value.DoubleValue
2.438

@<SCITEGIC>MOL_PROPERTY
Valence
SciTegic.value.DoubleValue
8.801

@<SCITEGIC>MOL_PROPERTY
Coulomb
SciTegic.value.DoubleValue
-0.375

@<SCITEGIC>MOL_PROPERTY
VdW
SciTegic.value.DoubleValue
0.837

@<SCITEGIC>MOL_PROPERTY
VdW6
SciTegic.value.DoubleValue
-10.171

@<SCITEGIC>MOL_PROPERTY
VdW12
SciTegic.value.DoubleValue
11.008

@<SCITEGIC>MOL_PROPERTY
Bond
SciTegic.value.DoubleValue
0.218

@<SCITEGIC>MOL_PROPERTY
Angle
SciTegic.value.DoubleValue
3.129

@<SCITEGIC>MOL_PROPERTY
Pdih
SciTegic.value.DoubleValue
5.454

@<SCITEGIC>MOL_PROPERTY
Idih
SciTegic.value.DoubleValue
0.000

@<SCITEGIC>MOL_PROPERTY
Tether
SciTegic.value.DoubleValue
0.000

@<TRIPOS>MOLECULE
guest-8_vm2.mol2 : vm2 ligand conformer 71
          25          24           1
SMALL
USER_CHARGES
 
@<TRIPOS>ATOM
       1    C1      19.750867   19.249920   26.904631 C.2        1 MOL1         0.6168
       2    O1      20.414171   19.218762   27.922773 O.co2      1 MOL1        -0.6703
       3    O2      18.817977   20.009815   26.733365 O.co2      1 MOL1        -0.6703
       4    C2      20.093007   18.261075   25.793747 C.3        1 MOL1        -0.1963
       5    H1      19.256210   18.223280   25.086896 H          1 MOL1         0.0750
       6    H2      20.158666   17.266880   26.250673 H          1 MOL1         0.0750
       7    C3      21.421066   18.575146   25.052295 C.3        1 MOL1        -0.1860
       8    H3      22.246070   18.537279   25.776940 H          1 MOL1         0.0752
       9    H4      21.624966   17.780268   24.323294 H          1 MOL1         0.0752
      10    C4      21.448092   19.953649   24.342616 C.3        1 MOL1        -0.1858
      11    H5      22.425200   20.081254   23.857260 H          1 MOL1         0.0752
      12    H6      21.381951   20.746923   25.099865 H          1 MOL1         0.0752
      13    C5      20.332526   20.178998   23.291399 C.3        1 MOL1        -0.1858
      14    H7      19.349697   20.166280   23.781333 H          1 MOL1         0.0752
      15    H8      20.449924   21.188587   22.874893 H          1 MOL1         0.0752
      16    C6      20.355932   19.152543   22.135323 C.3        1 MOL1        -0.1858
      17    H9      20.167073   18.144669   22.527273 H          1 MOL1         0.0752
      18    H10     21.354352   19.137919   21.677487 H          1 MOL1         0.0752
      19    C7      19.299515   19.481082   21.059458 C.3        1 MOL1        -0.1834
      20    H11     18.300160   19.498962   21.516014 H          1 MOL1         0.0752
      21    H12     19.483311   20.485557   20.653724 H          1 MOL1         0.0752
      22    C8      19.319847   18.453011   19.910393 C.3        1 MOL1        -0.2849
      23    H13     19.106739   17.442712   20.283551 H          1 MOL1         0.0764
      24    H14     18.563198   18.701947   19.155046 H          1 MOL1         0.0764
      25    H15     20.299903   18.436197   19.415861 H          1 MOL1         0.0764
@<TRIPOS>BOND
    1     1     2    1
    2     1     3    2
    3     1     4    1
    4     4     5    1
    5     4     6    1
    6     4     7    1
    7     7     8    1
    8     7     9    1
    9     7    10    1
   10    10    11    1
   11    10    12    1
   12    10    13    1
   13    13    14    1
   14    13    15    1
   15    13    16    1
   16    16    17    1
   17    16    18    1
   18    16    19    1
   19    19    20    1
   20    19    21    1
   21    19    22    1
   22    22    23    1
   23    22    24    1
   24    22    25    1
@<TRIPOS>SUBSTRUCTURE
       1 MOL1            1 RESIDUE      1      MOL     
@<SCITEGIC>MOL_PROPERTY
VM2 Rank
SciTegic.value.IntegerValue
71

@<SCITEGIC>MOL_PROPERTY
Conf_Id
SciTegic.value.IntegerValue
400

@<SCITEGIC>MOL_PROPERTY
Probability
SciTegic.value.DoubleValue
0.07

@<SCITEGIC>MOL_PROPERTY
Sum Probability
SciTegic.value.DoubleValue
98.44

@<SCITEGIC>MOL_PROPERTY
Delta G
SciTegic.value.DoubleValue
3.466

@<SCITEGIC>MOL_PROPERTY
G
SciTegic.value.DoubleValue
-4.496

@<SCITEGIC>MOL_PROPERTY
E
SciTegic.value.DoubleValue
-29.748

@<SCITEGIC>MOL_PROPERTY
-TS
SciTegic.value.DoubleValue
25.252

@<SCITEGIC>MOL_PROPERTY
U+W
SciTegic.value.DoubleValue
-50.316

@<SCITEGIC>MOL_PROPERTY
U
SciTegic.value.DoubleValue
9.773

@<SCITEGIC>MOL_PROPERTY
W
SciTegic.value.DoubleValue
-60.088

@<SCITEGIC>MOL_PROPERTY
W(PB)
SciTegic.value.DoubleValue
-62.535

@<SCITEGIC>MOL_PROPERTY
W(SA)
SciTegic.value.DoubleValue
2.447

@<SCITEGIC>MOL_PROPERTY
Valence
SciTegic.value.DoubleValue
8.741

@<SCITEGIC>MOL_PROPERTY
Coulomb
SciTegic.value.DoubleValue
0.479

@<SCITEGIC>MOL_PROPERTY
VdW
SciTegic.value.DoubleValue
0.552

@<SCITEGIC>MOL_PROPERTY
VdW6
SciTegic.value.DoubleValue
-10.627

@<SCITEGIC>MOL_PROPERTY
VdW12
SciTegic.value.DoubleValue
11.179

@<SCITEGIC>MOL_PROPERTY
Bond
SciTegic.value.DoubleValue
0.227

@<SCITEGIC>MOL_PROPERTY
Angle
SciTegic.value.DoubleValue
3.155

@<SCITEGIC>MOL_PROPERTY
Pdih
SciTegic.value.DoubleValue
5.358

@<SCITEGIC>MOL_PROPERTY
Idih
SciTegic.value.DoubleValue
0.001

@<SCITEGIC>MOL_PROPERTY
Tether
SciTegic.value.DoubleValue
0.000

@<TRIPOS>MOLECULE
guest-8_vm2.mol2 : vm2 ligand conformer 72
          25          24           1
SMALL
USER_CHARGES
 
@<TRIPOS>ATOM
       1    C1      19.874607   19.785755   26.746465 C.2        1 MOL1         0.6168
       2    O1      20.860457   20.398900   27.106026 O.co2      1 MOL1        -0.6703
       3    O2      18.772346   20.286536   26.640248 O.co2      1 MOL1        -0.6703
       4    C2      20.021942   18.299272   26.433586 C.3        1 MOL1        -0.1963
       5    H1      19.184001   17.778395   26.911581 H          1 MOL1         0.0750
       6    H2      20.938467   17.930340   26.909608 H          1 MOL1         0.0750
       7    C3      20.036535   17.974957   24.917314 C.3        1 MOL1        -0.1860
       8    H3      20.010430   16.885200   24.783620 H          1 MOL1         0.0752
       9    H4      19.121282   18.374035   24.460045 H          1 MOL1         0.0752
      10    C4      21.282941   18.547887   24.201545 C.3        1 MOL1        -0.1858
      11    H5      22.185180   18.200445   24.722978 H          1 MOL1         0.0752
      12    H6      21.290574   19.642863   24.283101 H          1 MOL1         0.0752
      13    C5      21.387205   18.130265   22.713071 C.3        1 MOL1        -0.1858
      14    H7      22.312605   18.548684   22.294493 H          1 MOL1         0.0752
      15    H8      21.496246   17.038668   22.656998 H          1 MOL1         0.0752
      16    C6      20.195836   18.557367   21.818720 C.3        1 MOL1        -0.1858
      17    H9      19.278246   18.054059   22.150303 H          1 MOL1         0.0752
      18    H10     20.385508   18.200186   20.797385 H          1 MOL1         0.0752
      19    C7      19.967869   20.085395   21.781865 C.3        1 MOL1        -0.1834
      20    H11     19.694717   20.449251   22.781577 H          1 MOL1         0.0752
      21    H12     20.900447   20.592636   21.498972 H          1 MOL1         0.0752
      22    C8      18.853261   20.467667   20.787160 C.3        1 MOL1        -0.2849
      23    H13     19.110001   20.150934   19.767831 H          1 MOL1         0.0764
      24    H14     17.901778   19.995088   21.064082 H          1 MOL1         0.0764
      25    H15     18.701163   21.554741   20.776043 H          1 MOL1         0.0764
@<TRIPOS>BOND
    1     1     2    1
    2     1     3    2
    3     1     4    1
    4     4     5    1
    5     4     6    1
    6     4     7    1
    7     7     8    1
    8     7     9    1
    9     7    10    1
   10    10    11    1
   11    10    12    1
   12    10    13    1
   13    13    14    1
   14    13    15    1
   15    13    16    1
   16    16    17    1
   17    16    18    1
   18    16    19    1
   19    19    20    1
   20    19    21    1
   21    19    22    1
   22    22    23    1
   23    22    24    1
   24    22    25    1
@<TRIPOS>SUBSTRUCTURE
       1 MOL1            1 RESIDUE      1      MOL     
@<SCITEGIC>MOL_PROPERTY
VM2 Rank
SciTegic.value.IntegerValue
72

@<SCITEGIC>MOL_PROPERTY
Conf_Id
SciTegic.value.IntegerValue
1322

@<SCITEGIC>MOL_PROPERTY
Probability
SciTegic.value.DoubleValue
0.07

@<SCITEGIC>MOL_PROPERTY
Sum Probability
SciTegic.value.DoubleValue
98.51

@<SCITEGIC>MOL_PROPERTY
Delta G
SciTegic.value.DoubleValue
3.471

@<SCITEGIC>MOL_PROPERTY
G
SciTegic.value.DoubleValue
-4.492

@<SCITEGIC>MOL_PROPERTY
E
SciTegic.value.DoubleValue
-29.651

@<SCITEGIC>MOL_PROPERTY
-TS
SciTegic.value.DoubleValue
25.159

@<SCITEGIC>MOL_PROPERTY
U+W
SciTegic.value.DoubleValue
-50.218

@<SCITEGIC>MOL_PROPERTY
U
SciTegic.value.DoubleValue
10.374

@<SCITEGIC>MOL_PROPERTY
W
SciTegic.value.DoubleValue
-60.593

@<SCITEGIC>MOL_PROPERTY
W(PB)
SciTegic.value.DoubleValue
-62.998

@<SCITEGIC>MOL_PROPERTY
W(SA)
SciTegic.value.DoubleValue
2.405

@<SCITEGIC>MOL_PROPERTY
Valence
SciTegic.value.DoubleValue
8.732

@<SCITEGIC>MOL_PROPERTY
Coulomb
SciTegic.value.DoubleValue
0.992

@<SCITEGIC>MOL_PROPERTY
VdW
SciTegic.value.DoubleValue
0.650

@<SCITEGIC>MOL_PROPERTY
VdW6
SciTegic.value.DoubleValue
-10.415

@<SCITEGIC>MOL_PROPERTY
VdW12
SciTegic.value.DoubleValue
11.064

@<SCITEGIC>MOL_PROPERTY
Bond
SciTegic.value.DoubleValue
0.214

@<SCITEGIC>MOL_PROPERTY
Angle
SciTegic.value.DoubleValue
3.066

@<SCITEGIC>MOL_PROPERTY
Pdih
SciTegic.value.DoubleValue
5.452

@<SCITEGIC>MOL_PROPERTY
Idih
SciTegic.value.DoubleValue
0.001

@<SCITEGIC>MOL_PROPERTY
Tether
SciTegic.value.DoubleValue
0.000

@<TRIPOS>MOLECULE
guest-8_vm2.mol2 : vm2 ligand conformer 73
          25          24           1
SMALL
USER_CHARGES
 
@<TRIPOS>ATOM
       1    C1      19.876022   19.624101   26.899912 C.2        1 MOL1         0.6168
       2    O1      19.951623   18.918265   27.886612 O.co2      1 MOL1        -0.6703
       3    O2      18.846457   20.152064   26.528268 O.co2      1 MOL1        -0.6703
       4    C2      21.150747   19.881824   26.101360 C.3        1 MOL1        -0.1963
       5    H1      21.921645   20.200163   26.812706 H          1 MOL1         0.0750
       6    H2      20.979098   20.730907   25.430104 H          1 MOL1         0.0750
       7    C3      21.662428   18.648915   25.307175 C.3        1 MOL1        -0.1860
       8    H3      22.611078   18.905193   24.816516 H          1 MOL1         0.0752
       9    H4      21.891640   17.842531   26.017490 H          1 MOL1         0.0752
      10    C4      20.669230   18.112092   24.247335 C.3        1 MOL1        -0.1858
      11    H5      19.734401   17.805979   24.736839 H          1 MOL1         0.0752
      12    H6      21.095557   17.203999   23.799670 H          1 MOL1         0.0752
      13    C5      20.358121   19.128571   23.124660 C.3        1 MOL1        -0.1858
      14    H7      19.844917   20.002743   23.546589 H          1 MOL1         0.0752
      15    H8      21.300354   19.484510   22.688580 H          1 MOL1         0.0752
      16    C6      19.469994   18.505251   22.022996 C.3        1 MOL1        -0.1858
      17    H9      18.565290   18.089799   22.487630 H          1 MOL1         0.0752
      18    H10     19.995937   17.661444   21.555909 H          1 MOL1         0.0752
      19    C7      19.042715   19.515455   20.932783 C.3        1 MOL1        -0.1834
      20    H11     18.324816   19.025835   20.260412 H          1 MOL1         0.0752
      21    H12     18.509602   20.357273   21.395922 H          1 MOL1         0.0752
      22    C8      20.225664   20.047463   20.094900 C.3        1 MOL1        -0.2849
      23    H13     19.862232   20.689227   19.281918 H          1 MOL1         0.0764
      24    H14     20.913422   20.644409   20.706749 H          1 MOL1         0.0764
      25    H15     20.792110   19.221251   19.645889 H          1 MOL1         0.0764
@<TRIPOS>BOND
    1     1     2    1
    2     1     3    2
    3     1     4    1
    4     4     5    1
    5     4     6    1
    6     4     7    1
    7     7     8    1
    8     7     9    1
    9     7    10    1
   10    10    11    1
   11    10    12    1
   12    10    13    1
   13    13    14    1
   14    13    15    1
   15    13    16    1
   16    16    17    1
   17    16    18    1
   18    16    19    1
   19    19    20    1
   20    19    21    1
   21    19    22    1
   22    22    23    1
   23    22    24    1
   24    22    25    1
@<TRIPOS>SUBSTRUCTURE
       1 MOL1            1 RESIDUE      1      MOL     
@<SCITEGIC>MOL_PROPERTY
VM2 Rank
SciTegic.value.IntegerValue
73

@<SCITEGIC>MOL_PROPERTY
Conf_Id
SciTegic.value.IntegerValue
567

@<SCITEGIC>MOL_PROPERTY
Probability
SciTegic.value.DoubleValue
0.07

@<SCITEGIC>MOL_PROPERTY
Sum Probability
SciTegic.value.DoubleValue
98.57

@<SCITEGIC>MOL_PROPERTY
Delta G
SciTegic.value.DoubleValue
3.474

@<SCITEGIC>MOL_PROPERTY
G
SciTegic.value.DoubleValue
-4.488

@<SCITEGIC>MOL_PROPERTY
E
SciTegic.value.DoubleValue
-29.460

@<SCITEGIC>MOL_PROPERTY
-TS
SciTegic.value.DoubleValue
24.972

@<SCITEGIC>MOL_PROPERTY
U+W
SciTegic.value.DoubleValue
-50.027

@<SCITEGIC>MOL_PROPERTY
U
SciTegic.value.DoubleValue
10.315

@<SCITEGIC>MOL_PROPERTY
W
SciTegic.value.DoubleValue
-60.342

@<SCITEGIC>MOL_PROPERTY
W(PB)
SciTegic.value.DoubleValue
-62.774

@<SCITEGIC>MOL_PROPERTY
W(SA)
SciTegic.value.DoubleValue
2.432

@<SCITEGIC>MOL_PROPERTY
Valence
SciTegic.value.DoubleValue
8.797

@<SCITEGIC>MOL_PROPERTY
Coulomb
SciTegic.value.DoubleValue
0.776

@<SCITEGIC>MOL_PROPERTY
VdW
SciTegic.value.DoubleValue
0.742

@<SCITEGIC>MOL_PROPERTY
VdW6
SciTegic.value.DoubleValue
-10.190

@<SCITEGIC>MOL_PROPERTY
VdW12
SciTegic.value.DoubleValue
10.932

@<SCITEGIC>MOL_PROPERTY
Bond
SciTegic.value.DoubleValue
0.216

@<SCITEGIC>MOL_PROPERTY
Angle
SciTegic.value.DoubleValue
2.999

@<SCITEGIC>MOL_PROPERTY
Pdih
SciTegic.value.DoubleValue
5.581

@<SCITEGIC>MOL_PROPERTY
Idih
SciTegic.value.DoubleValue
0.001

@<SCITEGIC>MOL_PROPERTY
Tether
SciTegic.value.DoubleValue
0.000

@<TRIPOS>MOLECULE
guest-8_vm2.mol2 : vm2 ligand conformer 74
          25          24           1
SMALL
USER_CHARGES
 
@<TRIPOS>ATOM
       1    C1      19.797019   19.515748   26.904180 C.2        1 MOL1         0.6168
       2    O1      20.529722   19.712035   27.853979 O.co2      1 MOL1        -0.6703
       3    O2      18.963935   20.313534   26.521586 O.co2      1 MOL1        -0.6703
       4    C2      19.912549   18.182286   26.170998 C.3        1 MOL1        -0.1963
       5    H1      19.026343   18.050485   25.539921 H          1 MOL1         0.0750
       6    H2      19.874432   17.390309   26.927938 H          1 MOL1         0.0750
       7    C3      21.211130   18.029319   25.332610 C.3        1 MOL1        -0.1860
       8    H3      22.075947   18.095379   26.007199 H          1 MOL1         0.0752
       9    H4      21.239790   17.022862   24.893767 H          1 MOL1         0.0752
      10    C4      21.375181   19.080670   24.207606 C.3        1 MOL1        -0.1858
      11    H5      22.352116   18.928205   23.728917 H          1 MOL1         0.0752
      12    H6      21.398264   20.089122   24.643174 H          1 MOL1         0.0752
      13    C5      20.269267   19.006453   23.129709 C.3        1 MOL1        -0.1858
      14    H7      20.203066   17.978603   22.750490 H          1 MOL1         0.0752
      15    H8      19.296928   19.250614   23.577503 H          1 MOL1         0.0752
      16    C6      20.546291   19.981903   21.962354 C.3        1 MOL1        -0.1858
      17    H9      21.491816   19.713834   21.471520 H          1 MOL1         0.0752
      18    H10     20.681902   20.993708   22.368351 H          1 MOL1         0.0752
      19    C7      19.411819   20.021995   20.912114 C.3        1 MOL1        -0.1834
      20    H11     18.465846   20.297320   21.398629 H          1 MOL1         0.0752
      21    H12     19.630779   20.817796   20.186892 H          1 MOL1         0.0752
      22    C8      19.236088   18.690057   20.150864 C.3        1 MOL1        -0.2849
      23    H13     18.482388   18.796529   19.359989 H          1 MOL1         0.0764
      24    H14     20.177988   18.379054   19.680549 H          1 MOL1         0.0764
      25    H15     18.903495   17.886970   20.820302 H          1 MOL1         0.0764
@<TRIPOS>BOND
    1     1     2    1
    2     1     3    2
    3     1     4    1
    4     4     5    1
    5     4     6    1
    6     4     7    1
    7     7     8    1
    8     7     9    1
    9     7    10    1
   10    10    11    1
   11    10    12    1
   12    10    13    1
   13    13    14    1
   14    13    15    1
   15    13    16    1
   16    16    17    1
   17    16    18    1
   18    16    19    1
   19    19    20    1
   20    19    21    1
   21    19    22    1
   22    22    23    1
   23    22    24    1
   24    22    25    1
@<TRIPOS>SUBSTRUCTURE
       1 MOL1            1 RESIDUE      1      MOL     
@<SCITEGIC>MOL_PROPERTY
VM2 Rank
SciTegic.value.IntegerValue
74

@<SCITEGIC>MOL_PROPERTY
Conf_Id
SciTegic.value.IntegerValue
283

@<SCITEGIC>MOL_PROPERTY
Probability
SciTegic.value.DoubleValue
0.07

@<SCITEGIC>MOL_PROPERTY
Sum Probability
SciTegic.value.DoubleValue
98.64

@<SCITEGIC>MOL_PROPERTY
Delta G
SciTegic.value.DoubleValue
3.478

@<SCITEGIC>MOL_PROPERTY
G
SciTegic.value.DoubleValue
-4.485

@<SCITEGIC>MOL_PROPERTY
E
SciTegic.value.DoubleValue
-29.456

@<SCITEGIC>MOL_PROPERTY
-TS
SciTegic.value.DoubleValue
24.971

@<SCITEGIC>MOL_PROPERTY
U+W
SciTegic.value.DoubleValue
-50.024

@<SCITEGIC>MOL_PROPERTY
U
SciTegic.value.DoubleValue
10.314

@<SCITEGIC>MOL_PROPERTY
W
SciTegic.value.DoubleValue
-60.338

@<SCITEGIC>MOL_PROPERTY
W(PB)
SciTegic.value.DoubleValue
-62.785

@<SCITEGIC>MOL_PROPERTY
W(SA)
SciTegic.value.DoubleValue
2.447

@<SCITEGIC>MOL_PROPERTY
Valence
SciTegic.value.DoubleValue
8.797

@<SCITEGIC>MOL_PROPERTY
Coulomb
SciTegic.value.DoubleValue
0.776

@<SCITEGIC>MOL_PROPERTY
VdW
SciTegic.value.DoubleValue
0.742

@<SCITEGIC>MOL_PROPERTY
VdW6
SciTegic.value.DoubleValue
-10.190

@<SCITEGIC>MOL_PROPERTY
VdW12
SciTegic.value.DoubleValue
10.932

@<SCITEGIC>MOL_PROPERTY
Bond
SciTegic.value.DoubleValue
0.216

@<SCITEGIC>MOL_PROPERTY
Angle
SciTegic.value.DoubleValue
2.999

@<SCITEGIC>MOL_PROPERTY
Pdih
SciTegic.value.DoubleValue
5.581

@<SCITEGIC>MOL_PROPERTY
Idih
SciTegic.value.DoubleValue
0.001

@<SCITEGIC>MOL_PROPERTY
Tether
SciTegic.value.DoubleValue
0.000

@<TRIPOS>MOLECULE
guest-8_vm2.mol2 : vm2 ligand conformer 75
          25          24           1
SMALL
USER_CHARGES
 
@<TRIPOS>ATOM
       1    C1      20.318861   19.631621   26.995341 C.2        1 MOL1         0.6168
       2    O1      21.326172   20.258749   26.732762 O.co2      1 MOL1        -0.6703
       3    O2      19.427258   20.057003   27.703553 O.co2      1 MOL1        -0.6703
       4    C2      20.176005   18.221825   26.428725 C.3        1 MOL1        -0.1963
       5    H1      19.917457   17.560353   27.263755 H          1 MOL1         0.0750
       6    H2      21.153949   17.889409   26.062984 H          1 MOL1         0.0750
       7    C3      19.098543   18.090004   25.317509 C.3        1 MOL1        -0.1860
       8    H3      19.025394   17.038357   25.009233 H          1 MOL1         0.0752
       9    H4      18.120927   18.353611   25.744286 H          1 MOL1         0.0752
      10    C4      19.348688   18.971159   24.068563 C.3        1 MOL1        -0.1858
      11    H5      19.387687   20.028973   24.362652 H          1 MOL1         0.0752
      12    H6      18.482607   18.866883   23.403150 H          1 MOL1         0.0752
      13    C5      20.640112   18.598127   23.299830 C.3        1 MOL1        -0.1858
      14    H7      21.505176   18.724567   23.963560 H          1 MOL1         0.0752
      15    H8      20.613053   17.536684   23.018624 H          1 MOL1         0.0752
      16    C6      20.878976   19.463134   22.039040 C.3        1 MOL1        -0.1858
      17    H9      21.881220   19.238161   21.649505 H          1 MOL1         0.0752
      18    H10     20.886368   20.525627   22.318382 H          1 MOL1         0.0752
      19    C7      19.842544   19.224424   20.917434 C.3        1 MOL1        -0.1834
      20    H11     19.795321   18.153063   20.678426 H          1 MOL1         0.0752
      21    H12     18.841609   19.521881   21.255903 H          1 MOL1         0.0752
      22    C8      20.195841   20.017954   19.643243 C.3        1 MOL1        -0.2849
      23    H13     21.176738   19.717664   19.252088 H          1 MOL1         0.0764
      24    H14     19.449517   19.840907   18.857939 H          1 MOL1         0.0764
      25    H15     20.223570   21.096289   19.847686 H          1 MOL1         0.0764
@<TRIPOS>BOND
    1     1     2    1
    2     1     3    2
    3     1     4    1
    4     4     5    1
    5     4     6    1
    6     4     7    1
    7     7     8    1
    8     7     9    1
    9     7    10    1
   10    10    11    1
   11    10    12    1
   12    10    13    1
   13    13    14    1
   14    13    15    1
   15    13    16    1
   16    16    17    1
   17    16    18    1
   18    16    19    1
   19    19    20    1
   20    19    21    1
   21    19    22    1
   22    22    23    1
   23    22    24    1
   24    22    25    1
@<TRIPOS>SUBSTRUCTURE
       1 MOL1            1 RESIDUE      1      MOL     
@<SCITEGIC>MOL_PROPERTY
VM2 Rank
SciTegic.value.IntegerValue
75

@<SCITEGIC>MOL_PROPERTY
Conf_Id
SciTegic.value.IntegerValue
1228

@<SCITEGIC>MOL_PROPERTY
Probability
SciTegic.value.DoubleValue
0.07

@<SCITEGIC>MOL_PROPERTY
Sum Probability
SciTegic.value.DoubleValue
98.71

@<SCITEGIC>MOL_PROPERTY
Delta G
SciTegic.value.DoubleValue
3.491

@<SCITEGIC>MOL_PROPERTY
G
SciTegic.value.DoubleValue
-4.471

@<SCITEGIC>MOL_PROPERTY
E
SciTegic.value.DoubleValue
-29.368

@<SCITEGIC>MOL_PROPERTY
-TS
SciTegic.value.DoubleValue
24.897

@<SCITEGIC>MOL_PROPERTY
U+W
SciTegic.value.DoubleValue
-49.935

@<SCITEGIC>MOL_PROPERTY
U
SciTegic.value.DoubleValue
10.274

@<SCITEGIC>MOL_PROPERTY
W
SciTegic.value.DoubleValue
-60.209

@<SCITEGIC>MOL_PROPERTY
W(PB)
SciTegic.value.DoubleValue
-62.631

@<SCITEGIC>MOL_PROPERTY
W(SA)
SciTegic.value.DoubleValue
2.421

@<SCITEGIC>MOL_PROPERTY
Valence
SciTegic.value.DoubleValue
8.911

@<SCITEGIC>MOL_PROPERTY
Coulomb
SciTegic.value.DoubleValue
0.553

@<SCITEGIC>MOL_PROPERTY
VdW
SciTegic.value.DoubleValue
0.810

@<SCITEGIC>MOL_PROPERTY
VdW6
SciTegic.value.DoubleValue
-10.136

@<SCITEGIC>MOL_PROPERTY
VdW12
SciTegic.value.DoubleValue
10.945

@<SCITEGIC>MOL_PROPERTY
Bond
SciTegic.value.DoubleValue
0.229

@<SCITEGIC>MOL_PROPERTY
Angle
SciTegic.value.DoubleValue
3.100

@<SCITEGIC>MOL_PROPERTY
Pdih
SciTegic.value.DoubleValue
5.582

@<SCITEGIC>MOL_PROPERTY
Idih
SciTegic.value.DoubleValue
0.001

@<SCITEGIC>MOL_PROPERTY
Tether
SciTegic.value.DoubleValue
0.000

@<TRIPOS>MOLECULE
guest-8_vm2.mol2 : vm2 ligand conformer 76
          25          24           1
SMALL
USER_CHARGES
 
@<TRIPOS>ATOM
       1    C1      20.556567   19.301398   26.895548 C.2        1 MOL1         0.6168
       2    O1      21.381064   20.173544   26.704178 O.co2      1 MOL1        -0.6703
       3    O2      19.926009   19.187578   27.928505 O.co2      1 MOL1        -0.6703
       4    C2      20.317732   18.275499   25.791271 C.3        1 MOL1        -0.1963
       5    H1      20.389632   17.281675   26.248065 H          1 MOL1         0.0750
       6    H2      21.136126   18.343533   25.065393 H          1 MOL1         0.0750
       7    C3      18.943867   18.416936   25.080903 C.3        1 MOL1        -0.1860
       8    H3      18.826104   17.601493   24.355624 H          1 MOL1         0.0752
       9    H4      18.147214   18.275480   25.824214 H          1 MOL1         0.0752
      10    C4      18.725410   19.779746   24.374032 C.3        1 MOL1        -0.1858
      11    H5      18.707576   20.576122   25.130704 H          1 MOL1         0.0752
      12    H6      17.729079   19.781335   23.911518 H          1 MOL1         0.0752
      13    C5      19.778727   20.143555   23.297698 C.3        1 MOL1        -0.1858
      14    H7      19.524361   21.129430   22.885531 H          1 MOL1         0.0752
      15    H8      20.766246   20.256581   23.764800 H          1 MOL1         0.0752
      16    C6      19.859302   19.120790   22.140922 C.3        1 MOL1        -0.1858
      17    H9      18.860532   18.978711   21.706241 H          1 MOL1         0.0752
      18    H10     20.183751   18.145664   22.526882 H          1 MOL1         0.0752
      19    C7      20.840248   19.579409   21.041443 C.3        1 MOL1        -0.1834
      20    H11     20.521013   20.551854   20.641679 H          1 MOL1         0.0752
      21    H12     21.839533   19.724702   21.474795 H          1 MOL1         0.0752
      22    C8      20.924074   18.555544   19.891500 C.3        1 MOL1        -0.2849
      23    H13     19.942908   18.413717   19.419746 H          1 MOL1         0.0764
      24    H14     21.625280   18.897567   19.119253 H          1 MOL1         0.0764
      25    H15     21.272366   17.580998   20.257996 H          1 MOL1         0.0764
@<TRIPOS>BOND
    1     1     2    1
    2     1     3    2
    3     1     4    1
    4     4     5    1
    5     4     6    1
    6     4     7    1
    7     7     8    1
    8     7     9    1
    9     7    10    1
   10    10    11    1
   11    10    12    1
   12    10    13    1
   13    13    14    1
   14    13    15    1
   15    13    16    1
   16    16    17    1
   17    16    18    1
   18    16    19    1
   19    19    20    1
   20    19    21    1
   21    19    22    1
   22    22    23    1
   23    22    24    1
   24    22    25    1
@<TRIPOS>SUBSTRUCTURE
       1 MOL1            1 RESIDUE      1      MOL     
@<SCITEGIC>MOL_PROPERTY
VM2 Rank
SciTegic.value.IntegerValue
76

@<SCITEGIC>MOL_PROPERTY
Conf_Id
SciTegic.value.IntegerValue
1209

@<SCITEGIC>MOL_PROPERTY
Probability
SciTegic.value.DoubleValue
0.06

@<SCITEGIC>MOL_PROPERTY
Sum Probability
SciTegic.value.DoubleValue
98.77

@<SCITEGIC>MOL_PROPERTY
Delta G
SciTegic.value.DoubleValue
3.530

@<SCITEGIC>MOL_PROPERTY
G
SciTegic.value.DoubleValue
-4.432

@<SCITEGIC>MOL_PROPERTY
E
SciTegic.value.DoubleValue
-29.684

@<SCITEGIC>MOL_PROPERTY
-TS
SciTegic.value.DoubleValue
25.252

@<SCITEGIC>MOL_PROPERTY
U+W
SciTegic.value.DoubleValue
-50.252

@<SCITEGIC>MOL_PROPERTY
U
SciTegic.value.DoubleValue
9.772

@<SCITEGIC>MOL_PROPERTY
W
SciTegic.value.DoubleValue
-60.024

@<SCITEGIC>MOL_PROPERTY
W(PB)
SciTegic.value.DoubleValue
-62.442

@<SCITEGIC>MOL_PROPERTY
W(SA)
SciTegic.value.DoubleValue
2.418

@<SCITEGIC>MOL_PROPERTY
Valence
SciTegic.value.DoubleValue
8.741

@<SCITEGIC>MOL_PROPERTY
Coulomb
SciTegic.value.DoubleValue
0.479

@<SCITEGIC>MOL_PROPERTY
VdW
SciTegic.value.DoubleValue
0.552

@<SCITEGIC>MOL_PROPERTY
VdW6
SciTegic.value.DoubleValue
-10.626

@<SCITEGIC>MOL_PROPERTY
VdW12
SciTegic.value.DoubleValue
11.178

@<SCITEGIC>MOL_PROPERTY
Bond
SciTegic.value.DoubleValue
0.227

@<SCITEGIC>MOL_PROPERTY
Angle
SciTegic.value.DoubleValue
3.155

@<SCITEGIC>MOL_PROPERTY
Pdih
SciTegic.value.DoubleValue
5.358

@<SCITEGIC>MOL_PROPERTY
Idih
SciTegic.value.DoubleValue
0.001

@<SCITEGIC>MOL_PROPERTY
Tether
SciTegic.value.DoubleValue
0.000

@<TRIPOS>MOLECULE
guest-8_vm2.mol2 : vm2 ligand conformer 77
          25          24           1
SMALL
USER_CHARGES
 
@<TRIPOS>ATOM
       1    C1      19.947099   19.608002   26.999610 C.2        1 MOL1         0.6168
       2    O1      20.793524   20.143824   27.688033 O.co2      1 MOL1        -0.6703
       3    O2      18.862789   20.102183   26.760921 O.co2      1 MOL1        -0.6703
       4    C2      20.254383   18.226832   26.427833 C.3        1 MOL1        -0.1963
       5    H1      19.318295   17.772625   26.084207 H          1 MOL1         0.0750
       6    H2      20.613797   17.604701   27.255747 H          1 MOL1         0.0750
       7    C3      21.314035   18.230955   25.291950 C.3        1 MOL1        -0.1860
       8    H3      22.259908   18.616969   25.696519 H          1 MOL1         0.0752
       9    H4      21.512767   17.196595   24.980577 H          1 MOL1         0.0752
      10    C4      20.925607   19.071438   24.050339 C.3        1 MOL1        -0.1858
      11    H5      21.782381   19.076732   23.365024 H          1 MOL1         0.0752
      12    H6      20.759680   20.116228   24.346755 H          1 MOL1         0.0752
      13    C5      19.674510   18.536650   23.310986 C.3        1 MOL1        -0.1858
      14    H7      19.829382   17.486788   23.027659 H          1 MOL1         0.0752
      15    H8      18.815910   18.553413   23.994643 H          1 MOL1         0.0752
      16    C6      19.298977   19.362591   22.057318 C.3        1 MOL1        -0.1858
      17    H9      19.163422   20.415983   22.338333 H          1 MOL1         0.0752
      18    H10     18.324623   19.011848   21.690635 H          1 MOL1         0.0752
      19    C7      20.331197   19.255544   20.911788 C.3        1 MOL1        -0.1834
      20    H11     21.293868   19.678010   21.227545 H          1 MOL1         0.0752
      21    H12     20.508353   18.198460   20.670208 H          1 MOL1         0.0752
      22    C8      19.850880   19.995979   19.647221 C.3        1 MOL1        -0.2849
      23    H13     19.691385   21.062403   19.853800 H          1 MOL1         0.0764
      24    H14     20.595328   19.913803   18.844668 H          1 MOL1         0.0764
      25    H15     18.907214   19.573173   19.278346 H          1 MOL1         0.0764
@<TRIPOS>BOND
    1     1     2    1
    2     1     3    2
    3     1     4    1
    4     4     5    1
    5     4     6    1
    6     4     7    1
    7     7     8    1
    8     7     9    1
    9     7    10    1
   10    10    11    1
   11    10    12    1
   12    10    13    1
   13    13    14    1
   14    13    15    1
   15    13    16    1
   16    16    17    1
   17    16    18    1
   18    16    19    1
   19    19    20    1
   20    19    21    1
   21    19    22    1
   22    22    23    1
   23    22    24    1
   24    22    25    1
@<TRIPOS>SUBSTRUCTURE
       1 MOL1            1 RESIDUE      1      MOL     
@<SCITEGIC>MOL_PROPERTY
VM2 Rank
SciTegic.value.IntegerValue
77

@<SCITEGIC>MOL_PROPERTY
Conf_Id
SciTegic.value.IntegerValue
697

@<SCITEGIC>MOL_PROPERTY
Probability
SciTegic.value.DoubleValue
0.06

@<SCITEGIC>MOL_PROPERTY
Sum Probability
SciTegic.value.DoubleValue
98.83

@<SCITEGIC>MOL_PROPERTY
Delta G
SciTegic.value.DoubleValue
3.532

@<SCITEGIC>MOL_PROPERTY
G
SciTegic.value.DoubleValue
-4.431

@<SCITEGIC>MOL_PROPERTY
E
SciTegic.value.DoubleValue
-29.328

@<SCITEGIC>MOL_PROPERTY
-TS
SciTegic.value.DoubleValue
24.897

@<SCITEGIC>MOL_PROPERTY
U+W
SciTegic.value.DoubleValue
-49.895

@<SCITEGIC>MOL_PROPERTY
U
SciTegic.value.DoubleValue
10.274

@<SCITEGIC>MOL_PROPERTY
W
SciTegic.value.DoubleValue
-60.169

@<SCITEGIC>MOL_PROPERTY
W(PB)
SciTegic.value.DoubleValue
-62.622

@<SCITEGIC>MOL_PROPERTY
W(SA)
SciTegic.value.DoubleValue
2.453

@<SCITEGIC>MOL_PROPERTY
Valence
SciTegic.value.DoubleValue
8.912

@<SCITEGIC>MOL_PROPERTY
Coulomb
SciTegic.value.DoubleValue
0.553

@<SCITEGIC>MOL_PROPERTY
VdW
SciTegic.value.DoubleValue
0.809

@<SCITEGIC>MOL_PROPERTY
VdW6
SciTegic.value.DoubleValue
-10.135

@<SCITEGIC>MOL_PROPERTY
VdW12
SciTegic.value.DoubleValue
10.945

@<SCITEGIC>MOL_PROPERTY
Bond
SciTegic.value.DoubleValue
0.229

@<SCITEGIC>MOL_PROPERTY
Angle
SciTegic.value.DoubleValue
3.100

@<SCITEGIC>MOL_PROPERTY
Pdih
SciTegic.value.DoubleValue
5.582

@<SCITEGIC>MOL_PROPERTY
Idih
SciTegic.value.DoubleValue
0.001

@<SCITEGIC>MOL_PROPERTY
Tether
SciTegic.value.DoubleValue
0.000

@<TRIPOS>MOLECULE
guest-8_vm2.mol2 : vm2 ligand conformer 78
          25          24           1
SMALL
USER_CHARGES
 
@<TRIPOS>ATOM
       1    C1      19.702454   19.586784   26.763139 C.2        1 MOL1         0.6168
       2    O1      20.353220   19.916026   27.735580 O.co2      1 MOL1        -0.6703
       3    O2      18.854635   20.291283   26.251601 O.co2      1 MOL1        -0.6703
       4    C2      19.945029   18.200922   26.171846 C.3        1 MOL1        -0.1963
       5    H1      19.118024   17.958049   25.495056 H          1 MOL1         0.0750
       6    H2      19.891464   17.481311   26.997021 H          1 MOL1         0.0750
       7    C3      21.310456   18.050043   25.446868 C.3        1 MOL1        -0.1860
       8    H3      22.115999   18.229994   26.172171 H          1 MOL1         0.0752
       9    H4      21.426461   17.011003   25.110286 H          1 MOL1         0.0752
      10    C4      21.504826   19.001223   24.240431 C.3        1 MOL1        -0.1858
      11    H5      22.523985   18.866498   23.853288 H          1 MOL1         0.0752
      12    H6      21.437141   20.045252   24.576100 H          1 MOL1         0.0752
      13    C5      20.493699   18.758834   23.096093 C.3        1 MOL1        -0.1858
      14    H7      20.514775   17.700189   22.804257 H          1 MOL1         0.0752
      15    H8      19.479720   18.976746   23.453921 H          1 MOL1         0.0752
      16    C6      20.804894   19.640740   21.864570 C.3        1 MOL1        -0.1858
      17    H9      21.844558   19.468681   21.554309 H          1 MOL1         0.0752
      18    H10     20.734358   20.701180   22.142877 H          1 MOL1         0.0752
      19    C7      19.880192   19.359876   20.657116 C.3        1 MOL1        -0.1834
      20    H11     20.241211   19.937477   19.795005 H          1 MOL1         0.0752
      21    H12     19.952213   18.300897   20.373133 H          1 MOL1         0.0752
      22    C8      18.403594   19.728269   20.918756 C.3        1 MOL1        -0.2849
      23    H13     17.964205   19.093258   21.698159 H          1 MOL1         0.0764
      24    H14     18.310046   20.775466   21.234628 H          1 MOL1         0.0764
      25    H15     17.807258   19.595531   20.006826 H          1 MOL1         0.0764
@<TRIPOS>BOND
    1     1     2    1
    2     1     3    2
    3     1     4    1
    4     4     5    1
    5     4     6    1
    6     4     7    1
    7     7     8    1
    8     7     9    1
    9     7    10    1
   10    10    11    1
   11    10    12    1
   12    10    13    1
   13    13    14    1
   14    13    15    1
   15    13    16    1
   16    16    17    1
   17    16    18    1
   18    16    19    1
   19    19    20    1
   20    19    21    1
   21    19    22    1
   22    22    23    1
   23    22    24    1
   24    22    25    1
@<TRIPOS>SUBSTRUCTURE
       1 MOL1            1 RESIDUE      1      MOL     
@<SCITEGIC>MOL_PROPERTY
VM2 Rank
SciTegic.value.IntegerValue
78

@<SCITEGIC>MOL_PROPERTY
Conf_Id
SciTegic.value.IntegerValue
1081

@<SCITEGIC>MOL_PROPERTY
Probability
SciTegic.value.DoubleValue
0.06

@<SCITEGIC>MOL_PROPERTY
Sum Probability
SciTegic.value.DoubleValue
98.89

@<SCITEGIC>MOL_PROPERTY
Delta G
SciTegic.value.DoubleValue
3.532

@<SCITEGIC>MOL_PROPERTY
G
SciTegic.value.DoubleValue
-4.430

@<SCITEGIC>MOL_PROPERTY
E
SciTegic.value.DoubleValue
-29.384

@<SCITEGIC>MOL_PROPERTY
-TS
SciTegic.value.DoubleValue
24.954

@<SCITEGIC>MOL_PROPERTY
U+W
SciTegic.value.DoubleValue
-49.952

@<SCITEGIC>MOL_PROPERTY
U
SciTegic.value.DoubleValue
10.718

@<SCITEGIC>MOL_PROPERTY
W
SciTegic.value.DoubleValue
-60.670

@<SCITEGIC>MOL_PROPERTY
W(PB)
SciTegic.value.DoubleValue
-63.103

@<SCITEGIC>MOL_PROPERTY
W(SA)
SciTegic.value.DoubleValue
2.433

@<SCITEGIC>MOL_PROPERTY
Valence
SciTegic.value.DoubleValue
8.800

@<SCITEGIC>MOL_PROPERTY
Coulomb
SciTegic.value.DoubleValue
1.201

@<SCITEGIC>MOL_PROPERTY
VdW
SciTegic.value.DoubleValue
0.717

@<SCITEGIC>MOL_PROPERTY
VdW6
SciTegic.value.DoubleValue
-10.234

@<SCITEGIC>MOL_PROPERTY
VdW12
SciTegic.value.DoubleValue
10.951

@<SCITEGIC>MOL_PROPERTY
Bond
SciTegic.value.DoubleValue
0.218

@<SCITEGIC>MOL_PROPERTY
Angle
SciTegic.value.DoubleValue
3.002

@<SCITEGIC>MOL_PROPERTY
Pdih
SciTegic.value.DoubleValue
5.579

@<SCITEGIC>MOL_PROPERTY
Idih
SciTegic.value.DoubleValue
0.001

@<SCITEGIC>MOL_PROPERTY
Tether
SciTegic.value.DoubleValue
0.000

@<TRIPOS>MOLECULE
guest-8_vm2.mol2 : vm2 ligand conformer 79
          25          24           1
SMALL
USER_CHARGES
 
@<TRIPOS>ATOM
       1    C1      20.558971   19.640796   26.753513 C.2        1 MOL1         0.6168
       2    O1      21.299102   20.446033   26.223808 O.co2      1 MOL1        -0.6703
       3    O2      19.894433   19.886462   27.741226 O.co2      1 MOL1        -0.6703
       4    C2      20.479584   18.234719   26.165524 C.3        1 MOL1        -0.1963
       5    H1      20.642475   17.528576   26.987990 H          1 MOL1         0.0750
       6    H2      21.314809   18.097311   25.469475 H          1 MOL1         0.0750
       7    C3      19.127751   17.911983   25.471881 C.3        1 MOL1        -0.1860
       8    H3      19.135913   16.866173   25.136374 H          1 MOL1         0.0752
       9    H4      18.322860   17.989907   26.215806 H          1 MOL1         0.0752
      10    C4      18.787346   18.829538   24.271784 C.3        1 MOL1        -0.1858
      11    H5      18.730962   19.874240   24.607448 H          1 MOL1         0.0752
      12    H6      17.784516   18.567185   23.908165 H          1 MOL1         0.0752
      13    C5      19.794090   18.714684   23.103913 C.3        1 MOL1        -0.1858
      14    H7      20.780723   19.058565   23.438541 H          1 MOL1         0.0752
      15    H8      19.899299   17.661434   22.810764 H          1 MOL1         0.0752
      16    C6      19.346195   19.549154   21.881496 C.3        1 MOL1        -0.1858
      17    H9      19.289668   20.610393   22.159962 H          1 MOL1         0.0752
      18    H10     18.329373   19.247729   21.595166 H          1 MOL1         0.0752
      19    C7      20.270472   19.385062   20.652392 C.3        1 MOL1        -0.1834
      20    H11     20.324945   18.325123   20.368081 H          1 MOL1         0.0752
      21    H12     19.820078   19.912115   19.800009 H          1 MOL1         0.0752
      22    C8      21.695056   19.935570   20.880463 C.3        1 MOL1        -0.2849
      23    H13     22.281902   19.877798   19.954651 H          1 MOL1         0.0764
      24    H14     21.664160   20.986484   21.196332 H          1 MOL1         0.0764
      25    H15     22.228497   19.361139   21.648086 H          1 MOL1         0.0764
@<TRIPOS>BOND
    1     1     2    1
    2     1     3    2
    3     1     4    1
    4     4     5    1
    5     4     6    1
    6     4     7    1
    7     7     8    1
    8     7     9    1
    9     7    10    1
   10    10    11    1
   11    10    12    1
   12    10    13    1
   13    13    14    1
   14    13    15    1
   15    13    16    1
   16    16    17    1
   17    16    18    1
   18    16    19    1
   19    19    20    1
   20    19    21    1
   21    19    22    1
   22    22    23    1
   23    22    24    1
   24    22    25    1
@<TRIPOS>SUBSTRUCTURE
       1 MOL1            1 RESIDUE      1      MOL     
@<SCITEGIC>MOL_PROPERTY
VM2 Rank
SciTegic.value.IntegerValue
79

@<SCITEGIC>MOL_PROPERTY
Conf_Id
SciTegic.value.IntegerValue
668

@<SCITEGIC>MOL_PROPERTY
Probability
SciTegic.value.DoubleValue
0.06

@<SCITEGIC>MOL_PROPERTY
Sum Probability
SciTegic.value.DoubleValue
98.95

@<SCITEGIC>MOL_PROPERTY
Delta G
SciTegic.value.DoubleValue
3.543

@<SCITEGIC>MOL_PROPERTY
G
SciTegic.value.DoubleValue
-4.420

@<SCITEGIC>MOL_PROPERTY
E
SciTegic.value.DoubleValue
-29.374

@<SCITEGIC>MOL_PROPERTY
-TS
SciTegic.value.DoubleValue
24.955

@<SCITEGIC>MOL_PROPERTY
U+W
SciTegic.value.DoubleValue
-49.942

@<SCITEGIC>MOL_PROPERTY
U
SciTegic.value.DoubleValue
10.717

@<SCITEGIC>MOL_PROPERTY
W
SciTegic.value.DoubleValue
-60.659

@<SCITEGIC>MOL_PROPERTY
W(PB)
SciTegic.value.DoubleValue
-63.085

@<SCITEGIC>MOL_PROPERTY
W(SA)
SciTegic.value.DoubleValue
2.426

@<SCITEGIC>MOL_PROPERTY
Valence
SciTegic.value.DoubleValue
8.799

@<SCITEGIC>MOL_PROPERTY
Coulomb
SciTegic.value.DoubleValue
1.200

@<SCITEGIC>MOL_PROPERTY
VdW
SciTegic.value.DoubleValue
0.718

@<SCITEGIC>MOL_PROPERTY
VdW6
SciTegic.value.DoubleValue
-10.234

@<SCITEGIC>MOL_PROPERTY
VdW12
SciTegic.value.DoubleValue
10.951

@<SCITEGIC>MOL_PROPERTY
Bond
SciTegic.value.DoubleValue
0.218

@<SCITEGIC>MOL_PROPERTY
Angle
SciTegic.value.DoubleValue
3.002

@<SCITEGIC>MOL_PROPERTY
Pdih
SciTegic.value.DoubleValue
5.579

@<SCITEGIC>MOL_PROPERTY
Idih
SciTegic.value.DoubleValue
0.001

@<SCITEGIC>MOL_PROPERTY
Tether
SciTegic.value.DoubleValue
0.000

@<TRIPOS>MOLECULE
guest-8_vm2.mol2 : vm2 ligand conformer 80
          25          24           1
SMALL
USER_CHARGES
 
@<TRIPOS>ATOM
       1    C1      19.616487   19.240387   26.722203 C.2        1 MOL1         0.6168
       2    O1      19.715638   18.290227   27.473812 O.co2      1 MOL1        -0.6703
       3    O2      18.561073   19.621432   26.255516 O.co2      1 MOL1        -0.6703
       4    C2      20.884502   20.013300   26.369930 C.3        1 MOL1        -0.1963
       5    H1      21.391847   20.253319   27.311525 H          1 MOL1         0.0750
       6    H2      20.598198   20.970322   25.919106 H          1 MOL1         0.0750
       7    C3      21.861652   19.241000   25.441818 C.3        1 MOL1        -0.1860
       8    H3      22.767203   19.843885   25.290723 H          1 MOL1         0.0752
       9    H4      22.184506   18.324047   25.953965 H          1 MOL1         0.0752
      10    C4      21.266479   18.859585   24.064210 C.3        1 MOL1        -0.1858
      11    H5      20.395845   18.207469   24.213587 H          1 MOL1         0.0752
      12    H6      22.009584   18.265507   23.515212 H          1 MOL1         0.0752
      13    C5      20.866934   20.086321   23.208612 C.3        1 MOL1        -0.1858
      14    H7      20.028536   20.615089   23.681495 H          1 MOL1         0.0752
      15    H8      21.707616   20.792620   23.179391 H          1 MOL1         0.0752
      16    C6      20.479848   19.721219   21.755735 C.3        1 MOL1        -0.1858
      17    H9      21.318363   19.204049   21.269716 H          1 MOL1         0.0752
      18    H10     20.320616   20.651452   21.193500 H          1 MOL1         0.0752
      19    C7      19.205529   18.852080   21.660237 C.3        1 MOL1        -0.1834
      20    H11     19.371020   17.883957   22.151011 H          1 MOL1         0.0752
      21    H12     18.380866   19.344336   22.194235 H          1 MOL1         0.0752
      22    C8      18.794858   18.608450   20.193927 C.3        1 MOL1        -0.2849
      23    H13     19.592256   18.091889   19.643785 H          1 MOL1         0.0764
      24    H14     17.891047   17.987464   20.143594 H          1 MOL1         0.0764
      25    H15     18.583414   19.556399   19.682071 H          1 MOL1         0.0764
@<TRIPOS>BOND
    1     1     2    1
    2     1     3    2
    3     1     4    1
    4     4     5    1
    5     4     6    1
    6     4     7    1
    7     7     8    1
    8     7     9    1
    9     7    10    1
   10    10    11    1
   11    10    12    1
   12    10    13    1
   13    13    14    1
   14    13    15    1
   15    13    16    1
   16    16    17    1
   17    16    18    1
   18    16    19    1
   19    19    20    1
   20    19    21    1
   21    19    22    1
   22    22    23    1
   23    22    24    1
   24    22    25    1
@<TRIPOS>SUBSTRUCTURE
       1 MOL1            1 RESIDUE      1      MOL     
@<SCITEGIC>MOL_PROPERTY
VM2 Rank
SciTegic.value.IntegerValue
80

@<SCITEGIC>MOL_PROPERTY
Conf_Id
SciTegic.value.IntegerValue
1375

@<SCITEGIC>MOL_PROPERTY
Probability
SciTegic.value.DoubleValue
0.05

@<SCITEGIC>MOL_PROPERTY
Sum Probability
SciTegic.value.DoubleValue
99.00

@<SCITEGIC>MOL_PROPERTY
Delta G
SciTegic.value.DoubleValue
3.675

@<SCITEGIC>MOL_PROPERTY
G
SciTegic.value.DoubleValue
-4.287

@<SCITEGIC>MOL_PROPERTY
E
SciTegic.value.DoubleValue
-29.287

@<SCITEGIC>MOL_PROPERTY
-TS
SciTegic.value.DoubleValue
25.000

@<SCITEGIC>MOL_PROPERTY
U+W
SciTegic.value.DoubleValue
-49.855

@<SCITEGIC>MOL_PROPERTY
U
SciTegic.value.DoubleValue
10.633

@<SCITEGIC>MOL_PROPERTY
W
SciTegic.value.DoubleValue
-60.487

@<SCITEGIC>MOL_PROPERTY
W(PB)
SciTegic.value.DoubleValue
-62.910

@<SCITEGIC>MOL_PROPERTY
W(SA)
SciTegic.value.DoubleValue
2.423

@<SCITEGIC>MOL_PROPERTY
Valence
SciTegic.value.DoubleValue
8.788

@<SCITEGIC>MOL_PROPERTY
Coulomb
SciTegic.value.DoubleValue
1.198

@<SCITEGIC>MOL_PROPERTY
VdW
SciTegic.value.DoubleValue
0.646

@<SCITEGIC>MOL_PROPERTY
VdW6
SciTegic.value.DoubleValue
-10.380

@<SCITEGIC>MOL_PROPERTY
VdW12
SciTegic.value.DoubleValue
11.027

@<SCITEGIC>MOL_PROPERTY
Bond
SciTegic.value.DoubleValue
0.219

@<SCITEGIC>MOL_PROPERTY
Angle
SciTegic.value.DoubleValue
2.957

@<SCITEGIC>MOL_PROPERTY
Pdih
SciTegic.value.DoubleValue
5.610

@<SCITEGIC>MOL_PROPERTY
Idih
SciTegic.value.DoubleValue
0.001

@<SCITEGIC>MOL_PROPERTY
Tether
SciTegic.value.DoubleValue
0.000

@<TRIPOS>MOLECULE
guest-8_vm2.mol2 : vm2 ligand conformer 81
          25          24           1
SMALL
USER_CHARGES
 
@<TRIPOS>ATOM
       1    C1      19.900909   19.837068   26.652005 C.2        1 MOL1         0.6168
       2    O1      20.883726   20.504366   26.909740 O.co2      1 MOL1        -0.6703
       3    O2      18.801154   20.313328   26.449685 O.co2      1 MOL1        -0.6703
       4    C2      20.038396   18.315733   26.647220 C.3        1 MOL1        -0.1963
       5    H1      19.056270   17.869643   26.449174 H          1 MOL1         0.0750
       6    H2      20.313311   18.028127   27.668578 H          1 MOL1         0.0750
       7    C3      21.096704   17.748406   25.659683 C.3        1 MOL1        -0.1860
       8    H3      22.020170   18.341082   25.719195 H          1 MOL1         0.0752
       9    H4      21.365035   16.737261   25.994366 H          1 MOL1         0.0752
      10    C4      20.624087   17.648122   24.188065 C.3        1 MOL1        -0.1858
      11    H5      19.707551   17.044867   24.134374 H          1 MOL1         0.0752
      12    H6      21.388112   17.099639   23.620248 H          1 MOL1         0.0752
      13    C5      20.386327   19.015427   23.507935 C.3        1 MOL1        -0.1858
      14    H7      19.536077   19.523644   23.979947 H          1 MOL1         0.0752
      15    H8      21.266052   19.657430   23.652728 H          1 MOL1         0.0752
      16    C6      20.101379   18.860560   21.998173 C.3        1 MOL1        -0.1858
      17    H9      19.224372   18.214442   21.855258 H          1 MOL1         0.0752
      18    H10     20.950386   18.359910   21.512885 H          1 MOL1         0.0752
      19    C7      19.852570   20.224386   21.320347 C.3        1 MOL1        -0.1834
      20    H11     19.002715   20.727568   21.802175 H          1 MOL1         0.0752
      21    H12     20.728477   20.872857   21.460816 H          1 MOL1         0.0752
      22    C8      19.567749   20.066604   19.813148 C.3        1 MOL1        -0.2849
      23    H13     20.415803   19.593957   19.300528 H          1 MOL1         0.0764
      24    H14     18.676872   19.447508   19.644527 H          1 MOL1         0.0764
      25    H15     19.393256   21.045437   19.347850 H          1 MOL1         0.0764
@<TRIPOS>BOND
    1     1     2    1
    2     1     3    2
    3     1     4    1
    4     4     5    1
    5     4     6    1
    6     4     7    1
    7     7     8    1
    8     7     9    1
    9     7    10    1
   10    10    11    1
   11    10    12    1
   12    10    13    1
   13    13    14    1
   14    13    15    1
   15    13    16    1
   16    16    17    1
   17    16    18    1
   18    16    19    1
   19    19    20    1
   20    19    21    1
   21    19    22    1
   22    22    23    1
   23    22    24    1
   24    22    25    1
@<TRIPOS>SUBSTRUCTURE
       1 MOL1            1 RESIDUE      1      MOL     
@<SCITEGIC>MOL_PROPERTY
VM2 Rank
SciTegic.value.IntegerValue
81

@<SCITEGIC>MOL_PROPERTY
Conf_Id
SciTegic.value.IntegerValue
110

@<SCITEGIC>MOL_PROPERTY
Probability
SciTegic.value.DoubleValue
0.05

@<SCITEGIC>MOL_PROPERTY
Sum Probability
SciTegic.value.DoubleValue
99.05

@<SCITEGIC>MOL_PROPERTY
Delta G
SciTegic.value.DoubleValue
3.690

@<SCITEGIC>MOL_PROPERTY
G
SciTegic.value.DoubleValue
-4.272

@<SCITEGIC>MOL_PROPERTY
E
SciTegic.value.DoubleValue
-29.298

@<SCITEGIC>MOL_PROPERTY
-TS
SciTegic.value.DoubleValue
25.026

@<SCITEGIC>MOL_PROPERTY
U+W
SciTegic.value.DoubleValue
-49.866

@<SCITEGIC>MOL_PROPERTY
U
SciTegic.value.DoubleValue
10.903

@<SCITEGIC>MOL_PROPERTY
W
SciTegic.value.DoubleValue
-60.769

@<SCITEGIC>MOL_PROPERTY
W(PB)
SciTegic.value.DoubleValue
-63.223

@<SCITEGIC>MOL_PROPERTY
W(SA)
SciTegic.value.DoubleValue
2.454

@<SCITEGIC>MOL_PROPERTY
Valence
SciTegic.value.DoubleValue
9.445

@<SCITEGIC>MOL_PROPERTY
Coulomb
SciTegic.value.DoubleValue
0.778

@<SCITEGIC>MOL_PROPERTY
VdW
SciTegic.value.DoubleValue
0.679

@<SCITEGIC>MOL_PROPERTY
VdW6
SciTegic.value.DoubleValue
-10.008

@<SCITEGIC>MOL_PROPERTY
VdW12
SciTegic.value.DoubleValue
10.687

@<SCITEGIC>MOL_PROPERTY
Bond
SciTegic.value.DoubleValue
0.201

@<SCITEGIC>MOL_PROPERTY
Angle
SciTegic.value.DoubleValue
3.198

@<SCITEGIC>MOL_PROPERTY
Pdih
SciTegic.value.DoubleValue
6.039

@<SCITEGIC>MOL_PROPERTY
Idih
SciTegic.value.DoubleValue
0.006

@<SCITEGIC>MOL_PROPERTY
Tether
SciTegic.value.DoubleValue
0.000

@<TRIPOS>MOLECULE
guest-8_vm2.mol2 : vm2 ligand conformer 82
          25          24           1
SMALL
USER_CHARGES
 
@<TRIPOS>ATOM
       1    C1      20.327674   19.864196   26.647060 C.2        1 MOL1         0.6168
       2    O1      21.353334   20.475598   26.420280 O.co2      1 MOL1        -0.6703
       3    O2      19.274451   20.402035   26.928297 O.co2      1 MOL1        -0.6703
       4    C2      20.383943   18.337694   26.643154 C.3        1 MOL1        -0.1963
       5    H1      20.171352   18.019038   27.670155 H          1 MOL1         0.0750
       6    H2      21.409823   18.019325   26.421793 H          1 MOL1         0.0750
       7    C3      19.383487   17.639473   25.679474 C.3        1 MOL1        -0.1860
       8    H3      19.253148   16.602981   26.018774 H          1 MOL1         0.0752
       9    H4      18.394028   18.110532   25.761150 H          1 MOL1         0.0752
      10    C4      19.830907   17.597686   24.197196 C.3        1 MOL1        -0.1858
      11    H5      19.129488   16.956175   23.646327 H          1 MOL1         0.0752
      12    H6      20.814890   17.115112   24.121468 H          1 MOL1         0.0752
      13    C5      19.878093   18.983111   23.513828 C.3        1 MOL1        -0.1858
      14    H7      18.927833   19.508928   23.679868 H          1 MOL1         0.0752
      15    H8      20.667929   19.595429   23.966854 H          1 MOL1         0.0752
      16    C6      20.145389   18.863370   21.997657 C.3        1 MOL1        -0.1858
      17    H9      19.355488   18.258740   21.531345 H          1 MOL1         0.0752
      18    H10     21.093489   18.333079   21.833551 H          1 MOL1         0.0752
      19    C7      20.204107   20.246746   21.316340 C.3        1 MOL1        -0.1834
      20    H11     19.256767   20.779532   21.478032 H          1 MOL1         0.0752
      21    H12     20.994492   20.853962   21.779143 H          1 MOL1         0.0752
      22    C8      20.471615   20.124090   19.802715 C.3        1 MOL1        -0.2849
      23    H13     21.429435   19.622291   19.612577 H          1 MOL1         0.0764
      24    H14     19.678443   19.547347   19.309140 H          1 MOL1         0.0764
      25    H15     20.510204   21.116468   19.334996 H          1 MOL1         0.0764
@<TRIPOS>BOND
    1     1     2    1
    2     1     3    2
    3     1     4    1
    4     4     5    1
    5     4     6    1
    6     4     7    1
    7     7     8    1
    8     7     9    1
    9     7    10    1
   10    10    11    1
   11    10    12    1
   12    10    13    1
   13    13    14    1
   14    13    15    1
   15    13    16    1
   16    16    17    1
   17    16    18    1
   18    16    19    1
   19    19    20    1
   20    19    21    1
   21    19    22    1
   22    22    23    1
   23    22    24    1
   24    22    25    1
@<TRIPOS>SUBSTRUCTURE
       1 MOL1            1 RESIDUE      1      MOL     
@<SCITEGIC>MOL_PROPERTY
VM2 Rank
SciTegic.value.IntegerValue
82

@<SCITEGIC>MOL_PROPERTY
Conf_Id
SciTegic.value.IntegerValue
1278

@<SCITEGIC>MOL_PROPERTY
Probability
SciTegic.value.DoubleValue
0.05

@<SCITEGIC>MOL_PROPERTY
Sum Probability
SciTegic.value.DoubleValue
99.09

@<SCITEGIC>MOL_PROPERTY
Delta G
SciTegic.value.DoubleValue
3.710

@<SCITEGIC>MOL_PROPERTY
G
SciTegic.value.DoubleValue
-4.253

@<SCITEGIC>MOL_PROPERTY
E
SciTegic.value.DoubleValue
-29.279

@<SCITEGIC>MOL_PROPERTY
-TS
SciTegic.value.DoubleValue
25.026

@<SCITEGIC>MOL_PROPERTY
U+W
SciTegic.value.DoubleValue
-49.846

@<SCITEGIC>MOL_PROPERTY
U
SciTegic.value.DoubleValue
10.902

@<SCITEGIC>MOL_PROPERTY
W
SciTegic.value.DoubleValue
-60.749

@<SCITEGIC>MOL_PROPERTY
W(PB)
SciTegic.value.DoubleValue
-63.194

@<SCITEGIC>MOL_PROPERTY
W(SA)
SciTegic.value.DoubleValue
2.445

@<SCITEGIC>MOL_PROPERTY
Valence
SciTegic.value.DoubleValue
9.445

@<SCITEGIC>MOL_PROPERTY
Coulomb
SciTegic.value.DoubleValue
0.778

@<SCITEGIC>MOL_PROPERTY
VdW
SciTegic.value.DoubleValue
0.679

@<SCITEGIC>MOL_PROPERTY
VdW6
SciTegic.value.DoubleValue
-10.008

@<SCITEGIC>MOL_PROPERTY
VdW12
SciTegic.value.DoubleValue
10.687

@<SCITEGIC>MOL_PROPERTY
Bond
SciTegic.value.DoubleValue
0.201

@<SCITEGIC>MOL_PROPERTY
Angle
SciTegic.value.DoubleValue
3.198

@<SCITEGIC>MOL_PROPERTY
Pdih
SciTegic.value.DoubleValue
6.039

@<SCITEGIC>MOL_PROPERTY
Idih
SciTegic.value.DoubleValue
0.006

@<SCITEGIC>MOL_PROPERTY
Tether
SciTegic.value.DoubleValue
0.000

@<TRIPOS>MOLECULE
guest-8_vm2.mol2 : vm2 ligand conformer 83
          25          24           1
SMALL
USER_CHARGES
 
@<TRIPOS>ATOM
       1    C1      20.272353   19.968197   26.978168 C.2        1 MOL1         0.6168
       2    O1      21.202769   19.812108   27.744149 O.co2      1 MOL1        -0.6703
       3    O2      19.232561   20.517043   27.285327 O.co2      1 MOL1        -0.6703
       4    C2      20.408098   19.423837   25.560758 C.3        1 MOL1        -0.1963
       5    H1      21.465482   19.475996   25.275365 H          1 MOL1         0.0750
       6    H2      19.852173   20.093098   24.894617 H          1 MOL1         0.0750
       7    C3      19.886206   17.971263   25.423411 C.3        1 MOL1        -0.1860
       8    H3      20.362106   17.351708   26.196138 H          1 MOL1         0.0752
       9    H4      18.808360   17.953166   25.635985 H          1 MOL1         0.0752
      10    C4      20.153815   17.324178   24.041194 C.3        1 MOL1        -0.1858
      11    H5      19.783613   16.290653   24.082729 H          1 MOL1         0.0752
      12    H6      21.235235   17.246583   23.863769 H          1 MOL1         0.0752
      13    C5      19.463585   18.036627   22.850485 C.3        1 MOL1        -0.1858
      14    H7      19.139159   17.274027   22.129263 H          1 MOL1         0.0752
      15    H8      18.550071   18.542448   23.191916 H          1 MOL1         0.0752
      16    C6      20.388621   19.033426   22.112753 C.3        1 MOL1        -0.1858
      17    H9      21.266820   18.497851   21.727080 H          1 MOL1         0.0752
      18    H10     20.764805   19.793152   22.807854 H          1 MOL1         0.0752
      19    C7      19.659981   19.729500   20.944075 C.3        1 MOL1        -0.1834
      20    H11     19.291048   18.975335   20.235177 H          1 MOL1         0.0752
      21    H12     18.780610   20.267516   21.324452 H          1 MOL1         0.0752
      22    C8      20.585010   20.717820   20.205680 C.3        1 MOL1        -0.2849
      23    H13     21.458767   20.200720   19.787933 H          1 MOL1         0.0764
      24    H14     20.050985   21.203296   19.378531 H          1 MOL1         0.0764
      25    H15     20.943291   21.502591   20.884759 H          1 MOL1         0.0764
@<TRIPOS>BOND
    1     1     2    1
    2     1     3    2
    3     1     4    1
    4     4     5    1
    5     4     6    1
    6     4     7    1
    7     7     8    1
    8     7     9    1
    9     7    10    1
   10    10    11    1
   11    10    12    1
   12    10    13    1
   13    13    14    1
   14    13    15    1
   15    13    16    1
   16    16    17    1
   17    16    18    1
   18    16    19    1
   19    19    20    1
   20    19    21    1
   21    19    22    1
   22    22    23    1
   23    22    24    1
   24    22    25    1
@<TRIPOS>SUBSTRUCTURE
       1 MOL1            1 RESIDUE      1      MOL     
@<SCITEGIC>MOL_PROPERTY
VM2 Rank
SciTegic.value.IntegerValue
83

@<SCITEGIC>MOL_PROPERTY
Conf_Id
SciTegic.value.IntegerValue
1191

@<SCITEGIC>MOL_PROPERTY
Probability
SciTegic.value.DoubleValue
0.04

@<SCITEGIC>MOL_PROPERTY
Sum Probability
SciTegic.value.DoubleValue
99.14

@<SCITEGIC>MOL_PROPERTY
Delta G
SciTegic.value.DoubleValue
3.720

@<SCITEGIC>MOL_PROPERTY
G
SciTegic.value.DoubleValue
-4.242

@<SCITEGIC>MOL_PROPERTY
E
SciTegic.value.DoubleValue
-29.024

@<SCITEGIC>MOL_PROPERTY
-TS
SciTegic.value.DoubleValue
24.781

@<SCITEGIC>MOL_PROPERTY
U+W
SciTegic.value.DoubleValue
-49.591

@<SCITEGIC>MOL_PROPERTY
U
SciTegic.value.DoubleValue
10.016

@<SCITEGIC>MOL_PROPERTY
W
SciTegic.value.DoubleValue
-59.607

@<SCITEGIC>MOL_PROPERTY
W(PB)
SciTegic.value.DoubleValue
-62.068

@<SCITEGIC>MOL_PROPERTY
W(SA)
SciTegic.value.DoubleValue
2.460

@<SCITEGIC>MOL_PROPERTY
Valence
SciTegic.value.DoubleValue
10.523

@<SCITEGIC>MOL_PROPERTY
Coulomb
SciTegic.value.DoubleValue
-1.441

@<SCITEGIC>MOL_PROPERTY
VdW
SciTegic.value.DoubleValue
0.934

@<SCITEGIC>MOL_PROPERTY
VdW6
SciTegic.value.DoubleValue
-9.399

@<SCITEGIC>MOL_PROPERTY
VdW12
SciTegic.value.DoubleValue
10.333

@<SCITEGIC>MOL_PROPERTY
Bond
SciTegic.value.DoubleValue
0.199

@<SCITEGIC>MOL_PROPERTY
Angle
SciTegic.value.DoubleValue
2.989

@<SCITEGIC>MOL_PROPERTY
Pdih
SciTegic.value.DoubleValue
7.334

@<SCITEGIC>MOL_PROPERTY
Idih
SciTegic.value.DoubleValue
0.001

@<SCITEGIC>MOL_PROPERTY
Tether
SciTegic.value.DoubleValue
0.000

@<TRIPOS>MOLECULE
guest-8_vm2.mol2 : vm2 ligand conformer 84
          25          24           1
SMALL
USER_CHARGES
 
@<TRIPOS>ATOM
       1    C1      20.392909   19.481463   27.136434 C.2        1 MOL1         0.6168
       2    O1      21.428619   20.116618   27.162057 O.co2      1 MOL1        -0.6703
       3    O2      20.002038   18.794048   28.059247 O.co2      1 MOL1        -0.6703
       4    C2      19.547137   19.533331   25.869242 C.3        1 MOL1        -0.1963
       5    H1      19.670836   20.527991   25.426228 H          1 MOL1         0.0750
       6    H2      18.494058   19.433393   26.157681 H          1 MOL1         0.0750
       7    C3      19.929158   18.431095   24.847742 C.3        1 MOL1        -0.1860
       8    H3      20.976763   18.558875   24.544531 H          1 MOL1         0.0752
       9    H4      19.874005   17.453519   25.346120 H          1 MOL1         0.0752
      10    C4      19.012599   18.401270   23.598874 C.3        1 MOL1        -0.1858
      11    H5      17.985083   18.180202   23.917907 H          1 MOL1         0.0752
      12    H6      19.311931   17.561371   22.958203 H          1 MOL1         0.0752
      13    C5      19.000752   19.705365   22.758661 C.3        1 MOL1        -0.1858
      14    H7      18.328118   19.566701   21.902261 H          1 MOL1         0.0752
      15    H8      18.552602   20.513696   23.350854 H          1 MOL1         0.0752
      16    C6      20.388801   20.173025   22.247104 C.3        1 MOL1        -0.1858
      17    H9      21.016347   20.450470   23.104322 H          1 MOL1         0.0752
      18    H10     20.255628   21.095297   21.665692 H          1 MOL1         0.0752
      19    C7      21.151607   19.141855   21.379318 C.3        1 MOL1        -0.1834
      20    H11     22.127232   19.567065   21.106876 H          1 MOL1         0.0752
      21    H12     21.366519   18.239202   21.966384 H          1 MOL1         0.0752
      22    C8      20.399380   18.755930   20.087321 C.3        1 MOL1        -0.2849
      23    H13     20.157512   19.646399   19.492767 H          1 MOL1         0.0764
      24    H14     21.015599   18.091874   19.467626 H          1 MOL1         0.0764
      25    H15     19.464515   18.227816   20.313178 H          1 MOL1         0.0764
@<TRIPOS>BOND
    1     1     2    1
    2     1     3    2
    3     1     4    1
    4     4     5    1
    5     4     6    1
    6     4     7    1
    7     7     8    1
    8     7     9    1
    9     7    10    1
   10    10    11    1
   11    10    12    1
   12    10    13    1
   13    13    14    1
   14    13    15    1
   15    13    16    1
   16    16    17    1
   17    16    18    1
   18    16    19    1
   19    19    20    1
   20    19    21    1
   21    19    22    1
   22    22    23    1
   23    22    24    1
   24    22    25    1
@<TRIPOS>SUBSTRUCTURE
       1 MOL1            1 RESIDUE      1      MOL     
@<SCITEGIC>MOL_PROPERTY
VM2 Rank
SciTegic.value.IntegerValue
84

@<SCITEGIC>MOL_PROPERTY
Conf_Id
SciTegic.value.IntegerValue
253

@<SCITEGIC>MOL_PROPERTY
Probability
SciTegic.value.DoubleValue
0.04

@<SCITEGIC>MOL_PROPERTY
Sum Probability
SciTegic.value.DoubleValue
99.18

@<SCITEGIC>MOL_PROPERTY
Delta G
SciTegic.value.DoubleValue
3.736

@<SCITEGIC>MOL_PROPERTY
G
SciTegic.value.DoubleValue
-4.226

@<SCITEGIC>MOL_PROPERTY
E
SciTegic.value.DoubleValue
-29.676

@<SCITEGIC>MOL_PROPERTY
-TS
SciTegic.value.DoubleValue
25.450

@<SCITEGIC>MOL_PROPERTY
U+W
SciTegic.value.DoubleValue
-50.244

@<SCITEGIC>MOL_PROPERTY
U
SciTegic.value.DoubleValue
9.324

@<SCITEGIC>MOL_PROPERTY
W
SciTegic.value.DoubleValue
-59.568

@<SCITEGIC>MOL_PROPERTY
W(PB)
SciTegic.value.DoubleValue
-61.965

@<SCITEGIC>MOL_PROPERTY
W(SA)
SciTegic.value.DoubleValue
2.397

@<SCITEGIC>MOL_PROPERTY
Valence
SciTegic.value.DoubleValue
9.360

@<SCITEGIC>MOL_PROPERTY
Coulomb
SciTegic.value.DoubleValue
-0.854

@<SCITEGIC>MOL_PROPERTY
VdW
SciTegic.value.DoubleValue
0.819

@<SCITEGIC>MOL_PROPERTY
VdW6
SciTegic.value.DoubleValue
-11.207

@<SCITEGIC>MOL_PROPERTY
VdW12
SciTegic.value.DoubleValue
12.026

@<SCITEGIC>MOL_PROPERTY
Bond
SciTegic.value.DoubleValue
0.279

@<SCITEGIC>MOL_PROPERTY
Angle
SciTegic.value.DoubleValue
3.545

@<SCITEGIC>MOL_PROPERTY
Pdih
SciTegic.value.DoubleValue
5.535

@<SCITEGIC>MOL_PROPERTY
Idih
SciTegic.value.DoubleValue
0.001

@<SCITEGIC>MOL_PROPERTY
Tether
SciTegic.value.DoubleValue
0.000

@<TRIPOS>MOLECULE
guest-8_vm2.mol2 : vm2 ligand conformer 85
          25          24           1
SMALL
USER_CHARGES
 
@<TRIPOS>ATOM
       1    C1      19.754838   18.823282   27.017394 C.2        1 MOL1         0.6168
       2    O1      20.506648   18.272096   27.796970 O.co2      1 MOL1        -0.6703
       3    O2      18.663499   19.258135   27.328244 O.co2      1 MOL1        -0.6703
       4    C2      20.216435   18.999749   25.575313 C.3        1 MOL1        -0.1963
       5    H1      19.329980   18.937672   24.934180 H          1 MOL1         0.0750
       6    H2      20.868999   18.156230   25.320619 H          1 MOL1         0.0750
       7    C3      20.957191   20.340721   25.342331 C.3        1 MOL1        -0.1860
       8    H3      20.263682   21.173001   25.525701 H          1 MOL1         0.0752
       9    H4      21.756175   20.436132   26.090634 H          1 MOL1         0.0752
      10    C4      21.583963   20.487970   23.932959 C.3        1 MOL1        -0.1858
      11    H5      22.352402   19.717999   23.779277 H          1 MOL1         0.0752
      12    H6      22.115449   21.449094   23.906249 H          1 MOL1         0.0752
      13    C5      20.562919   20.468488   22.767249 C.3        1 MOL1        -0.1858
      14    H7      19.588522   20.839687   23.113227 H          1 MOL1         0.0752
      15    H8      20.901970   21.173386   21.995799 H          1 MOL1         0.0752
      16    C6      20.407806   19.075921   22.111316 C.3        1 MOL1        -0.1858
      17    H9      20.104472   18.332603   22.857860 H          1 MOL1         0.0752
      18    H10     21.380041   18.748319   21.718563 H          1 MOL1         0.0752
      19    C7      19.374199   19.097308   20.965694 C.3        1 MOL1        -0.1834
      20    H11     18.399207   19.423809   21.353289 H          1 MOL1         0.0752
      21    H12     19.677761   19.830794   20.205917 H          1 MOL1         0.0752
      22    C8      19.225501   17.710331   20.308531 C.3        1 MOL1        -0.2849
      23    H13     18.891216   16.962954   21.040010 H          1 MOL1         0.0764
      24    H14     18.487202   17.743939   19.496847 H          1 MOL1         0.0764
      25    H15     20.180131   17.372159   19.884646 H          1 MOL1         0.0764
@<TRIPOS>BOND
    1     1     2    1
    2     1     3    2
    3     1     4    1
    4     4     5    1
    5     4     6    1
    6     4     7    1
    7     7     8    1
    8     7     9    1
    9     7    10    1
   10    10    11    1
   11    10    12    1
   12    10    13    1
   13    13    14    1
   14    13    15    1
   15    13    16    1
   16    16    17    1
   17    16    18    1
   18    16    19    1
   19    19    20    1
   20    19    21    1
   21    19    22    1
   22    22    23    1
   23    22    24    1
   24    22    25    1
@<TRIPOS>SUBSTRUCTURE
       1 MOL1            1 RESIDUE      1      MOL     
@<SCITEGIC>MOL_PROPERTY
VM2 Rank
SciTegic.value.IntegerValue
85

@<SCITEGIC>MOL_PROPERTY
Conf_Id
SciTegic.value.IntegerValue
614

@<SCITEGIC>MOL_PROPERTY
Probability
SciTegic.value.DoubleValue
0.04

@<SCITEGIC>MOL_PROPERTY
Sum Probability
SciTegic.value.DoubleValue
99.22

@<SCITEGIC>MOL_PROPERTY
Delta G
SciTegic.value.DoubleValue
3.762

@<SCITEGIC>MOL_PROPERTY
G
SciTegic.value.DoubleValue
-4.200

@<SCITEGIC>MOL_PROPERTY
E
SciTegic.value.DoubleValue
-28.981

@<SCITEGIC>MOL_PROPERTY
-TS
SciTegic.value.DoubleValue
24.781

@<SCITEGIC>MOL_PROPERTY
U+W
SciTegic.value.DoubleValue
-49.549

@<SCITEGIC>MOL_PROPERTY
U
SciTegic.value.DoubleValue
10.016

@<SCITEGIC>MOL_PROPERTY
W
SciTegic.value.DoubleValue
-59.565

@<SCITEGIC>MOL_PROPERTY
W(PB)
SciTegic.value.DoubleValue
-62.019

@<SCITEGIC>MOL_PROPERTY
W(SA)
SciTegic.value.DoubleValue
2.454

@<SCITEGIC>MOL_PROPERTY
Valence
SciTegic.value.DoubleValue
10.523

@<SCITEGIC>MOL_PROPERTY
Coulomb
SciTegic.value.DoubleValue
-1.441

@<SCITEGIC>MOL_PROPERTY
VdW
SciTegic.value.DoubleValue
0.934

@<SCITEGIC>MOL_PROPERTY
VdW6
SciTegic.value.DoubleValue
-9.398

@<SCITEGIC>MOL_PROPERTY
VdW12
SciTegic.value.DoubleValue
10.333

@<SCITEGIC>MOL_PROPERTY
Bond
SciTegic.value.DoubleValue
0.199

@<SCITEGIC>MOL_PROPERTY
Angle
SciTegic.value.DoubleValue
2.988

@<SCITEGIC>MOL_PROPERTY
Pdih
SciTegic.value.DoubleValue
7.334

@<SCITEGIC>MOL_PROPERTY
Idih
SciTegic.value.DoubleValue
0.001

@<SCITEGIC>MOL_PROPERTY
Tether
SciTegic.value.DoubleValue
0.000

@<TRIPOS>MOLECULE
guest-8_vm2.mol2 : vm2 ligand conformer 86
          25          24           1
SMALL
USER_CHARGES
 
@<TRIPOS>ATOM
       1    C1      20.369953   19.516902   27.135416 C.2        1 MOL1         0.6168
       2    O1      21.372409   20.203389   27.159767 O.co2      1 MOL1        -0.6703
       3    O2      19.559299   19.477299   28.039947 O.co2      1 MOL1        -0.6703
       4    C2      20.104103   18.673824   25.893506 C.3        1 MOL1        -0.1963
       5    H1      19.574827   17.765451   26.204772 H          1 MOL1         0.0750
       6    H2      21.073443   18.363380   25.487401 H          1 MOL1         0.0750
       7    C3      19.281258   19.431191   24.819424 C.3        1 MOL1        -0.1860
       8    H3      18.354143   19.799473   25.279756 H          1 MOL1         0.0752
       9    H4      19.834115   20.322580   24.494588 H          1 MOL1         0.0752
      10    C4      18.911344   18.557560   23.594443 C.3        1 MOL1        -0.1858
      11    H5      18.284185   19.147676   22.913323 H          1 MOL1         0.0752
      12    H6      18.281176   17.723197   23.930850 H          1 MOL1         0.0752
      13    C5      20.117693   17.981316   22.807403 C.3        1 MOL1        -0.1858
      14    H7      20.656428   17.266395   23.442687 H          1 MOL1         0.0752
      15    H8      19.738155   17.390222   21.963812 H          1 MOL1         0.0752
      16    C6      21.125234   19.036277   22.279208 C.3        1 MOL1        -0.1858
      17    H9      21.926982   18.515438   21.738570 H          1 MOL1         0.0752
      18    H10     21.612924   19.529630   23.130310 H          1 MOL1         0.0752
      19    C7      20.519043   20.118179   21.351707 C.3        1 MOL1        -0.1834
      20    H11     19.768446   20.705765   21.896651 H          1 MOL1         0.0752
      21    H12     21.312990   20.823819   21.071363 H          1 MOL1         0.0752
      22    C8      19.892664   19.538062   20.065178 C.3        1 MOL1        -0.2849
      23    H13     19.022761   18.909676   20.293845 H          1 MOL1         0.0764
      24    H14     19.554928   20.346379   19.403908 H          1 MOL1         0.0764
      25    H15     20.621335   18.930615   19.512932 H          1 MOL1         0.0764
@<TRIPOS>BOND
    1     1     2    1
    2     1     3    2
    3     1     4    1
    4     4     5    1
    5     4     6    1
    6     4     7    1
    7     7     8    1
    8     7     9    1
    9     7    10    1
   10    10    11    1
   11    10    12    1
   12    10    13    1
   13    13    14    1
   14    13    15    1
   15    13    16    1
   16    16    17    1
   17    16    18    1
   18    16    19    1
   19    19    20    1
   20    19    21    1
   21    19    22    1
   22    22    23    1
   23    22    24    1
   24    22    25    1
@<TRIPOS>SUBSTRUCTURE
       1 MOL1            1 RESIDUE      1      MOL     
@<SCITEGIC>MOL_PROPERTY
VM2 Rank
SciTegic.value.IntegerValue
86

@<SCITEGIC>MOL_PROPERTY
Conf_Id
SciTegic.value.IntegerValue
591

@<SCITEGIC>MOL_PROPERTY
Probability
SciTegic.value.DoubleValue
0.04

@<SCITEGIC>MOL_PROPERTY
Sum Probability
SciTegic.value.DoubleValue
99.26

@<SCITEGIC>MOL_PROPERTY
Delta G
SciTegic.value.DoubleValue
3.781

@<SCITEGIC>MOL_PROPERTY
G
SciTegic.value.DoubleValue
-4.182

@<SCITEGIC>MOL_PROPERTY
E
SciTegic.value.DoubleValue
-29.632

@<SCITEGIC>MOL_PROPERTY
-TS
SciTegic.value.DoubleValue
25.451

@<SCITEGIC>MOL_PROPERTY
U+W
SciTegic.value.DoubleValue
-50.200

@<SCITEGIC>MOL_PROPERTY
U
SciTegic.value.DoubleValue
9.324

@<SCITEGIC>MOL_PROPERTY
W
SciTegic.value.DoubleValue
-59.524

@<SCITEGIC>MOL_PROPERTY
W(PB)
SciTegic.value.DoubleValue
-61.904

@<SCITEGIC>MOL_PROPERTY
W(SA)
SciTegic.value.DoubleValue
2.381

@<SCITEGIC>MOL_PROPERTY
Valence
SciTegic.value.DoubleValue
9.360

@<SCITEGIC>MOL_PROPERTY
Coulomb
SciTegic.value.DoubleValue
-0.855

@<SCITEGIC>MOL_PROPERTY
VdW
SciTegic.value.DoubleValue
0.819

@<SCITEGIC>MOL_PROPERTY
VdW6
SciTegic.value.DoubleValue
-11.207

@<SCITEGIC>MOL_PROPERTY
VdW12
SciTegic.value.DoubleValue
12.026

@<SCITEGIC>MOL_PROPERTY
Bond
SciTegic.value.DoubleValue
0.279

@<SCITEGIC>MOL_PROPERTY
Angle
SciTegic.value.DoubleValue
3.545

@<SCITEGIC>MOL_PROPERTY
Pdih
SciTegic.value.DoubleValue
5.535

@<SCITEGIC>MOL_PROPERTY
Idih
SciTegic.value.DoubleValue
0.001

@<SCITEGIC>MOL_PROPERTY
Tether
SciTegic.value.DoubleValue
0.000

@<TRIPOS>MOLECULE
guest-8_vm2.mol2 : vm2 ligand conformer 87
          25          24           1
SMALL
USER_CHARGES
 
@<TRIPOS>ATOM
       1    C1      19.551524   19.158367   26.967141 C.2        1 MOL1         0.6168
       2    O1      20.043681   19.018991   28.069496 O.co2      1 MOL1        -0.6703
       3    O2      18.465442   19.668052   26.774206 O.co2      1 MOL1        -0.6703
       4    C2      20.350765   18.686957   25.757757 C.3        1 MOL1        -0.1963
       5    H1      19.639906   18.347517   24.998016 H          1 MOL1         0.0750
       6    H2      20.936639   17.810912   26.060382 H          1 MOL1         0.0750
       7    C3      21.290405   19.785885   25.194508 C.3        1 MOL1        -0.1860
       8    H3      20.714063   20.689660   24.952804 H          1 MOL1         0.0752
       9    H4      21.989395   20.073883   25.991951 H          1 MOL1         0.0752
      10    C4      22.107659   19.324593   23.961076 C.3        1 MOL1        -0.1858
      11    H5      22.283358   18.240995   24.004172 H          1 MOL1         0.0752
      12    H6      23.101269   19.790105   24.015741 H          1 MOL1         0.0752
      13    C5      21.488244   19.708865   22.593841 C.3        1 MOL1        -0.1858
      14    H7      21.410316   20.802392   22.523246 H          1 MOL1         0.0752
      15    H8      22.183480   19.398163   21.802034 H          1 MOL1         0.0752
      16    C6      20.104199   19.078278   22.322028 C.3        1 MOL1        -0.1858
      17    H9      19.369850   19.480632   23.031943 H          1 MOL1         0.0752
      18    H10     20.155208   17.993045   22.484153 H          1 MOL1         0.0752
      19    C7      19.618709   19.362663   20.885002 C.3        1 MOL1        -0.1834
      20    H11     19.570429   20.447764   20.718675 H          1 MOL1         0.0752
      21    H12     20.342152   18.960468   20.162332 H          1 MOL1         0.0752
      22    C8      18.232373   18.741349   20.620944 C.3        1 MOL1        -0.2849
      23    H13     17.481406   19.149657   21.309969 H          1 MOL1         0.0764
      24    H14     17.902333   18.953029   19.595617 H          1 MOL1         0.0764
      25    H15     18.259484   17.651443   20.750255 H          1 MOL1         0.0764
@<TRIPOS>BOND
    1     1     2    1
    2     1     3    2
    3     1     4    1
    4     4     5    1
    5     4     6    1
    6     4     7    1
    7     7     8    1
    8     7     9    1
    9     7    10    1
   10    10    11    1
   11    10    12    1
   12    10    13    1
   13    13    14    1
   14    13    15    1
   15    13    16    1
   16    16    17    1
   17    16    18    1
   18    16    19    1
   19    19    20    1
   20    19    21    1
   21    19    22    1
   22    22    23    1
   23    22    24    1
   24    22    25    1
@<TRIPOS>SUBSTRUCTURE
       1 MOL1            1 RESIDUE      1      MOL     
@<SCITEGIC>MOL_PROPERTY
VM2 Rank
SciTegic.value.IntegerValue
87

@<SCITEGIC>MOL_PROPERTY
Conf_Id
SciTegic.value.IntegerValue
1241

@<SCITEGIC>MOL_PROPERTY
Probability
SciTegic.value.DoubleValue
0.04

@<SCITEGIC>MOL_PROPERTY
Sum Probability
SciTegic.value.DoubleValue
99.30

@<SCITEGIC>MOL_PROPERTY
Delta G
SciTegic.value.DoubleValue
3.844

@<SCITEGIC>MOL_PROPERTY
G
SciTegic.value.DoubleValue
-4.118

@<SCITEGIC>MOL_PROPERTY
E
SciTegic.value.DoubleValue
-28.907

@<SCITEGIC>MOL_PROPERTY
-TS
SciTegic.value.DoubleValue
24.789

@<SCITEGIC>MOL_PROPERTY
U+W
SciTegic.value.DoubleValue
-49.475

@<SCITEGIC>MOL_PROPERTY
U
SciTegic.value.DoubleValue
10.344

@<SCITEGIC>MOL_PROPERTY
W
SciTegic.value.DoubleValue
-59.819

@<SCITEGIC>MOL_PROPERTY
W(PB)
SciTegic.value.DoubleValue
-62.261

@<SCITEGIC>MOL_PROPERTY
W(SA)
SciTegic.value.DoubleValue
2.442

@<SCITEGIC>MOL_PROPERTY
Valence
SciTegic.value.DoubleValue
10.527

@<SCITEGIC>MOL_PROPERTY
Coulomb
SciTegic.value.DoubleValue
-1.067

@<SCITEGIC>MOL_PROPERTY
VdW
SciTegic.value.DoubleValue
0.883

@<SCITEGIC>MOL_PROPERTY
VdW6
SciTegic.value.DoubleValue
-9.455

@<SCITEGIC>MOL_PROPERTY
VdW12
SciTegic.value.DoubleValue
10.339

@<SCITEGIC>MOL_PROPERTY
Bond
SciTegic.value.DoubleValue
0.207

@<SCITEGIC>MOL_PROPERTY
Angle
SciTegic.value.DoubleValue
3.010

@<SCITEGIC>MOL_PROPERTY
Pdih
SciTegic.value.DoubleValue
7.310

@<SCITEGIC>MOL_PROPERTY
Idih
SciTegic.value.DoubleValue
0.001

@<SCITEGIC>MOL_PROPERTY
Tether
SciTegic.value.DoubleValue
0.000

@<TRIPOS>MOLECULE
guest-8_vm2.mol2 : vm2 ligand conformer 88
          25          24           1
SMALL
USER_CHARGES
 
@<TRIPOS>ATOM
       1    C1      20.767377   19.235734   26.953160 C.2        1 MOL1         0.6168
       2    O1      21.775047   19.879222   26.736134 O.co2      1 MOL1        -0.6703
       3    O2      20.322577   19.036123   28.066327 O.co2      1 MOL1        -0.6703
       4    C2      20.006851   18.665112   25.761685 C.3        1 MOL1        -0.1963
       5    H1      19.543997   17.722196   26.076264 H          1 MOL1         0.0750
       6    H2      20.737399   18.417637   24.985284 H          1 MOL1         0.0750
       7    C3      18.922656   19.635162   25.221928 C.3        1 MOL1        -0.1860
       8    H3      18.211310   19.833211   26.035691 H          1 MOL1         0.0752
       9    H4      19.373941   20.604438   24.968458 H          1 MOL1         0.0752
      10    C4      18.142364   19.072230   24.006897 C.3        1 MOL1        -0.1858
      11    H5      17.099270   19.408076   24.085089 H          1 MOL1         0.0752
      12    H6      18.106513   17.975163   24.052376 H          1 MOL1         0.0752
      13    C5      18.676449   19.530015   22.626370 C.3        1 MOL1        -0.1858
      14    H7      18.008129   19.132636   21.850300 H          1 MOL1         0.0752
      15    H8      18.613546   20.624504   22.555696 H          1 MOL1         0.0752
      16    C6      20.122604   19.079505   22.321771 C.3        1 MOL1        -0.1858
      17    H9      20.213298   17.996803   22.483475 H          1 MOL1         0.0752
      18    H10     20.816229   19.572748   23.015118 H          1 MOL1         0.0752
      19    C7      20.534826   19.420955   20.874324 C.3        1 MOL1        -0.1834
      20    H11     19.851687   18.929236   20.167985 H          1 MOL1         0.0752
      21    H12     20.441345   20.503173   20.708479 H          1 MOL1         0.0752
      22    C8      21.982249   18.979942   20.577404 C.3        1 MOL1        -0.2849
      23    H13     22.691140   19.481196   21.249446 H          1 MOL1         0.0764
      24    H14     22.096486   17.895589   20.705779 H          1 MOL1         0.0764
      25    H15     22.259003   19.230161   19.545014 H          1 MOL1         0.0764
@<TRIPOS>BOND
    1     1     2    1
    2     1     3    2
    3     1     4    1
    4     4     5    1
    5     4     6    1
    6     4     7    1
    7     7     8    1
    8     7     9    1
    9     7    10    1
   10    10    11    1
   11    10    12    1
   12    10    13    1
   13    13    14    1
   14    13    15    1
   15    13    16    1
   16    16    17    1
   17    16    18    1
   18    16    19    1
   19    19    20    1
   20    19    21    1
   21    19    22    1
   22    22    23    1
   23    22    24    1
   24    22    25    1
@<TRIPOS>SUBSTRUCTURE
       1 MOL1            1 RESIDUE      1      MOL     
@<SCITEGIC>MOL_PROPERTY
VM2 Rank
SciTegic.value.IntegerValue
88

@<SCITEGIC>MOL_PROPERTY
Conf_Id
SciTegic.value.IntegerValue
1075

@<SCITEGIC>MOL_PROPERTY
Probability
SciTegic.value.DoubleValue
0.04

@<SCITEGIC>MOL_PROPERTY
Sum Probability
SciTegic.value.DoubleValue
99.33

@<SCITEGIC>MOL_PROPERTY
Delta G
SciTegic.value.DoubleValue
3.860

@<SCITEGIC>MOL_PROPERTY
G
SciTegic.value.DoubleValue
-4.103

@<SCITEGIC>MOL_PROPERTY
E
SciTegic.value.DoubleValue
-28.891

@<SCITEGIC>MOL_PROPERTY
-TS
SciTegic.value.DoubleValue
24.789

@<SCITEGIC>MOL_PROPERTY
U+W
SciTegic.value.DoubleValue
-49.459

@<SCITEGIC>MOL_PROPERTY
U
SciTegic.value.DoubleValue
10.344

@<SCITEGIC>MOL_PROPERTY
W
SciTegic.value.DoubleValue
-59.803

@<SCITEGIC>MOL_PROPERTY
W(PB)
SciTegic.value.DoubleValue
-62.244

@<SCITEGIC>MOL_PROPERTY
W(SA)
SciTegic.value.DoubleValue
2.441

@<SCITEGIC>MOL_PROPERTY
Valence
SciTegic.value.DoubleValue
10.527

@<SCITEGIC>MOL_PROPERTY
Coulomb
SciTegic.value.DoubleValue
-1.067

@<SCITEGIC>MOL_PROPERTY
VdW
SciTegic.value.DoubleValue
0.883

@<SCITEGIC>MOL_PROPERTY
VdW6
SciTegic.value.DoubleValue
-9.455

@<SCITEGIC>MOL_PROPERTY
VdW12
SciTegic.value.DoubleValue
10.338

@<SCITEGIC>MOL_PROPERTY
Bond
SciTegic.value.DoubleValue
0.207

@<SCITEGIC>MOL_PROPERTY
Angle
SciTegic.value.DoubleValue
3.010

@<SCITEGIC>MOL_PROPERTY
Pdih
SciTegic.value.DoubleValue
7.309

@<SCITEGIC>MOL_PROPERTY
Idih
SciTegic.value.DoubleValue
0.001

@<SCITEGIC>MOL_PROPERTY
Tether
SciTegic.value.DoubleValue
0.000

@<TRIPOS>MOLECULE
guest-8_vm2.mol2 : vm2 ligand conformer 89
          25          24           1
SMALL
USER_CHARGES
 
@<TRIPOS>ATOM
       1    C1      20.348430   19.821917   27.087664 C.2        1 MOL1         0.6168
       2    O1      21.474827   20.265304   27.193873 O.co2      1 MOL1        -0.6703
       3    O2      19.370199   20.341738   27.587212 O.co2      1 MOL1        -0.6703
       4    C2      20.148808   18.552769   26.266912 C.3        1 MOL1        -0.1963
       5    H1      19.319160   17.988493   26.709371 H          1 MOL1         0.0750
       6    H2      21.050447   17.936638   26.366959 H          1 MOL1         0.0750
       7    C3      19.862991   18.842547   24.772801 C.3        1 MOL1        -0.1860
       8    H3      18.961658   19.465284   24.689339 H          1 MOL1         0.0752
       9    H4      20.698753   19.422861   24.360218 H          1 MOL1         0.0752
      10    C4      19.677039   17.541452   23.960581 C.3        1 MOL1        -0.1858
      11    H5      18.922804   16.915539   24.456832 H          1 MOL1         0.0752
      12    H6      20.612669   16.965834   23.974419 H          1 MOL1         0.0752
      13    C5      19.232761   17.765237   22.493257 C.3        1 MOL1        -0.1858
      14    H7      19.084448   16.776137   22.038789 H          1 MOL1         0.0752
      15    H8      18.249850   18.255227   22.467495 H          1 MOL1         0.0752
      16    C6      20.247174   18.548772   21.621800 C.3        1 MOL1        -0.1858
      17    H9      20.235354   18.125368   20.608129 H          1 MOL1         0.0752
      18    H10     21.266600   18.399719   22.003157 H          1 MOL1         0.0752
      19    C7      19.926943   20.057848   21.515991 C.3        1 MOL1        -0.1834
      20    H11     18.927163   20.191610   21.080438 H          1 MOL1         0.0752
      21    H12     19.899257   20.517317   22.511383 H          1 MOL1         0.0752
      22    C8      20.963827   20.796414   20.645910 C.3        1 MOL1        -0.2849
      23    H13     20.987323   20.385501   19.628119 H          1 MOL1         0.0764
      24    H14     20.718938   21.864119   20.574864 H          1 MOL1         0.0764
      25    H15     21.970390   20.707470   21.075175 H          1 MOL1         0.0764
@<TRIPOS>BOND
    1     1     2    1
    2     1     3    2
    3     1     4    1
    4     4     5    1
    5     4     6    1
    6     4     7    1
    7     7     8    1
    8     7     9    1
    9     7    10    1
   10    10    11    1
   11    10    12    1
   12    10    13    1
   13    13    14    1
   14    13    15    1
   15    13    16    1
   16    16    17    1
   17    16    18    1
   18    16    19    1
   19    19    20    1
   20    19    21    1
   21    19    22    1
   22    22    23    1
   23    22    24    1
   24    22    25    1
@<TRIPOS>SUBSTRUCTURE
       1 MOL1            1 RESIDUE      1      MOL     
@<SCITEGIC>MOL_PROPERTY
VM2 Rank
SciTegic.value.IntegerValue
89

@<SCITEGIC>MOL_PROPERTY
Conf_Id
SciTegic.value.IntegerValue
7

@<SCITEGIC>MOL_PROPERTY
Probability
SciTegic.value.DoubleValue
0.04

@<SCITEGIC>MOL_PROPERTY
Sum Probability
SciTegic.value.DoubleValue
99.37

@<SCITEGIC>MOL_PROPERTY
Delta G
SciTegic.value.DoubleValue
3.865

@<SCITEGIC>MOL_PROPERTY
G
SciTegic.value.DoubleValue
-4.098

@<SCITEGIC>MOL_PROPERTY
E
SciTegic.value.DoubleValue
-28.879

@<SCITEGIC>MOL_PROPERTY
-TS
SciTegic.value.DoubleValue
24.782

@<SCITEGIC>MOL_PROPERTY
U+W
SciTegic.value.DoubleValue
-49.447

@<SCITEGIC>MOL_PROPERTY
U
SciTegic.value.DoubleValue
10.480

@<SCITEGIC>MOL_PROPERTY
W
SciTegic.value.DoubleValue
-59.927

@<SCITEGIC>MOL_PROPERTY
W(PB)
SciTegic.value.DoubleValue
-62.373

@<SCITEGIC>MOL_PROPERTY
W(SA)
SciTegic.value.DoubleValue
2.445

@<SCITEGIC>MOL_PROPERTY
Valence
SciTegic.value.DoubleValue
10.552

@<SCITEGIC>MOL_PROPERTY
Coulomb
SciTegic.value.DoubleValue
-0.995

@<SCITEGIC>MOL_PROPERTY
VdW
SciTegic.value.DoubleValue
0.923

@<SCITEGIC>MOL_PROPERTY
VdW6
SciTegic.value.DoubleValue
-9.371

@<SCITEGIC>MOL_PROPERTY
VdW12
SciTegic.value.DoubleValue
10.295

@<SCITEGIC>MOL_PROPERTY
Bond
SciTegic.value.DoubleValue
0.194

@<SCITEGIC>MOL_PROPERTY
Angle
SciTegic.value.DoubleValue
2.991

@<SCITEGIC>MOL_PROPERTY
Pdih
SciTegic.value.DoubleValue
7.366

@<SCITEGIC>MOL_PROPERTY
Idih
SciTegic.value.DoubleValue
0.001

@<SCITEGIC>MOL_PROPERTY
Tether
SciTegic.value.DoubleValue
0.000

@<TRIPOS>MOLECULE
guest-8_vm2.mol2 : vm2 ligand conformer 90
          25          24           1
SMALL
USER_CHARGES
 
@<TRIPOS>ATOM
       1    C1      19.742662   19.604836   27.188316 C.2        1 MOL1         0.6168
       2    O1      20.588708   19.958842   27.985556 O.co2      1 MOL1        -0.6703
       3    O2      18.615676   20.058167   27.156522 O.co2      1 MOL1        -0.6703
       4    C2      20.122677   18.547711   26.157676 C.3        1 MOL1        -0.1963
       5    H1      19.226769   17.958455   25.928110 H          1 MOL1         0.0750
       6    H2      20.849095   17.867822   26.618738 H          1 MOL1         0.0750
       7    C3      20.707983   19.156600   24.859809 C.3        1 MOL1        -0.1860
       8    H3      19.976659   19.851095   24.429033 H          1 MOL1         0.0752
       9    H4      21.596677   19.752381   25.109915 H          1 MOL1         0.0752
      10    C4      21.089953   18.062856   23.834452 C.3        1 MOL1        -0.1858
      11    H5      20.225183   17.420261   23.619501 H          1 MOL1         0.0752
      12    H6      21.847385   17.412946   24.293731 H          1 MOL1         0.0752
      13    C5      21.668010   18.634785   22.515164 C.3        1 MOL1        -0.1858
      14    H7      22.160566   19.599011   22.700990 H          1 MOL1         0.0752
      15    H8      22.460236   17.957750   22.167517 H          1 MOL1         0.0752
      16    C6      20.639054   18.776223   21.365253 C.3        1 MOL1        -0.1858
      17    H9      20.223041   17.788433   21.124350 H          1 MOL1         0.0752
      18    H10     21.172354   19.113022   20.465806 H          1 MOL1         0.0752
      19    C7      19.485654   19.759523   21.660978 C.3        1 MOL1        -0.1834
      20    H11     18.867234   19.372501   22.481430 H          1 MOL1         0.0752
      21    H12     19.894882   20.724986   21.988799 H          1 MOL1         0.0752
      22    C8      18.592623   19.974458   20.422274 C.3        1 MOL1        -0.2849
      23    H13     18.150193   19.026796   20.088318 H          1 MOL1         0.0764
      24    H14     17.773770   20.668554   20.651904 H          1 MOL1         0.0764
      25    H15     19.170194   20.395973   19.589188 H          1 MOL1         0.0764
@<TRIPOS>BOND
    1     1     2    1
    2     1     3    2
    3     1     4    1
    4     4     5    1
    5     4     6    1
    6     4     7    1
    7     7     8    1
    8     7     9    1
    9     7    10    1
   10    10    11    1
   11    10    12    1
   12    10    13    1
   13    13    14    1
   14    13    15    1
   15    13    16    1
   16    16    17    1
   17    16    18    1
   18    16    19    1
   19    19    20    1
   20    19    21    1
   21    19    22    1
   22    22    23    1
   23    22    24    1
   24    22    25    1
@<TRIPOS>SUBSTRUCTURE
       1 MOL1            1 RESIDUE      1      MOL     
@<SCITEGIC>MOL_PROPERTY
VM2 Rank
SciTegic.value.IntegerValue
90

@<SCITEGIC>MOL_PROPERTY
Conf_Id
SciTegic.value.IntegerValue
720

@<SCITEGIC>MOL_PROPERTY
Probability
SciTegic.value.DoubleValue
0.03

@<SCITEGIC>MOL_PROPERTY
Sum Probability
SciTegic.value.DoubleValue
99.40

@<SCITEGIC>MOL_PROPERTY
Delta G
SciTegic.value.DoubleValue
3.907

@<SCITEGIC>MOL_PROPERTY
G
SciTegic.value.DoubleValue
-4.055

@<SCITEGIC>MOL_PROPERTY
E
SciTegic.value.DoubleValue
-28.830

@<SCITEGIC>MOL_PROPERTY
-TS
SciTegic.value.DoubleValue
24.775

@<SCITEGIC>MOL_PROPERTY
U+W
SciTegic.value.DoubleValue
-49.398

@<SCITEGIC>MOL_PROPERTY
U
SciTegic.value.DoubleValue
10.175

@<SCITEGIC>MOL_PROPERTY
W
SciTegic.value.DoubleValue
-59.573

@<SCITEGIC>MOL_PROPERTY
W(PB)
SciTegic.value.DoubleValue
-62.030

@<SCITEGIC>MOL_PROPERTY
W(SA)
SciTegic.value.DoubleValue
2.457

@<SCITEGIC>MOL_PROPERTY
Valence
SciTegic.value.DoubleValue
10.554

@<SCITEGIC>MOL_PROPERTY
Coulomb
SciTegic.value.DoubleValue
-1.316

@<SCITEGIC>MOL_PROPERTY
VdW
SciTegic.value.DoubleValue
0.936

@<SCITEGIC>MOL_PROPERTY
VdW6
SciTegic.value.DoubleValue
-9.356

@<SCITEGIC>MOL_PROPERTY
VdW12
SciTegic.value.DoubleValue
10.292

@<SCITEGIC>MOL_PROPERTY
Bond
SciTegic.value.DoubleValue
0.194

@<SCITEGIC>MOL_PROPERTY
Angle
SciTegic.value.DoubleValue
2.996

@<SCITEGIC>MOL_PROPERTY
Pdih
SciTegic.value.DoubleValue
7.363

@<SCITEGIC>MOL_PROPERTY
Idih
SciTegic.value.DoubleValue
0.001

@<SCITEGIC>MOL_PROPERTY
Tether
SciTegic.value.DoubleValue
0.000

@<TRIPOS>MOLECULE
guest-8_vm2.mol2 : vm2 ligand conformer 91
          25          24           1
SMALL
USER_CHARGES
 
@<TRIPOS>ATOM
       1    C1      20.036142   19.048048   27.508426 C.2        1 MOL1         0.6168
       2    O1      21.080536   19.118809   28.125596 O.co2      1 MOL1        -0.6703
       3    O2      18.954363   19.337908   27.980013 O.co2      1 MOL1        -0.6703
       4    C2      20.088535   18.590741   26.055092 C.3        1 MOL1        -0.1963
       5    H1      19.158850   18.053011   25.833451 H          1 MOL1         0.0750
       6    H2      20.910801   17.872340   25.953343 H          1 MOL1         0.0750
       7    C3      20.277562   19.763617   25.061760 C.3        1 MOL1        -0.1860
       8    H3      19.453456   20.480056   25.184673 H          1 MOL1         0.0752
       9    H4      21.205436   20.299336   25.305777 H          1 MOL1         0.0752
      10    C4      20.327282   19.274109   23.598092 C.3        1 MOL1        -0.1858
      11    H5      19.397849   18.736844   23.369639 H          1 MOL1         0.0752
      12    H6      21.154695   18.561904   23.475969 H          1 MOL1         0.0752
      13    C5      20.503728   20.447172   22.608586 C.3        1 MOL1        -0.1858
      14    H7      19.627767   21.107654   22.665834 H          1 MOL1         0.0752
      15    H8      21.365983   21.051414   22.922015 H          1 MOL1         0.0752
      16    C6      20.725464   20.012511   21.137901 C.3        1 MOL1        -0.1858
      17    H9      21.651887   19.428167   21.053187 H          1 MOL1         0.0752
      18    H10     20.892476   20.923157   20.546546 H          1 MOL1         0.0752
      19    C7      19.542708   19.237576   20.504881 C.3        1 MOL1        -0.1834
      20    H11     18.596433   19.532919   20.978782 H          1 MOL1         0.0752
      21    H12     19.458498   19.527602   19.448427 H          1 MOL1         0.0752
      22    C8      19.716680   17.703507   20.565654 C.3        1 MOL1        -0.2849
      23    H13     19.789372   17.341007   21.597231 H          1 MOL1         0.0764
      24    H14     18.862293   17.201409   20.093718 H          1 MOL1         0.0764
      25    H15     20.624680   17.392435   20.032902 H          1 MOL1         0.0764
@<TRIPOS>BOND
    1     1     2    1
    2     1     3    2
    3     1     4    1
    4     4     5    1
    5     4     6    1
    6     4     7    1
    7     7     8    1
    8     7     9    1
    9     7    10    1
   10    10    11    1
   11    10    12    1
   12    10    13    1
   13    13    14    1
   14    13    15    1
   15    13    16    1
   16    16    17    1
   17    16    18    1
   18    16    19    1
   19    19    20    1
   20    19    21    1
   21    19    22    1
   22    22    23    1
   23    22    24    1
   24    22    25    1
@<TRIPOS>SUBSTRUCTURE
       1 MOL1            1 RESIDUE      1      MOL     
@<SCITEGIC>MOL_PROPERTY
VM2 Rank
SciTegic.value.IntegerValue
91

@<SCITEGIC>MOL_PROPERTY
Conf_Id
SciTegic.value.IntegerValue
980

@<SCITEGIC>MOL_PROPERTY
Probability
SciTegic.value.DoubleValue
0.03

@<SCITEGIC>MOL_PROPERTY
Sum Probability
SciTegic.value.DoubleValue
99.43

@<SCITEGIC>MOL_PROPERTY
Delta G
SciTegic.value.DoubleValue
3.934

@<SCITEGIC>MOL_PROPERTY
G
SciTegic.value.DoubleValue
-4.029

@<SCITEGIC>MOL_PROPERTY
E
SciTegic.value.DoubleValue
-28.762

@<SCITEGIC>MOL_PROPERTY
-TS
SciTegic.value.DoubleValue
24.733

@<SCITEGIC>MOL_PROPERTY
U+W
SciTegic.value.DoubleValue
-49.330

@<SCITEGIC>MOL_PROPERTY
U
SciTegic.value.DoubleValue
9.708

@<SCITEGIC>MOL_PROPERTY
W
SciTegic.value.DoubleValue
-59.037

@<SCITEGIC>MOL_PROPERTY
W(PB)
SciTegic.value.DoubleValue
-61.494

@<SCITEGIC>MOL_PROPERTY
W(SA)
SciTegic.value.DoubleValue
2.456

@<SCITEGIC>MOL_PROPERTY
Valence
SciTegic.value.DoubleValue
10.529

@<SCITEGIC>MOL_PROPERTY
Coulomb
SciTegic.value.DoubleValue
-1.841

@<SCITEGIC>MOL_PROPERTY
VdW
SciTegic.value.DoubleValue
1.019

@<SCITEGIC>MOL_PROPERTY
VdW6
SciTegic.value.DoubleValue
-9.201

@<SCITEGIC>MOL_PROPERTY
VdW12
SciTegic.value.DoubleValue
10.221

@<SCITEGIC>MOL_PROPERTY
Bond
SciTegic.value.DoubleValue
0.191

@<SCITEGIC>MOL_PROPERTY
Angle
SciTegic.value.DoubleValue
3.009

@<SCITEGIC>MOL_PROPERTY
Pdih
SciTegic.value.DoubleValue
7.328

@<SCITEGIC>MOL_PROPERTY
Idih
SciTegic.value.DoubleValue
0.001

@<SCITEGIC>MOL_PROPERTY
Tether
SciTegic.value.DoubleValue
0.000

@<TRIPOS>MOLECULE
guest-8_vm2.mol2 : vm2 ligand conformer 92
          25          24           1
SMALL
USER_CHARGES
 
@<TRIPOS>ATOM
       1    C1      19.896332   19.194508   27.509644 C.2        1 MOL1         0.6168
       2    O1      20.861236   19.384949   28.223340 O.co2      1 MOL1        -0.6703
       3    O2      18.759422   19.489029   27.821645 O.co2      1 MOL1        -0.6703
       4    C2      20.127670   18.570940   26.137885 C.3        1 MOL1        -0.1963
       5    H1      19.246077   17.970274   25.883719 H          1 MOL1         0.0750
       6    H2      20.977778   17.882572   26.215507 H          1 MOL1         0.0750
       7    C3      20.392288   19.625103   25.034799 C.3        1 MOL1        -0.1860
       8    H3      19.537919   20.313921   24.978956 H          1 MOL1         0.0752
       9    H4      21.269714   20.226542   25.310281 H          1 MOL1         0.0752
      10    C4      20.621841   18.969199   23.655942 C.3        1 MOL1        -0.1858
      11    H5      19.747505   18.361907   23.393368 H          1 MOL1         0.0752
      12    H6      21.476319   18.281453   23.716646 H          1 MOL1         0.0752
      13    C5      20.891478   20.025806   22.558850 C.3        1 MOL1        -0.1858
      14    H7      20.070915   20.755191   22.520207 H          1 MOL1         0.0752
      15    H8      21.790147   20.590797   22.841862 H          1 MOL1         0.0752
      16    C6      21.120752   19.409383   21.155324 C.3        1 MOL1        -0.1858
      17    H9      21.549300   18.402000   21.246780 H          1 MOL1         0.0752
      18    H10     21.880878   20.010960   20.638428 H          1 MOL1         0.0752
      19    C7      19.863182   19.372464   20.251967 C.3        1 MOL1        -0.1834
      20    H11     19.493189   20.394933   20.094168 H          1 MOL1         0.0752
      21    H12     20.156028   18.995780   19.262258 H          1 MOL1         0.0752
      22    C8      18.718799   18.492619   20.796606 C.3        1 MOL1        -0.2849
      23    H13     18.285477   18.926111   21.706519 H          1 MOL1         0.0764
      24    H14     17.913704   18.407894   20.055392 H          1 MOL1         0.0764
      25    H15     19.075282   17.480304   21.027040 H          1 MOL1         0.0764
@<TRIPOS>BOND
    1     1     2    1
    2     1     3    2
    3     1     4    1
    4     4     5    1
    5     4     6    1
    6     4     7    1
    7     7     8    1
    8     7     9    1
    9     7    10    1
   10    10    11    1
   11    10    12    1
   12    10    13    1
   13    13    14    1
   14    13    15    1
   15    13    16    1
   16    16    17    1
   17    16    18    1
   18    16    19    1
   19    19    20    1
   20    19    21    1
   21    19    22    1
   22    22    23    1
   23    22    24    1
   24    22    25    1
@<TRIPOS>SUBSTRUCTURE
       1 MOL1            1 RESIDUE      1      MOL     
@<SCITEGIC>MOL_PROPERTY
VM2 Rank
SciTegic.value.IntegerValue
92

@<SCITEGIC>MOL_PROPERTY
Conf_Id
SciTegic.value.IntegerValue
394

@<SCITEGIC>MOL_PROPERTY
Probability
SciTegic.value.DoubleValue
0.03

@<SCITEGIC>MOL_PROPERTY
Sum Probability
SciTegic.value.DoubleValue
99.46

@<SCITEGIC>MOL_PROPERTY
Delta G
SciTegic.value.DoubleValue
3.936

@<SCITEGIC>MOL_PROPERTY
G
SciTegic.value.DoubleValue
-4.026

@<SCITEGIC>MOL_PROPERTY
E
SciTegic.value.DoubleValue
-28.762

@<SCITEGIC>MOL_PROPERTY
-TS
SciTegic.value.DoubleValue
24.736

@<SCITEGIC>MOL_PROPERTY
U+W
SciTegic.value.DoubleValue
-49.330

@<SCITEGIC>MOL_PROPERTY
U
SciTegic.value.DoubleValue
9.739

@<SCITEGIC>MOL_PROPERTY
W
SciTegic.value.DoubleValue
-59.069

@<SCITEGIC>MOL_PROPERTY
W(PB)
SciTegic.value.DoubleValue
-61.523

@<SCITEGIC>MOL_PROPERTY
W(SA)
SciTegic.value.DoubleValue
2.454

@<SCITEGIC>MOL_PROPERTY
Valence
SciTegic.value.DoubleValue
10.506

@<SCITEGIC>MOL_PROPERTY
Coulomb
SciTegic.value.DoubleValue
-1.761

@<SCITEGIC>MOL_PROPERTY
VdW
SciTegic.value.DoubleValue
0.994

@<SCITEGIC>MOL_PROPERTY
VdW6
SciTegic.value.DoubleValue
-9.209

@<SCITEGIC>MOL_PROPERTY
VdW12
SciTegic.value.DoubleValue
10.203

@<SCITEGIC>MOL_PROPERTY
Bond
SciTegic.value.DoubleValue
0.193

@<SCITEGIC>MOL_PROPERTY
Angle
SciTegic.value.DoubleValue
2.979

@<SCITEGIC>MOL_PROPERTY
Pdih
SciTegic.value.DoubleValue
7.334

@<SCITEGIC>MOL_PROPERTY
Idih
SciTegic.value.DoubleValue
0.001

@<SCITEGIC>MOL_PROPERTY
Tether
SciTegic.value.DoubleValue
0.000

@<TRIPOS>MOLECULE
guest-8_vm2.mol2 : vm2 ligand conformer 93
          25          24           1
SMALL
USER_CHARGES
 
@<TRIPOS>ATOM
       1    C1      20.526455   19.654560   27.179263 C.2        1 MOL1         0.6168
       2    O1      21.585826   20.247069   27.121966 O.co2      1 MOL1        -0.6703
       3    O2      19.661181   19.899500   27.996581 O.co2      1 MOL1        -0.6703
       4    C2      20.259611   18.556405   26.156034 C.3        1 MOL1        -0.1963
       5    H1      19.635909   17.790690   26.632673 H          1 MOL1         0.0750
       6    H2      21.217356   18.084955   25.904968 H          1 MOL1         0.0750
       7    C3      19.572169   19.084508   24.872945 C.3        1 MOL1        -0.1860
       8    H3      18.621226   19.563373   25.144388 H          1 MOL1         0.0752
       9    H4      20.199582   19.865371   24.426478 H          1 MOL1         0.0752
      10    C4      19.308146   17.949779   23.854998 C.3        1 MOL1        -0.1858
      11    H5      18.649800   17.209914   24.330603 H          1 MOL1         0.0752
      12    H6      20.242087   17.421451   23.619236 H          1 MOL1         0.0752
      13    C5      18.632169   18.442120   22.550228 C.3        1 MOL1        -0.1858
      14    H7      17.924108   17.669848   22.219918 H          1 MOL1         0.0752
      15    H8      18.026063   19.336595   22.748782 H          1 MOL1         0.0752
      16    C6      19.608217   18.710871   21.377133 C.3        1 MOL1        -0.1858
      17    H9      19.016042   18.976311   20.490727 H          1 MOL1         0.0752
      18    H10     20.140079   17.783249   21.125201 H          1 MOL1         0.0752
      19    C7      20.634594   19.832479   21.647711 C.3        1 MOL1        -0.1834
      20    H11     20.114275   20.738971   21.986227 H          1 MOL1         0.0752
      21    H12     21.315636   19.527927   22.453194 H          1 MOL1         0.0752
      22    C8      21.464632   20.156709   20.389141 C.3        1 MOL1        -0.2849
      23    H13     20.819458   20.500642   19.570145 H          1 MOL1         0.0764
      24    H14     22.194277   20.949041   20.600911 H          1 MOL1         0.0764
      25    H15     22.015472   19.272056   20.043748 H          1 MOL1         0.0764
@<TRIPOS>BOND
    1     1     2    1
    2     1     3    2
    3     1     4    1
    4     4     5    1
    5     4     6    1
    6     4     7    1
    7     7     8    1
    8     7     9    1
    9     7    10    1
   10    10    11    1
   11    10    12    1
   12    10    13    1
   13    13    14    1
   14    13    15    1
   15    13    16    1
   16    16    17    1
   17    16    18    1
   18    16    19    1
   19    19    20    1
   20    19    21    1
   21    19    22    1
   22    22    23    1
   23    22    24    1
   24    22    25    1
@<TRIPOS>SUBSTRUCTURE
       1 MOL1            1 RESIDUE      1      MOL     
@<SCITEGIC>MOL_PROPERTY
VM2 Rank
SciTegic.value.IntegerValue
93

@<SCITEGIC>MOL_PROPERTY
Conf_Id
SciTegic.value.IntegerValue
789

@<SCITEGIC>MOL_PROPERTY
Probability
SciTegic.value.DoubleValue
0.03

@<SCITEGIC>MOL_PROPERTY
Sum Probability
SciTegic.value.DoubleValue
99.49

@<SCITEGIC>MOL_PROPERTY
Delta G
SciTegic.value.DoubleValue
3.946

@<SCITEGIC>MOL_PROPERTY
G
SciTegic.value.DoubleValue
-4.016

@<SCITEGIC>MOL_PROPERTY
E
SciTegic.value.DoubleValue
-28.790

@<SCITEGIC>MOL_PROPERTY
-TS
SciTegic.value.DoubleValue
24.774

@<SCITEGIC>MOL_PROPERTY
U+W
SciTegic.value.DoubleValue
-49.358

@<SCITEGIC>MOL_PROPERTY
U
SciTegic.value.DoubleValue
10.175

@<SCITEGIC>MOL_PROPERTY
W
SciTegic.value.DoubleValue
-59.533

@<SCITEGIC>MOL_PROPERTY
W(PB)
SciTegic.value.DoubleValue
-62.003

@<SCITEGIC>MOL_PROPERTY
W(SA)
SciTegic.value.DoubleValue
2.470

@<SCITEGIC>MOL_PROPERTY
Valence
SciTegic.value.DoubleValue
10.554

@<SCITEGIC>MOL_PROPERTY
Coulomb
SciTegic.value.DoubleValue
-1.316

@<SCITEGIC>MOL_PROPERTY
VdW
SciTegic.value.DoubleValue
0.936

@<SCITEGIC>MOL_PROPERTY
VdW6
SciTegic.value.DoubleValue
-9.356

@<SCITEGIC>MOL_PROPERTY
VdW12
SciTegic.value.DoubleValue
10.292

@<SCITEGIC>MOL_PROPERTY
Bond
SciTegic.value.DoubleValue
0.194

@<SCITEGIC>MOL_PROPERTY
Angle
SciTegic.value.DoubleValue
2.996

@<SCITEGIC>MOL_PROPERTY
Pdih
SciTegic.value.DoubleValue
7.363

@<SCITEGIC>MOL_PROPERTY
Idih
SciTegic.value.DoubleValue
0.001

@<SCITEGIC>MOL_PROPERTY
Tether
SciTegic.value.DoubleValue
0.000

@<TRIPOS>MOLECULE
guest-8_vm2.mol2 : vm2 ligand conformer 94
          25          24           1
SMALL
USER_CHARGES
 
@<TRIPOS>ATOM
       1    C1      19.979342   18.789922   27.112327 C.2        1 MOL1         0.6168
       2    O1      20.570829   17.737938   27.254156 O.co2      1 MOL1        -0.6703
       3    O2      18.900737   19.029568   27.618173 O.co2      1 MOL1        -0.6703
       4    C2      20.617154   19.861878   26.235784 C.3        1 MOL1        -0.1963
       5    H1      21.706434   19.770273   26.323288 H          1 MOL1         0.0750
       6    H2      20.340096   20.842256   26.641482 H          1 MOL1         0.0750
       7    C3      20.189827   19.756270   24.751104 C.3        1 MOL1        -0.1860
       8    H3      20.461904   18.760897   24.376017 H          1 MOL1         0.0752
       9    H4      19.096847   19.843285   24.680443 H          1 MOL1         0.0752
      10    C4      20.858616   20.844616   23.881990 C.3        1 MOL1        -0.1858
      11    H5      21.947187   20.696526   23.885612 H          1 MOL1         0.0752
      12    H6      20.679757   21.827040   24.339981 H          1 MOL1         0.0752
      13    C5      20.351032   20.891607   22.418891 C.3        1 MOL1        -0.1858
      14    H7      19.279994   21.135226   22.399029 H          1 MOL1         0.0752
      15    H8      20.856501   21.730303   21.920947 H          1 MOL1         0.0752
      16    C6      20.625560   19.606748   21.596596 C.3        1 MOL1        -0.1858
      17    H9      21.514099   19.091700   21.986602 H          1 MOL1         0.0752
      18    H10     20.869481   19.898508   20.565907 H          1 MOL1         0.0752
      19    C7      19.419724   18.639890   21.549719 C.3        1 MOL1        -0.1834
      20    H11     19.122098   18.344569   22.563075 H          1 MOL1         0.0752
      21    H12     18.555259   19.152003   21.105196 H          1 MOL1         0.0752
      22    C8      19.740179   17.375563   20.727260 C.3        1 MOL1        -0.2849
      23    H13     20.581349   16.824248   21.167525 H          1 MOL1         0.0764
      24    H14     18.872900   16.703286   20.697580 H          1 MOL1         0.0764
      25    H15     20.003504   17.635104   19.693529 H          1 MOL1         0.0764
@<TRIPOS>BOND
    1     1     2    1
    2     1     3    2
    3     1     4    1
    4     4     5    1
    5     4     6    1
    6     4     7    1
    7     7     8    1
    8     7     9    1
    9     7    10    1
   10    10    11    1
   11    10    12    1
   12    10    13    1
   13    13    14    1
   14    13    15    1
   15    13    16    1
   16    16    17    1
   17    16    18    1
   18    16    19    1
   19    19    20    1
   20    19    21    1
   21    19    22    1
   22    22    23    1
   23    22    24    1
   24    22    25    1
@<TRIPOS>SUBSTRUCTURE
       1 MOL1            1 RESIDUE      1      MOL     
@<SCITEGIC>MOL_PROPERTY
VM2 Rank
SciTegic.value.IntegerValue
94

@<SCITEGIC>MOL_PROPERTY
Conf_Id
SciTegic.value.IntegerValue
36

@<SCITEGIC>MOL_PROPERTY
Probability
SciTegic.value.DoubleValue
0.03

@<SCITEGIC>MOL_PROPERTY
Sum Probability
SciTegic.value.DoubleValue
99.53

@<SCITEGIC>MOL_PROPERTY
Delta G
SciTegic.value.DoubleValue
3.947

@<SCITEGIC>MOL_PROPERTY
G
SciTegic.value.DoubleValue
-4.015

@<SCITEGIC>MOL_PROPERTY
E
SciTegic.value.DoubleValue
-28.797

@<SCITEGIC>MOL_PROPERTY
-TS
SciTegic.value.DoubleValue
24.782

@<SCITEGIC>MOL_PROPERTY
U+W
SciTegic.value.DoubleValue
-49.365

@<SCITEGIC>MOL_PROPERTY
U
SciTegic.value.DoubleValue
10.481

@<SCITEGIC>MOL_PROPERTY
W
SciTegic.value.DoubleValue
-59.846

@<SCITEGIC>MOL_PROPERTY
W(PB)
SciTegic.value.DoubleValue
-62.298

@<SCITEGIC>MOL_PROPERTY
W(SA)
SciTegic.value.DoubleValue
2.453

@<SCITEGIC>MOL_PROPERTY
Valence
SciTegic.value.DoubleValue
10.552

@<SCITEGIC>MOL_PROPERTY
Coulomb
SciTegic.value.DoubleValue
-0.994

@<SCITEGIC>MOL_PROPERTY
VdW
SciTegic.value.DoubleValue
0.923

@<SCITEGIC>MOL_PROPERTY
VdW6
SciTegic.value.DoubleValue
-9.371

@<SCITEGIC>MOL_PROPERTY
VdW12
SciTegic.value.DoubleValue
10.294

@<SCITEGIC>MOL_PROPERTY
Bond
SciTegic.value.DoubleValue
0.194

@<SCITEGIC>MOL_PROPERTY
Angle
SciTegic.value.DoubleValue
2.991

@<SCITEGIC>MOL_PROPERTY
Pdih
SciTegic.value.DoubleValue
7.366

@<SCITEGIC>MOL_PROPERTY
Idih
SciTegic.value.DoubleValue
0.000

@<SCITEGIC>MOL_PROPERTY
Tether
SciTegic.value.DoubleValue
0.000

@<TRIPOS>MOLECULE
guest-8_vm2.mol2 : vm2 ligand conformer 95
          25          24           1
SMALL
USER_CHARGES
 
@<TRIPOS>ATOM
       1    C1      20.174606   19.657141   27.490346 C.2        1 MOL1         0.6168
       2    O1      21.093139   19.175809   28.123812 O.co2      1 MOL1        -0.6703
       3    O2      19.080087   19.891166   27.963549 O.co2      1 MOL1        -0.6703
       4    C2      20.401138   19.963922   26.014330 C.3        1 MOL1        -0.1963
       5    H1      21.451831   20.249143   25.882931 H          1 MOL1         0.0750
       6    H2      19.792645   20.837301   25.750634 H          1 MOL1         0.0750
       7    C3      20.051812   18.770597   25.091278 C.3        1 MOL1        -0.1860
       8    H3      20.659926   17.901112   25.377081 H          1 MOL1         0.0752
       9    H4      19.000615   18.489054   25.243782 H          1 MOL1         0.0752
      10    C4      20.289528   19.107020   23.603083 C.3        1 MOL1        -0.1858
      11    H5      21.341853   19.383496   23.451641 H          1 MOL1         0.0752
      12    H6      19.680769   19.979372   23.332711 H          1 MOL1         0.0752
      13    C5      19.928959   17.919127   22.683720 C.3        1 MOL1        -0.1858
      14    H7      20.449425   17.020373   23.041749 H          1 MOL1         0.0752
      15    H8      18.854418   17.706410   22.766982 H          1 MOL1         0.0752
      16    C6      20.297738   18.131548   21.193791 C.3        1 MOL1        -0.1858
      17    H9      20.047299   17.206347   20.656994 H          1 MOL1         0.0752
      18    H10     21.384515   18.252490   21.088056 H          1 MOL1         0.0752
      19    C7      19.557781   19.304303   20.502951 C.3        1 MOL1        -0.1834
      20    H11     19.342874   19.019974   19.463588 H          1 MOL1         0.0752
      21    H12     18.582993   19.474056   20.980671 H          1 MOL1         0.0752
      22    C8      20.378212   20.613367   20.479139 C.3        1 MOL1        -0.2849
      23    H13     21.324507   20.470988   19.941265 H          1 MOL1         0.0764
      24    H14     19.818560   21.407771   19.968734 H          1 MOL1         0.0764
      25    H15     20.613733   20.966499   21.489422 H          1 MOL1         0.0764
@<TRIPOS>BOND
    1     1     2    1
    2     1     3    2
    3     1     4    1
    4     4     5    1
    5     4     6    1
    6     4     7    1
    7     7     8    1
    8     7     9    1
    9     7    10    1
   10    10    11    1
   11    10    12    1
   12    10    13    1
   13    13    14    1
   14    13    15    1
   15    13    16    1
   16    16    17    1
   17    16    18    1
   18    16    19    1
   19    19    20    1
   20    19    21    1
   21    19    22    1
   22    22    23    1
   23    22    24    1
   24    22    25    1
@<TRIPOS>SUBSTRUCTURE
       1 MOL1            1 RESIDUE      1      MOL     
@<SCITEGIC>MOL_PROPERTY
VM2 Rank
SciTegic.value.IntegerValue
95

@<SCITEGIC>MOL_PROPERTY
Conf_Id
SciTegic.value.IntegerValue
1370

@<SCITEGIC>MOL_PROPERTY
Probability
SciTegic.value.DoubleValue
0.03

@<SCITEGIC>MOL_PROPERTY
Sum Probability
SciTegic.value.DoubleValue
99.56

@<SCITEGIC>MOL_PROPERTY
Delta G
SciTegic.value.DoubleValue
3.947

@<SCITEGIC>MOL_PROPERTY
G
SciTegic.value.DoubleValue
-4.015

@<SCITEGIC>MOL_PROPERTY
E
SciTegic.value.DoubleValue
-28.748

@<SCITEGIC>MOL_PROPERTY
-TS
SciTegic.value.DoubleValue
24.733

@<SCITEGIC>MOL_PROPERTY
U+W
SciTegic.value.DoubleValue
-49.315

@<SCITEGIC>MOL_PROPERTY
U
SciTegic.value.DoubleValue
9.708

@<SCITEGIC>MOL_PROPERTY
W
SciTegic.value.DoubleValue
-59.023

@<SCITEGIC>MOL_PROPERTY
W(PB)
SciTegic.value.DoubleValue
-61.482

@<SCITEGIC>MOL_PROPERTY
W(SA)
SciTegic.value.DoubleValue
2.459

@<SCITEGIC>MOL_PROPERTY
Valence
SciTegic.value.DoubleValue
10.529

@<SCITEGIC>MOL_PROPERTY
Coulomb
SciTegic.value.DoubleValue
-1.840

@<SCITEGIC>MOL_PROPERTY
VdW
SciTegic.value.DoubleValue
1.019

@<SCITEGIC>MOL_PROPERTY
VdW6
SciTegic.value.DoubleValue
-9.201

@<SCITEGIC>MOL_PROPERTY
VdW12
SciTegic.value.DoubleValue
10.221

@<SCITEGIC>MOL_PROPERTY
Bond
SciTegic.value.DoubleValue
0.191

@<SCITEGIC>MOL_PROPERTY
Angle
SciTegic.value.DoubleValue
3.009

@<SCITEGIC>MOL_PROPERTY
Pdih
SciTegic.value.DoubleValue
7.328

@<SCITEGIC>MOL_PROPERTY
Idih
SciTegic.value.DoubleValue
0.001

@<SCITEGIC>MOL_PROPERTY
Tether
SciTegic.value.DoubleValue
0.000

@<TRIPOS>MOLECULE
guest-8_vm2.mol2 : vm2 ligand conformer 96
          25          24           1
SMALL
USER_CHARGES
 
@<TRIPOS>ATOM
       1    C1      20.433399   19.228766   27.503443 C.2        1 MOL1         0.6168
       2    O1      21.530430   19.666139   27.789590 O.co2      1 MOL1        -0.6703
       3    O2      19.468824   19.295763   28.239499 O.co2      1 MOL1        -0.6703
       4    C2      20.251793   18.578867   26.136428 C.3        1 MOL1        -0.1963
       5    H1      19.498166   17.788062   26.232532 H          1 MOL1         0.0750
       6    H2      21.196557   18.094863   25.861171 H          1 MOL1         0.0750
       7    C3      19.829961   19.589226   25.041296 C.3        1 MOL1        -0.1860
       8    H3      18.889811   20.074691   25.337837 H          1 MOL1         0.0752
       9    H4      20.588352   20.380949   24.966768 H          1 MOL1         0.0752
      10    C4      19.653857   18.907448   23.667135 C.3        1 MOL1        -0.1858
      11    H5      18.895281   18.116829   23.746505 H          1 MOL1         0.0752
      12    H6      20.591961   18.415743   23.383586 H          1 MOL1         0.0752
      13    C5      19.226991   19.919645   22.578108 C.3        1 MOL1        -0.1858
      14    H7      18.270600   20.366329   22.882586 H          1 MOL1         0.0752
      15    H8      19.947154   20.747290   22.521651 H          1 MOL1         0.0752
      16    C6      19.045595   19.277056   21.179323 C.3        1 MOL1        -0.1858
      17    H9      18.203516   19.776468   20.680967 H          1 MOL1         0.0752
      18    H10     18.750683   18.223538   21.279131 H          1 MOL1         0.0752
      19    C7      20.276524   19.398842   20.247182 C.3        1 MOL1        -0.1834
      20    H11     20.011163   18.986577   19.263926 H          1 MOL1         0.0752
      21    H12     20.509929   20.459790   20.082416 H          1 MOL1         0.0752
      22    C8      21.535626   18.672250   20.763996 C.3        1 MOL1        -0.2849
      23    H13     21.931232   19.158568   21.664337 H          1 MOL1         0.0764
      24    H14     21.316004   17.623188   21.001053 H          1 MOL1         0.0764
      25    H15     22.327671   18.689404   20.004308 H          1 MOL1         0.0764
@<TRIPOS>BOND
    1     1     2    1
    2     1     3    2
    3     1     4    1
    4     4     5    1
    5     4     6    1
    6     4     7    1
    7     7     8    1
    8     7     9    1
    9     7    10    1
   10    10    11    1
   11    10    12    1
   12    10    13    1
   13    13    14    1
   14    13    15    1
   15    13    16    1
   16    16    17    1
   17    16    18    1
   18    16    19    1
   19    19    20    1
   20    19    21    1
   21    19    22    1
   22    22    23    1
   23    22    24    1
   24    22    25    1
@<TRIPOS>SUBSTRUCTURE
       1 MOL1            1 RESIDUE      1      MOL     
@<SCITEGIC>MOL_PROPERTY
VM2 Rank
SciTegic.value.IntegerValue
96

@<SCITEGIC>MOL_PROPERTY
Conf_Id
SciTegic.value.IntegerValue
436

@<SCITEGIC>MOL_PROPERTY
Probability
SciTegic.value.DoubleValue
0.03

@<SCITEGIC>MOL_PROPERTY
Sum Probability
SciTegic.value.DoubleValue
99.59

@<SCITEGIC>MOL_PROPERTY
Delta G
SciTegic.value.DoubleValue
3.949

@<SCITEGIC>MOL_PROPERTY
G
SciTegic.value.DoubleValue
-4.013

@<SCITEGIC>MOL_PROPERTY
E
SciTegic.value.DoubleValue
-28.749

@<SCITEGIC>MOL_PROPERTY
-TS
SciTegic.value.DoubleValue
24.736

@<SCITEGIC>MOL_PROPERTY
U+W
SciTegic.value.DoubleValue
-49.317

@<SCITEGIC>MOL_PROPERTY
U
SciTegic.value.DoubleValue
9.739

@<SCITEGIC>MOL_PROPERTY
W
SciTegic.value.DoubleValue
-59.056

@<SCITEGIC>MOL_PROPERTY
W(PB)
SciTegic.value.DoubleValue
-61.488

@<SCITEGIC>MOL_PROPERTY
W(SA)
SciTegic.value.DoubleValue
2.432

@<SCITEGIC>MOL_PROPERTY
Valence
SciTegic.value.DoubleValue
10.506

@<SCITEGIC>MOL_PROPERTY
Coulomb
SciTegic.value.DoubleValue
-1.761

@<SCITEGIC>MOL_PROPERTY
VdW
SciTegic.value.DoubleValue
0.994

@<SCITEGIC>MOL_PROPERTY
VdW6
SciTegic.value.DoubleValue
-9.209

@<SCITEGIC>MOL_PROPERTY
VdW12
SciTegic.value.DoubleValue
10.203

@<SCITEGIC>MOL_PROPERTY
Bond
SciTegic.value.DoubleValue
0.193

@<SCITEGIC>MOL_PROPERTY
Angle
SciTegic.value.DoubleValue
2.979

@<SCITEGIC>MOL_PROPERTY
Pdih
SciTegic.value.DoubleValue
7.333

@<SCITEGIC>MOL_PROPERTY
Idih
SciTegic.value.DoubleValue
0.001

@<SCITEGIC>MOL_PROPERTY
Tether
SciTegic.value.DoubleValue
0.000

@<TRIPOS>MOLECULE
guest-8_vm2.mol2 : vm2 ligand conformer 97
          25          24           1
SMALL
USER_CHARGES
 
@<TRIPOS>ATOM
       1    C1      20.382182   19.258951   27.140334 C.2        1 MOL1         0.6168
       2    O1      21.509593   19.692394   27.275146 O.co2      1 MOL1        -0.6703
       3    O2      19.440946   19.608711   27.825123 O.co2      1 MOL1        -0.6703
       4    C2      20.137100   18.201603   26.067451 C.3        1 MOL1        -0.1963
       5    H1      19.539463   17.404223   26.524522 H          1 MOL1         0.0750
       6    H2      21.099584   17.756486   25.787631 H          1 MOL1         0.0750
       7    C3      19.408648   18.736624   24.807130 C.3        1 MOL1        -0.1860
       8    H3      19.144937   17.883356   24.169272 H          1 MOL1         0.0752
       9    H4      18.465134   19.213768   25.106046 H          1 MOL1         0.0752
      10    C4      20.271337   19.738339   24.002729 C.3        1 MOL1        -0.1858
      11    H5      21.201108   19.252181   23.679651 H          1 MOL1         0.0752
      12    H6      20.574579   20.563447   24.661462 H          1 MOL1         0.0752
      13    C5      19.537152   20.341081   22.778658 C.3        1 MOL1        -0.1858
      14    H7      18.660654   20.900714   23.132246 H          1 MOL1         0.0752
      15    H8      20.191519   21.084034   22.304122 H          1 MOL1         0.0752
      16    C6      19.071939   19.315087   21.711481 C.3        1 MOL1        -0.1858
      17    H9      18.588723   19.860535   20.889607 H          1 MOL1         0.0752
      18    H10     18.290931   18.673522   22.139928 H          1 MOL1         0.0752
      19    C7      20.191376   18.420058   21.125052 C.3        1 MOL1        -0.1834
      20    H11     20.631251   17.798266   21.916030 H          1 MOL1         0.0752
      21    H12     19.741364   17.722718   20.405255 H          1 MOL1         0.0752
      22    C8      21.302727   19.221153   20.412895 C.3        1 MOL1        -0.2849
      23    H13     21.851669   19.855866   21.119844 H          1 MOL1         0.0764
      24    H14     22.026157   18.541722   19.944126 H          1 MOL1         0.0764
      25    H15     20.882580   19.862989   19.627748 H          1 MOL1         0.0764
@<TRIPOS>BOND
    1     1     2    1
    2     1     3    2
    3     1     4    1
    4     4     5    1
    5     4     6    1
    6     4     7    1
    7     7     8    1
    8     7     9    1
    9     7    10    1
   10    10    11    1
   11    10    12    1
   12    10    13    1
   13    13    14    1
   14    13    15    1
   15    13    16    1
   16    16    17    1
   17    16    18    1
   18    16    19    1
   19    19    20    1
   20    19    21    1
   21    19    22    1
   22    22    23    1
   23    22    24    1
   24    22    25    1
@<TRIPOS>SUBSTRUCTURE
       1 MOL1            1 RESIDUE      1      MOL     
@<SCITEGIC>MOL_PROPERTY
VM2 Rank
SciTegic.value.IntegerValue
97

@<SCITEGIC>MOL_PROPERTY
Conf_Id
SciTegic.value.IntegerValue
230

@<SCITEGIC>MOL_PROPERTY
Probability
SciTegic.value.DoubleValue
0.02

@<SCITEGIC>MOL_PROPERTY
Sum Probability
SciTegic.value.DoubleValue
99.60

@<SCITEGIC>MOL_PROPERTY
Delta G
SciTegic.value.DoubleValue
4.272

@<SCITEGIC>MOL_PROPERTY
G
SciTegic.value.DoubleValue
-3.690

@<SCITEGIC>MOL_PROPERTY
E
SciTegic.value.DoubleValue
-29.152

@<SCITEGIC>MOL_PROPERTY
-TS
SciTegic.value.DoubleValue
25.462

@<SCITEGIC>MOL_PROPERTY
U+W
SciTegic.value.DoubleValue
-49.720

@<SCITEGIC>MOL_PROPERTY
U
SciTegic.value.DoubleValue
10.165

@<SCITEGIC>MOL_PROPERTY
W
SciTegic.value.DoubleValue
-59.885

@<SCITEGIC>MOL_PROPERTY
W(PB)
SciTegic.value.DoubleValue
-62.272

@<SCITEGIC>MOL_PROPERTY
W(SA)
SciTegic.value.DoubleValue
2.387

@<SCITEGIC>MOL_PROPERTY
Valence
SciTegic.value.DoubleValue
9.218

@<SCITEGIC>MOL_PROPERTY
Coulomb
SciTegic.value.DoubleValue
0.149

@<SCITEGIC>MOL_PROPERTY
VdW
SciTegic.value.DoubleValue
0.798

@<SCITEGIC>MOL_PROPERTY
VdW6
SciTegic.value.DoubleValue
-11.032

@<SCITEGIC>MOL_PROPERTY
VdW12
SciTegic.value.DoubleValue
11.831

@<SCITEGIC>MOL_PROPERTY
Bond
SciTegic.value.DoubleValue
0.256

@<SCITEGIC>MOL_PROPERTY
Angle
SciTegic.value.DoubleValue
3.425

@<SCITEGIC>MOL_PROPERTY
Pdih
SciTegic.value.DoubleValue
5.536

@<SCITEGIC>MOL_PROPERTY
Idih
SciTegic.value.DoubleValue
0.001

@<SCITEGIC>MOL_PROPERTY
Tether
SciTegic.value.DoubleValue
0.000

@<TRIPOS>MOLECULE
guest-8_vm2.mol2 : vm2 ligand conformer 98
          25          24           1
SMALL
USER_CHARGES
 
@<TRIPOS>ATOM
       1    C1      19.951842   19.791880   26.708017 C.2        1 MOL1         0.6168
       2    O1      20.208129   19.332244   27.803772 O.co2      1 MOL1        -0.6703
       3    O2      18.872009   20.265720   26.413978 O.co2      1 MOL1        -0.6703
       4    C2      21.056958   19.798528   25.655554 C.3        1 MOL1        -0.1963
       5    H1      21.948099   20.235249   26.120977 H          1 MOL1         0.0750
       6    H2      20.766120   20.476511   24.844888 H          1 MOL1         0.0750
       7    C3      21.406213   18.393128   25.094079 C.3        1 MOL1        -0.1860
       8    H3      22.253927   18.480911   24.402301 H          1 MOL1         0.0752
       9    H4      21.756875   17.760652   25.921216 H          1 MOL1         0.0752
      10    C4      20.227907   17.675359   24.386206 C.3        1 MOL1        -0.1858
      11    H5      19.438283   17.471931   25.122519 H          1 MOL1         0.0752
      12    H6      20.572650   16.693366   24.034945 H          1 MOL1         0.0752
      13    C5      19.606863   18.445704   23.194114 C.3        1 MOL1        -0.1858
      14    H7      18.782515   17.845809   22.785724 H          1 MOL1         0.0752
      15    H8      19.154170   19.377386   23.556679 H          1 MOL1         0.0752
      16    C6      20.619164   18.747710   22.062195 C.3        1 MOL1        -0.1858
      17    H9      21.133595   17.817601   21.785153 H          1 MOL1         0.0752
      18    H10     21.392629   19.437611   22.424137 H          1 MOL1         0.0752
      19    C7      19.961280   19.344310   20.796308 C.3        1 MOL1        -0.1834
      20    H11     20.721580   19.422624   20.007038 H          1 MOL1         0.0752
      21    H12     19.191516   18.657230   20.418695 H          1 MOL1         0.0752
      22    C8      19.342635   20.739416   21.031777 C.3        1 MOL1        -0.2849
      23    H13     18.501726   20.690844   21.734902 H          1 MOL1         0.0764
      24    H14     20.088479   21.436672   21.435067 H          1 MOL1         0.0764
      25    H15     18.964594   21.156172   20.089325 H          1 MOL1         0.0764
@<TRIPOS>BOND
    1     1     2    1
    2     1     3    2
    3     1     4    1
    4     4     5    1
    5     4     6    1
    6     4     7    1
    7     7     8    1
    8     7     9    1
    9     7    10    1
   10    10    11    1
   11    10    12    1
   12    10    13    1
   13    13    14    1
   14    13    15    1
   15    13    16    1
   16    16    17    1
   17    16    18    1
   18    16    19    1
   19    19    20    1
   20    19    21    1
   21    19    22    1
   22    22    23    1
   23    22    24    1
   24    22    25    1
@<TRIPOS>SUBSTRUCTURE
       1 MOL1            1 RESIDUE      1      MOL     
@<SCITEGIC>MOL_PROPERTY
VM2 Rank
SciTegic.value.IntegerValue
98

@<SCITEGIC>MOL_PROPERTY
Conf_Id
SciTegic.value.IntegerValue
825

@<SCITEGIC>MOL_PROPERTY
Probability
SciTegic.value.DoubleValue
0.02

@<SCITEGIC>MOL_PROPERTY
Sum Probability
SciTegic.value.DoubleValue
99.62

@<SCITEGIC>MOL_PROPERTY
Delta G
SciTegic.value.DoubleValue
4.300

@<SCITEGIC>MOL_PROPERTY
G
SciTegic.value.DoubleValue
-3.662

@<SCITEGIC>MOL_PROPERTY
E
SciTegic.value.DoubleValue
-29.035

@<SCITEGIC>MOL_PROPERTY
-TS
SciTegic.value.DoubleValue
25.373

@<SCITEGIC>MOL_PROPERTY
U+W
SciTegic.value.DoubleValue
-49.603

@<SCITEGIC>MOL_PROPERTY
U
SciTegic.value.DoubleValue
10.962

@<SCITEGIC>MOL_PROPERTY
W
SciTegic.value.DoubleValue
-60.565

@<SCITEGIC>MOL_PROPERTY
W(PB)
SciTegic.value.DoubleValue
-62.940

@<SCITEGIC>MOL_PROPERTY
W(SA)
SciTegic.value.DoubleValue
2.375

@<SCITEGIC>MOL_PROPERTY
Valence
SciTegic.value.DoubleValue
9.203

@<SCITEGIC>MOL_PROPERTY
Coulomb
SciTegic.value.DoubleValue
1.167

@<SCITEGIC>MOL_PROPERTY
VdW
SciTegic.value.DoubleValue
0.592

@<SCITEGIC>MOL_PROPERTY
VdW6
SciTegic.value.DoubleValue
-11.372

@<SCITEGIC>MOL_PROPERTY
VdW12
SciTegic.value.DoubleValue
11.964

@<SCITEGIC>MOL_PROPERTY
Bond
SciTegic.value.DoubleValue
0.260

@<SCITEGIC>MOL_PROPERTY
Angle
SciTegic.value.DoubleValue
3.321

@<SCITEGIC>MOL_PROPERTY
Pdih
SciTegic.value.DoubleValue
5.621

@<SCITEGIC>MOL_PROPERTY
Idih
SciTegic.value.DoubleValue
0.001

@<SCITEGIC>MOL_PROPERTY
Tether
SciTegic.value.DoubleValue
0.000

@<TRIPOS>MOLECULE
guest-8_vm2.mol2 : vm2 ligand conformer 99
          25          24           1
SMALL
USER_CHARGES
 
@<TRIPOS>ATOM
       1    C1      20.029776   19.141802   26.983932 C.2        1 MOL1         0.6168
       2    O1      20.898976   19.388954   27.796946 O.co2      1 MOL1        -0.6703
       3    O2      18.876024   19.505081   27.102375 O.co2      1 MOL1        -0.6703
       4    C2      20.404149   18.305426   25.763602 C.3        1 MOL1        -0.1963
       5    H1      19.484410   17.936632   25.295411 H          1 MOL1         0.0750
       6    H2      20.944229   17.423039   26.125821 H          1 MOL1         0.0750
       7    C3      21.282633   19.056239   24.725998 C.3        1 MOL1        -0.1860
       8    H3      22.220240   19.359422   25.211814 H          1 MOL1         0.0752
       9    H4      21.568930   18.362656   23.924773 H          1 MOL1         0.0752
      10    C4      20.612823   20.312455   24.111874 C.3        1 MOL1        -0.1858
      11    H5      21.318665   20.788381   23.418716 H          1 MOL1         0.0752
      12    H6      20.439155   21.049439   24.907855 H          1 MOL1         0.0752
      13    C5      19.270043   20.052800   23.379620 C.3        1 MOL1        -0.1858
      14    H7      18.514656   19.738661   24.112356 H          1 MOL1         0.0752
      15    H8      18.905594   21.004059   22.968977 H          1 MOL1         0.0752
      16    C6      19.329703   19.006014   22.238780 C.3        1 MOL1        -0.1858
      17    H9      18.319846   18.890418   21.822397 H          1 MOL1         0.0752
      18    H10     19.605191   18.024091   22.645064 H          1 MOL1         0.0752
      19    C7      20.300679   19.391413   21.100140 C.3        1 MOL1        -0.1834
      20    H11     20.047806   20.390796   20.720241 H          1 MOL1         0.0752
      21    H12     21.328229   19.444568   21.483449 H          1 MOL1         0.0752
      22    C8      20.248194   18.373817   19.942734 C.3        1 MOL1        -0.2849
      23    H13     19.240441   18.321773   19.510298 H          1 MOL1         0.0764
      24    H14     20.945151   18.659872   19.144358 H          1 MOL1         0.0764
      25    H15     20.524584   17.369845   20.290550 H          1 MOL1         0.0764
@<TRIPOS>BOND
    1     1     2    1
    2     1     3    2
    3     1     4    1
    4     4     5    1
    5     4     6    1
    6     4     7    1
    7     7     8    1
    8     7     9    1
    9     7    10    1
   10    10    11    1
   11    10    12    1
   12    10    13    1
   13    13    14    1
   14    13    15    1
   15    13    16    1
   16    16    17    1
   17    16    18    1
   18    16    19    1
   19    19    20    1
   20    19    21    1
   21    19    22    1
   22    22    23    1
   23    22    24    1
   24    22    25    1
@<TRIPOS>SUBSTRUCTURE
       1 MOL1            1 RESIDUE      1      MOL     
@<SCITEGIC>MOL_PROPERTY
VM2 Rank
SciTegic.value.IntegerValue
99

@<SCITEGIC>MOL_PROPERTY
Conf_Id
SciTegic.value.IntegerValue
250

@<SCITEGIC>MOL_PROPERTY
Probability
SciTegic.value.DoubleValue
0.02

@<SCITEGIC>MOL_PROPERTY
Sum Probability
SciTegic.value.DoubleValue
99.64

@<SCITEGIC>MOL_PROPERTY
Delta G
SciTegic.value.DoubleValue
4.312

@<SCITEGIC>MOL_PROPERTY
G
SciTegic.value.DoubleValue
-3.650

@<SCITEGIC>MOL_PROPERTY
E
SciTegic.value.DoubleValue
-29.213

@<SCITEGIC>MOL_PROPERTY
-TS
SciTegic.value.DoubleValue
25.563

@<SCITEGIC>MOL_PROPERTY
U+W
SciTegic.value.DoubleValue
-49.781

@<SCITEGIC>MOL_PROPERTY
U
SciTegic.value.DoubleValue
10.242

@<SCITEGIC>MOL_PROPERTY
W
SciTegic.value.DoubleValue
-60.023

@<SCITEGIC>MOL_PROPERTY
W(PB)
SciTegic.value.DoubleValue
-62.388

@<SCITEGIC>MOL_PROPERTY
W(SA)
SciTegic.value.DoubleValue
2.365

@<SCITEGIC>MOL_PROPERTY
Valence
SciTegic.value.DoubleValue
9.192

@<SCITEGIC>MOL_PROPERTY
Coulomb
SciTegic.value.DoubleValue
0.540

@<SCITEGIC>MOL_PROPERTY
VdW
SciTegic.value.DoubleValue
0.509

@<SCITEGIC>MOL_PROPERTY
VdW6
SciTegic.value.DoubleValue
-11.540

@<SCITEGIC>MOL_PROPERTY
VdW12
SciTegic.value.DoubleValue
12.049

@<SCITEGIC>MOL_PROPERTY
Bond
SciTegic.value.DoubleValue
0.268

@<SCITEGIC>MOL_PROPERTY
Angle
SciTegic.value.DoubleValue
3.481

@<SCITEGIC>MOL_PROPERTY
Pdih
SciTegic.value.DoubleValue
5.442

@<SCITEGIC>MOL_PROPERTY
Idih
SciTegic.value.DoubleValue
0.001

@<SCITEGIC>MOL_PROPERTY
Tether
SciTegic.value.DoubleValue
0.000

@<TRIPOS>MOLECULE
guest-8_vm2.mol2 : vm2 ligand conformer 100
          25          24           1
SMALL
USER_CHARGES
 
@<TRIPOS>ATOM
       1    C1      19.650233   19.251931   26.727723 C.2        1 MOL1         0.6168
       2    O1      20.209255   19.334317   27.803983 O.co2      1 MOL1        -0.6703
       3    O2      18.671552   19.906772   26.427071 O.co2      1 MOL1        -0.6703
       4    C2      20.191855   18.250060   25.711899 C.3        1 MOL1        -0.1963
       5    H1      19.437374   18.098209   24.931433 H          1 MOL1         0.0750
       6    H2      20.302362   17.289440   26.228112 H          1 MOL1         0.0750
       7    C3      21.553315   18.656491   25.084509 C.3        1 MOL1        -0.1860
       8    H3      22.300978   18.734556   25.885791 H          1 MOL1         0.0752
       9    H4      21.902035   17.851164   24.425172 H          1 MOL1         0.0752
      10    C4      21.523729   19.994907   24.301917 C.3        1 MOL1        -0.1858
      11    H5      22.529154   20.195515   23.907682 H          1 MOL1         0.0752
      12    H6      21.305198   20.813722   25.001082 H          1 MOL1         0.0752
      13    C5      20.505666   20.054591   23.135645 C.3        1 MOL1        -0.1858
      14    H7      19.486743   19.972643   23.535015 H          1 MOL1         0.0752
      15    H8      20.570745   21.046885   22.669467 H          1 MOL1         0.0752
      16    C6      20.745043   18.973023   22.053929 C.3        1 MOL1        -0.1858
      17    H9      20.575161   17.974395   22.477127 H          1 MOL1         0.0752
      18    H10     21.797692   19.006286   21.741972 H          1 MOL1         0.0752
      19    C7      19.853276   19.150911   20.803200 C.3        1 MOL1        -0.1834
      20    H11     20.022252   20.144042   20.364628 H          1 MOL1         0.0752
      21    H12     20.161252   18.419566   20.043316 H          1 MOL1         0.0752
      22    C8      18.349076   18.960999   21.096123 C.3        1 MOL1        -0.2849
      23    H13     17.970852   19.740613   21.769190 H          1 MOL1         0.0764
      24    H14     17.767115   19.012710   20.166896 H          1 MOL1         0.0764
      25    H15     18.159678   17.984315   21.560136 H          1 MOL1         0.0764
@<TRIPOS>BOND
    1     1     2    1
    2     1     3    2
    3     1     4    1
    4     4     5    1
    5     4     6    1
    6     4     7    1
    7     7     8    1
    8     7     9    1
    9     7    10    1
   10    10    11    1
   11    10    12    1
   12    10    13    1
   13    13    14    1
   14    13    15    1
   15    13    16    1
   16    16    17    1
   17    16    18    1
   18    16    19    1
   19    19    20    1
   20    19    21    1
   21    19    22    1
   22    22    23    1
   23    22    24    1
   24    22    25    1
@<TRIPOS>SUBSTRUCTURE
       1 MOL1            1 RESIDUE      1      MOL     
@<SCITEGIC>MOL_PROPERTY
VM2 Rank
SciTegic.value.IntegerValue
100

@<SCITEGIC>MOL_PROPERTY
Conf_Id
SciTegic.value.IntegerValue
146

@<SCITEGIC>MOL_PROPERTY
Probability
SciTegic.value.DoubleValue
0.02

@<SCITEGIC>MOL_PROPERTY
Sum Probability
SciTegic.value.DoubleValue
99.65

@<SCITEGIC>MOL_PROPERTY
Delta G
SciTegic.value.DoubleValue
4.340

@<SCITEGIC>MOL_PROPERTY
G
SciTegic.value.DoubleValue
-3.622

@<SCITEGIC>MOL_PROPERTY
E
SciTegic.value.DoubleValue
-28.995

@<SCITEGIC>MOL_PROPERTY
-TS
SciTegic.value.DoubleValue
25.373

@<SCITEGIC>MOL_PROPERTY
U+W
SciTegic.value.DoubleValue
-49.563

@<SCITEGIC>MOL_PROPERTY
U
SciTegic.value.DoubleValue
10.961

@<SCITEGIC>MOL_PROPERTY
W
SciTegic.value.DoubleValue
-60.524

@<SCITEGIC>MOL_PROPERTY
W(PB)
SciTegic.value.DoubleValue
-62.910

@<SCITEGIC>MOL_PROPERTY
W(SA)
SciTegic.value.DoubleValue
2.385

@<SCITEGIC>MOL_PROPERTY
Valence
SciTegic.value.DoubleValue
9.203

@<SCITEGIC>MOL_PROPERTY
Coulomb
SciTegic.value.DoubleValue
1.166

@<SCITEGIC>MOL_PROPERTY
VdW
SciTegic.value.DoubleValue
0.592

@<SCITEGIC>MOL_PROPERTY
VdW6
SciTegic.value.DoubleValue
-11.371

@<SCITEGIC>MOL_PROPERTY
VdW12
SciTegic.value.DoubleValue
11.963

@<SCITEGIC>MOL_PROPERTY
Bond
SciTegic.value.DoubleValue
0.260

@<SCITEGIC>MOL_PROPERTY
Angle
SciTegic.value.DoubleValue
3.321

@<SCITEGIC>MOL_PROPERTY
Pdih
SciTegic.value.DoubleValue
5.622

@<SCITEGIC>MOL_PROPERTY
Idih
SciTegic.value.DoubleValue
0.001

@<SCITEGIC>MOL_PROPERTY
Tether
SciTegic.value.DoubleValue
0.000

@<TRIPOS>MOLECULE
guest-8_vm2.mol2 : vm2 ligand conformer 101
          25          24           1
SMALL
USER_CHARGES
 
@<TRIPOS>ATOM
       1    C1      19.774147   19.460375   26.869567 C.2        1 MOL1         0.6168
       2    O1      20.453295   19.506636   27.876648 O.co2      1 MOL1        -0.6703
       3    O2      18.929957   20.288708   26.589828 O.co2      1 MOL1        -0.6703
       4    C2      19.974338   18.281272   25.921560 C.3        1 MOL1        -0.1963
       5    H1      19.125311   18.238215   25.229752 H          1 MOL1         0.0750
       6    H2      19.930301   17.366923   26.524495 H          1 MOL1         0.0750
       7    C3      21.315511   18.317342   25.139215 C.3        1 MOL1        -0.1860
       8    H3      22.144011   18.290725   25.860366 H          1 MOL1         0.0752
       9    H4      21.410137   17.402270   24.540651 H          1 MOL1         0.0752
      10    C4      21.492939   19.559418   24.227708 C.3        1 MOL1        -0.1858
      11    H5      22.466160   19.490595   23.723059 H          1 MOL1         0.0752
      12    H6      21.543280   20.458473   24.857188 H          1 MOL1         0.0752
      13    C5      20.388323   19.766090   23.160647 C.3        1 MOL1        -0.1858
      14    H7      19.421918   19.940219   23.652095 H          1 MOL1         0.0752
      15    H8      20.619679   20.687869   22.612350 H          1 MOL1         0.0752
      16    C6      20.265230   18.589952   22.160760 C.3        1 MOL1        -0.1858
      17    H9      20.025041   17.670270   22.709220 H          1 MOL1         0.0752
      18    H10     21.232553   18.417913   21.669677 H          1 MOL1         0.0752
      19    C7      19.170902   18.806301   21.089394 C.3        1 MOL1        -0.1834
      20    H11     19.054087   17.877548   20.514109 H          1 MOL1         0.0752
      21    H12     18.204601   18.991547   21.578532 H          1 MOL1         0.0752
      22    C8      19.488358   19.957905   20.110672 C.3        1 MOL1        -0.2849
      23    H13     20.466951   19.811143   19.635387 H          1 MOL1         0.0764
      24    H14     18.731404   20.006351   19.317232 H          1 MOL1         0.0764
      25    H15     19.495222   20.928726   20.621421 H          1 MOL1         0.0764
@<TRIPOS>BOND
    1     1     2    1
    2     1     3    2
    3     1     4    1
    4     4     5    1
    5     4     6    1
    6     4     7    1
    7     7     8    1
    8     7     9    1
    9     7    10    1
   10    10    11    1
   11    10    12    1
   12    10    13    1
   13    13    14    1
   14    13    15    1
   15    13    16    1
   16    16    17    1
   17    16    18    1
   18    16    19    1
   19    19    20    1
   20    19    21    1
   21    19    22    1
   22    22    23    1
   23    22    24    1
   24    22    25    1
@<TRIPOS>SUBSTRUCTURE
       1 MOL1            1 RESIDUE      1      MOL     
@<SCITEGIC>MOL_PROPERTY
VM2 Rank
SciTegic.value.IntegerValue
101

@<SCITEGIC>MOL_PROPERTY
Conf_Id
SciTegic.value.IntegerValue
735

@<SCITEGIC>MOL_PROPERTY
Probability
SciTegic.value.DoubleValue
0.01

@<SCITEGIC>MOL_PROPERTY
Sum Probability
SciTegic.value.DoubleValue
99.67

@<SCITEGIC>MOL_PROPERTY
Delta G
SciTegic.value.DoubleValue
4.388

@<SCITEGIC>MOL_PROPERTY
G
SciTegic.value.DoubleValue
-3.574

@<SCITEGIC>MOL_PROPERTY
E
SciTegic.value.DoubleValue
-28.898

@<SCITEGIC>MOL_PROPERTY
-TS
SciTegic.value.DoubleValue
25.323

@<SCITEGIC>MOL_PROPERTY
U+W
SciTegic.value.DoubleValue
-49.465

@<SCITEGIC>MOL_PROPERTY
U
SciTegic.value.DoubleValue
10.878

@<SCITEGIC>MOL_PROPERTY
W
SciTegic.value.DoubleValue
-60.344

@<SCITEGIC>MOL_PROPERTY
W(PB)
SciTegic.value.DoubleValue
-62.742

@<SCITEGIC>MOL_PROPERTY
W(SA)
SciTegic.value.DoubleValue
2.398

@<SCITEGIC>MOL_PROPERTY
Valence
SciTegic.value.DoubleValue
9.320

@<SCITEGIC>MOL_PROPERTY
Coulomb
SciTegic.value.DoubleValue
0.827

@<SCITEGIC>MOL_PROPERTY
VdW
SciTegic.value.DoubleValue
0.731

@<SCITEGIC>MOL_PROPERTY
VdW6
SciTegic.value.DoubleValue
-11.182

@<SCITEGIC>MOL_PROPERTY
VdW12
SciTegic.value.DoubleValue
11.912

@<SCITEGIC>MOL_PROPERTY
Bond
SciTegic.value.DoubleValue
0.267

@<SCITEGIC>MOL_PROPERTY
Angle
SciTegic.value.DoubleValue
3.459

@<SCITEGIC>MOL_PROPERTY
Pdih
SciTegic.value.DoubleValue
5.593

@<SCITEGIC>MOL_PROPERTY
Idih
SciTegic.value.DoubleValue
0.001

@<SCITEGIC>MOL_PROPERTY
Tether
SciTegic.value.DoubleValue
0.000

@<TRIPOS>MOLECULE
guest-8_vm2.mol2 : vm2 ligand conformer 102
          25          24           1
SMALL
USER_CHARGES
 
@<TRIPOS>ATOM
       1    C1      20.125839   19.834045   26.712381 C.2        1 MOL1         0.6168
       2    O1      21.231860   20.302298   26.898359 O.co2      1 MOL1        -0.6703
       3    O2      19.102642   20.488798   26.751212 O.co2      1 MOL1        -0.6703
       4    C2      20.011036   18.336474   26.441359 C.3        1 MOL1        -0.1963
       5    H1      19.199154   17.950616   27.068939 H          1 MOL1         0.0750
       6    H2      20.933079   17.847652   26.778434 H          1 MOL1         0.0750
       7    C3      19.729795   17.986500   24.957179 C.3        1 MOL1        -0.1860
       8    H3      19.529671   16.909846   24.874395 H          1 MOL1         0.0752
       9    H4      18.816664   18.505487   24.636670 H          1 MOL1         0.0752
      10    C4      20.908947   18.359764   24.027463 C.3        1 MOL1        -0.1858
      11    H5      21.825567   17.887339   24.405760 H          1 MOL1         0.0752
      12    H6      21.088370   19.442368   24.066853 H          1 MOL1         0.0752
      13    C5      20.699552   17.916095   22.557901 C.3        1 MOL1        -0.1858
      14    H7      21.599230   18.166604   21.980673 H          1 MOL1         0.0752
      15    H8      20.621469   16.820980   22.525773 H          1 MOL1         0.0752
      16    C6      19.456135   18.522083   21.854616 C.3        1 MOL1        -0.1858
      17    H9      18.545427   18.136103   22.330908 H          1 MOL1         0.0752
      18    H10     19.426735   18.156468   20.819280 H          1 MOL1         0.0752
      19    C7      19.396527   20.069508   21.839160 C.3        1 MOL1        -0.1834
      20    H11     18.466430   20.379414   21.343457 H          1 MOL1         0.0752
      21    H12     19.336781   20.455691   22.865704 H          1 MOL1         0.0752
      22    C8      20.590668   20.718436   21.106369 C.3        1 MOL1        -0.2849
      23    H13     20.679119   20.333796   20.082098 H          1 MOL1         0.0764
      24    H14     20.461329   21.806910   21.049784 H          1 MOL1         0.0764
      25    H15     21.534109   20.522107   21.631118 H          1 MOL1         0.0764
@<TRIPOS>BOND
    1     1     2    1
    2     1     3    2
    3     1     4    1
    4     4     5    1
    5     4     6    1
    6     4     7    1
    7     7     8    1
    8     7     9    1
    9     7    10    1
   10    10    11    1
   11    10    12    1
   12    10    13    1
   13    13    14    1
   14    13    15    1
   15    13    16    1
   16    16    17    1
   17    16    18    1
   18    16    19    1
   19    19    20    1
   20    19    21    1
   21    19    22    1
   22    22    23    1
   23    22    24    1
   24    22    25    1
@<TRIPOS>SUBSTRUCTURE
       1 MOL1            1 RESIDUE      1      MOL     
@<SCITEGIC>MOL_PROPERTY
VM2 Rank
SciTegic.value.IntegerValue
102

@<SCITEGIC>MOL_PROPERTY
Conf_Id
SciTegic.value.IntegerValue
750

@<SCITEGIC>MOL_PROPERTY
Probability
SciTegic.value.DoubleValue
0.01

@<SCITEGIC>MOL_PROPERTY
Sum Probability
SciTegic.value.DoubleValue
99.68

@<SCITEGIC>MOL_PROPERTY
Delta G
SciTegic.value.DoubleValue
4.433

@<SCITEGIC>MOL_PROPERTY
G
SciTegic.value.DoubleValue
-3.529

@<SCITEGIC>MOL_PROPERTY
E
SciTegic.value.DoubleValue
-29.004

@<SCITEGIC>MOL_PROPERTY
-TS
SciTegic.value.DoubleValue
25.475

@<SCITEGIC>MOL_PROPERTY
U+W
SciTegic.value.DoubleValue
-49.572

@<SCITEGIC>MOL_PROPERTY
U
SciTegic.value.DoubleValue
11.216

@<SCITEGIC>MOL_PROPERTY
W
SciTegic.value.DoubleValue
-60.788

@<SCITEGIC>MOL_PROPERTY
W(PB)
SciTegic.value.DoubleValue
-63.159

@<SCITEGIC>MOL_PROPERTY
W(SA)
SciTegic.value.DoubleValue
2.372

@<SCITEGIC>MOL_PROPERTY
Valence
SciTegic.value.DoubleValue
9.147

@<SCITEGIC>MOL_PROPERTY
Coulomb
SciTegic.value.DoubleValue
1.469

@<SCITEGIC>MOL_PROPERTY
VdW
SciTegic.value.DoubleValue
0.600

@<SCITEGIC>MOL_PROPERTY
VdW6
SciTegic.value.DoubleValue
-11.294

@<SCITEGIC>MOL_PROPERTY
VdW12
SciTegic.value.DoubleValue
11.895

@<SCITEGIC>MOL_PROPERTY
Bond
SciTegic.value.DoubleValue
0.253

@<SCITEGIC>MOL_PROPERTY
Angle
SciTegic.value.DoubleValue
3.362

@<SCITEGIC>MOL_PROPERTY
Pdih
SciTegic.value.DoubleValue
5.532

@<SCITEGIC>MOL_PROPERTY
Idih
SciTegic.value.DoubleValue
0.001

@<SCITEGIC>MOL_PROPERTY
Tether
SciTegic.value.DoubleValue
0.000

@<TRIPOS>MOLECULE
guest-8_vm2.mol2 : vm2 ligand conformer 103
          25          24           1
SMALL
USER_CHARGES
 
@<TRIPOS>ATOM
       1    C1      20.087002   19.540653   26.972266 C.2        1 MOL1         0.6168
       2    O1      20.858440   19.106130   27.805126 O.co2      1 MOL1        -0.6703
       3    O2      18.878673   19.523471   27.101851 O.co2      1 MOL1        -0.6703
       4    C2      20.671162   20.166548   25.708978 C.3        1 MOL1        -0.1963
       5    H1      21.440352   20.880985   26.024292 H          1 MOL1         0.0750
       6    H2      19.888230   20.751315   25.212795 H          1 MOL1         0.0750
       7    C3      21.294740   19.140815   24.723533 C.3        1 MOL1        -0.1860
       8    H3      21.757750   19.678775   23.886153 H          1 MOL1         0.0752
       9    H4      22.113375   18.614870   25.233693 H          1 MOL1         0.0752
      10    C4      20.293935   18.090243   24.177126 C.3        1 MOL1        -0.1858
      11    H5      19.926772   17.478765   25.012698 H          1 MOL1         0.0752
      12    H6      20.831897   17.396152   23.518324 H          1 MOL1         0.0752
      13    C5      19.072203   18.674154   23.420096 C.3        1 MOL1        -0.1858
      14    H7      18.451796   17.841636   23.061834 H          1 MOL1         0.0752
      15    H8      18.441572   19.229460   24.127299 H          1 MOL1         0.0752
      16    C6      19.414150   19.594616   22.221487 C.3        1 MOL1        -0.1858
      17    H9      19.957718   20.481278   22.572910 H          1 MOL1         0.0752
      18    H10     18.474044   19.965103   21.790799 H          1 MOL1         0.0752
      19    C7      20.228368   18.887160   21.114969 C.3        1 MOL1        -0.1834
      20    H11     21.202729   18.569639   21.509192 H          1 MOL1         0.0752
      21    H12     19.701829   17.978924   20.791088 H          1 MOL1         0.0752
      22    C8      20.454327   19.810209   19.900567 C.3        1 MOL1        -0.2849
      23    H13     19.498249   20.118260   19.457513 H          1 MOL1         0.0764
      24    H14     21.004437   20.714401   20.192359 H          1 MOL1         0.0764
      25    H15     21.036299   19.294481   19.125768 H          1 MOL1         0.0764
@<TRIPOS>BOND
    1     1     2    1
    2     1     3    2
    3     1     4    1
    4     4     5    1
    5     4     6    1
    6     4     7    1
    7     7     8    1
    8     7     9    1
    9     7    10    1
   10    10    11    1
   11    10    12    1
   12    10    13    1
   13    13    14    1
   14    13    15    1
   15    13    16    1
   16    16    17    1
   17    16    18    1
   18    16    19    1
   19    19    20    1
   20    19    21    1
   21    19    22    1
   22    22    23    1
   23    22    24    1
   24    22    25    1
@<TRIPOS>SUBSTRUCTURE
       1 MOL1            1 RESIDUE      1      MOL     
@<SCITEGIC>MOL_PROPERTY
VM2 Rank
SciTegic.value.IntegerValue
103

@<SCITEGIC>MOL_PROPERTY
Conf_Id
SciTegic.value.IntegerValue
1062

@<SCITEGIC>MOL_PROPERTY
Probability
SciTegic.value.DoubleValue
0.01

@<SCITEGIC>MOL_PROPERTY
Sum Probability
SciTegic.value.DoubleValue
99.69

@<SCITEGIC>MOL_PROPERTY
Delta G
SciTegic.value.DoubleValue
4.461

@<SCITEGIC>MOL_PROPERTY
G
SciTegic.value.DoubleValue
-3.501

@<SCITEGIC>MOL_PROPERTY
E
SciTegic.value.DoubleValue
-29.064

@<SCITEGIC>MOL_PROPERTY
-TS
SciTegic.value.DoubleValue
25.563

@<SCITEGIC>MOL_PROPERTY
U+W
SciTegic.value.DoubleValue
-49.632

@<SCITEGIC>MOL_PROPERTY
U
SciTegic.value.DoubleValue
10.242

@<SCITEGIC>MOL_PROPERTY
W
SciTegic.value.DoubleValue
-59.874

@<SCITEGIC>MOL_PROPERTY
W(PB)
SciTegic.value.DoubleValue
-62.264

@<SCITEGIC>MOL_PROPERTY
W(SA)
SciTegic.value.DoubleValue
2.389

@<SCITEGIC>MOL_PROPERTY
Valence
SciTegic.value.DoubleValue
9.192

@<SCITEGIC>MOL_PROPERTY
Coulomb
SciTegic.value.DoubleValue
0.541

@<SCITEGIC>MOL_PROPERTY
VdW
SciTegic.value.DoubleValue
0.509

@<SCITEGIC>MOL_PROPERTY
VdW6
SciTegic.value.DoubleValue
-11.540

@<SCITEGIC>MOL_PROPERTY
VdW12
SciTegic.value.DoubleValue
12.049

@<SCITEGIC>MOL_PROPERTY
Bond
SciTegic.value.DoubleValue
0.268

@<SCITEGIC>MOL_PROPERTY
Angle
SciTegic.value.DoubleValue
3.481

@<SCITEGIC>MOL_PROPERTY
Pdih
SciTegic.value.DoubleValue
5.442

@<SCITEGIC>MOL_PROPERTY
Idih
SciTegic.value.DoubleValue
0.001

@<SCITEGIC>MOL_PROPERTY
Tether
SciTegic.value.DoubleValue
0.000

@<TRIPOS>MOLECULE
guest-8_vm2.mol2 : vm2 ligand conformer 104
          25          24           1
SMALL
USER_CHARGES
 
@<TRIPOS>ATOM
       1    C1      19.871140   19.619164   26.863310 C.2        1 MOL1         0.6168
       2    O1      20.176014   19.052440   27.894559 O.co2      1 MOL1        -0.6703
       3    O2      18.739222   19.976517   26.602343 O.co2      1 MOL1        -0.6703
       4    C2      20.976983   19.922581   25.856270 C.3        1 MOL1        -0.1963
       5    H1      21.790797   20.412439   26.403305 H          1 MOL1         0.0750
       6    H2      20.602696   20.656668   25.133550 H          1 MOL1         0.0750
       7    C3      21.530255   18.668954   25.125228 C.3        1 MOL1        -0.1860
       8    H3      22.365626   18.966340   24.478462 H          1 MOL1         0.0752
       9    H4      21.958041   17.986450   25.872466 H          1 MOL1         0.0752
      10    C4      20.475257   17.893726   24.293918 C.3        1 MOL1        -0.1858
      11    H5      19.721468   17.476561   24.975719 H          1 MOL1         0.0752
      12    H6      20.963397   17.030890   23.820843 H          1 MOL1         0.0752
      13    C5      19.749041   18.719752   23.202220 C.3        1 MOL1        -0.1858
      14    H7      19.016305   18.063210   22.716541 H          1 MOL1         0.0752
      15    H8      19.169825   19.527774   23.668474 H          1 MOL1         0.0752
      16    C6      20.702776   19.306367   22.132408 C.3        1 MOL1        -0.1858
      17    H9      21.280641   18.496619   21.666732 H          1 MOL1         0.0752
      18    H10     21.429556   19.969884   22.618053 H          1 MOL1         0.0752
      19    C7      19.972499   20.118518   21.037288 C.3        1 MOL1        -0.1834
      20    H11     19.383291   20.921230   21.501830 H          1 MOL1         0.0752
      21    H12     20.724209   20.611577   20.405620 H          1 MOL1         0.0752
      22    C8      19.059814   19.255980   20.138456 C.3        1 MOL1        -0.2849
      23    H13     18.218146   18.837808   20.704259 H          1 MOL1         0.0764
      24    H14     18.642823   19.860759   19.322836 H          1 MOL1         0.0764
      25    H15     19.620911   18.425606   19.690428 H          1 MOL1         0.0764
@<TRIPOS>BOND
    1     1     2    1
    2     1     3    2
    3     1     4    1
    4     4     5    1
    5     4     6    1
    6     4     7    1
    7     7     8    1
    8     7     9    1
    9     7    10    1
   10    10    11    1
   11    10    12    1
   12    10    13    1
   13    13    14    1
   14    13    15    1
   15    13    16    1
   16    16    17    1
   17    16    18    1
   18    16    19    1
   19    19    20    1
   20    19    21    1
   21    19    22    1
   22    22    23    1
   23    22    24    1
   24    22    25    1
@<TRIPOS>SUBSTRUCTURE
       1 MOL1            1 RESIDUE      1      MOL     
@<SCITEGIC>MOL_PROPERTY
VM2 Rank
SciTegic.value.IntegerValue
104

@<SCITEGIC>MOL_PROPERTY
Conf_Id
SciTegic.value.IntegerValue
216

@<SCITEGIC>MOL_PROPERTY
Probability
SciTegic.value.DoubleValue
0.01

@<SCITEGIC>MOL_PROPERTY
Sum Probability
SciTegic.value.DoubleValue
99.71

@<SCITEGIC>MOL_PROPERTY
Delta G
SciTegic.value.DoubleValue
4.484

@<SCITEGIC>MOL_PROPERTY
G
SciTegic.value.DoubleValue
-3.479

@<SCITEGIC>MOL_PROPERTY
E
SciTegic.value.DoubleValue
-28.802

@<SCITEGIC>MOL_PROPERTY
-TS
SciTegic.value.DoubleValue
25.324

@<SCITEGIC>MOL_PROPERTY
U+W
SciTegic.value.DoubleValue
-49.370

@<SCITEGIC>MOL_PROPERTY
U
SciTegic.value.DoubleValue
10.879

@<SCITEGIC>MOL_PROPERTY
W
SciTegic.value.DoubleValue
-60.249

@<SCITEGIC>MOL_PROPERTY
W(PB)
SciTegic.value.DoubleValue
-62.653

@<SCITEGIC>MOL_PROPERTY
W(SA)
SciTegic.value.DoubleValue
2.404

@<SCITEGIC>MOL_PROPERTY
Valence
SciTegic.value.DoubleValue
9.320

@<SCITEGIC>MOL_PROPERTY
Coulomb
SciTegic.value.DoubleValue
0.828

@<SCITEGIC>MOL_PROPERTY
VdW
SciTegic.value.DoubleValue
0.731

@<SCITEGIC>MOL_PROPERTY
VdW6
SciTegic.value.DoubleValue
-11.182

@<SCITEGIC>MOL_PROPERTY
VdW12
SciTegic.value.DoubleValue
11.913

@<SCITEGIC>MOL_PROPERTY
Bond
SciTegic.value.DoubleValue
0.267

@<SCITEGIC>MOL_PROPERTY
Angle
SciTegic.value.DoubleValue
3.459

@<SCITEGIC>MOL_PROPERTY
Pdih
SciTegic.value.DoubleValue
5.593

@<SCITEGIC>MOL_PROPERTY
Idih
SciTegic.value.DoubleValue
0.001

@<SCITEGIC>MOL_PROPERTY
Tether
SciTegic.value.DoubleValue
0.000

@<TRIPOS>MOLECULE
guest-8_vm2.mol2 : vm2 ligand conformer 105
          25          24           1
SMALL
USER_CHARGES
 
@<TRIPOS>ATOM
       1    C1      19.950704   19.660533   26.883144 C.2        1 MOL1         0.6168
       2    O1      20.869997   20.412921   27.140865 O.co2      1 MOL1        -0.6703
       3    O2      18.781503   19.988641   26.933906 O.co2      1 MOL1        -0.6703
       4    C2      20.276591   18.208237   26.539814 C.3        1 MOL1        -0.1963
       5    H1      19.339853   17.658445   26.388092 H          1 MOL1         0.0750
       6    H2      20.749984   17.780670   27.431197 H          1 MOL1         0.0750
       7    C3      21.221831   18.009914   25.321300 C.3        1 MOL1        -0.1860
       8    H3      22.051699   18.728673   25.369023 H          1 MOL1         0.0752
       9    H4      21.679585   17.015200   25.407610 H          1 MOL1         0.0752
      10    C4      20.528818   18.089672   23.938078 C.3        1 MOL1        -0.1858
      11    H5      19.700975   17.368844   23.897611 H          1 MOL1         0.0752
      12    H6      21.256328   17.766759   23.183108 H          1 MOL1         0.0752
      13    C5      20.007372   19.501325   23.575155 C.3        1 MOL1        -0.1858
      14    H7      19.231743   19.795396   24.292619 H          1 MOL1         0.0752
      15    H8      20.818248   20.235926   23.673198 H          1 MOL1         0.0752
      16    C6      19.394554   19.588124   22.156601 C.3        1 MOL1        -0.1858
      17    H9      18.902833   20.564938   22.051977 H          1 MOL1         0.0752
      18    H10     18.605758   18.831112   22.049080 H          1 MOL1         0.0752
      19    C7      20.431493   19.428856   21.021336 C.3        1 MOL1        -0.1834
      20    H11     21.248278   20.150173   21.161877 H          1 MOL1         0.0752
      21    H12     20.879446   18.427325   21.053049 H          1 MOL1         0.0752
      22    C8      19.790137   19.645777   19.635801 C.3        1 MOL1        -0.2849
      23    H13     18.986522   18.919324   19.457378 H          1 MOL1         0.0764
      24    H14     19.365214   20.654666   19.552577 H          1 MOL1         0.0764
      25    H15     20.537543   19.526559   18.840678 H          1 MOL1         0.0764
@<TRIPOS>BOND
    1     1     2    1
    2     1     3    2
    3     1     4    1
    4     4     5    1
    5     4     6    1
    6     4     7    1
    7     7     8    1
    8     7     9    1
    9     7    10    1
   10    10    11    1
   11    10    12    1
   12    10    13    1
   13    13    14    1
   14    13    15    1
   15    13    16    1
   16    16    17    1
   17    16    18    1
   18    16    19    1
   19    19    20    1
   20    19    21    1
   21    19    22    1
   22    22    23    1
   23    22    24    1
   24    22    25    1
@<TRIPOS>SUBSTRUCTURE
       1 MOL1            1 RESIDUE      1      MOL     
@<SCITEGIC>MOL_PROPERTY
VM2 Rank
SciTegic.value.IntegerValue
105

@<SCITEGIC>MOL_PROPERTY
Conf_Id
SciTegic.value.IntegerValue
528

@<SCITEGIC>MOL_PROPERTY
Probability
SciTegic.value.DoubleValue
0.01

@<SCITEGIC>MOL_PROPERTY
Sum Probability
SciTegic.value.DoubleValue
99.72

@<SCITEGIC>MOL_PROPERTY
Delta G
SciTegic.value.DoubleValue
4.582

@<SCITEGIC>MOL_PROPERTY
G
SciTegic.value.DoubleValue
-3.380

@<SCITEGIC>MOL_PROPERTY
E
SciTegic.value.DoubleValue
-28.383

@<SCITEGIC>MOL_PROPERTY
-TS
SciTegic.value.DoubleValue
25.003

@<SCITEGIC>MOL_PROPERTY
U+W
SciTegic.value.DoubleValue
-48.951

@<SCITEGIC>MOL_PROPERTY
U
SciTegic.value.DoubleValue
11.422

@<SCITEGIC>MOL_PROPERTY
W
SciTegic.value.DoubleValue
-60.372

@<SCITEGIC>MOL_PROPERTY
W(PB)
SciTegic.value.DoubleValue
-62.796

@<SCITEGIC>MOL_PROPERTY
W(SA)
SciTegic.value.DoubleValue
2.424

@<SCITEGIC>MOL_PROPERTY
Valence
SciTegic.value.DoubleValue
10.135

@<SCITEGIC>MOL_PROPERTY
Coulomb
SciTegic.value.DoubleValue
0.369

@<SCITEGIC>MOL_PROPERTY
VdW
SciTegic.value.DoubleValue
0.918

@<SCITEGIC>MOL_PROPERTY
VdW6
SciTegic.value.DoubleValue
-10.482

@<SCITEGIC>MOL_PROPERTY
VdW12
SciTegic.value.DoubleValue
11.400

@<SCITEGIC>MOL_PROPERTY
Bond
SciTegic.value.DoubleValue
0.245

@<SCITEGIC>MOL_PROPERTY
Angle
SciTegic.value.DoubleValue
3.539

@<SCITEGIC>MOL_PROPERTY
Pdih
SciTegic.value.DoubleValue
6.346

@<SCITEGIC>MOL_PROPERTY
Idih
SciTegic.value.DoubleValue
0.006

@<SCITEGIC>MOL_PROPERTY
Tether
SciTegic.value.DoubleValue
0.000

@<TRIPOS>MOLECULE
guest-8_vm2.mol2 : vm2 ligand conformer 106
          25          24           1
SMALL
USER_CHARGES
 
@<TRIPOS>ATOM
       1    C1      19.860894   19.700405   26.743077 C.2        1 MOL1         0.6168
       2    O1      20.852625   20.195050   27.242563 O.co2      1 MOL1        -0.6703
       3    O2      18.833373   20.317185   26.540570 O.co2      1 MOL1        -0.6703
       4    C2      19.882559   18.209262   26.412560 C.3        1 MOL1        -0.1963
       5    H1      18.900419   17.916886   26.021773 H          1 MOL1         0.0750
       6    H2      20.010165   17.683650   27.365917 H          1 MOL1         0.0750
       7    C3      21.005437   17.763189   25.434237 C.3        1 MOL1        -0.1860
       8    H3      21.959689   18.224727   25.723954 H          1 MOL1         0.0752
       9    H4      21.146401   16.680119   25.550328 H          1 MOL1         0.0752
      10    C4      20.711479   18.043673   23.939596 C.3        1 MOL1        -0.1858
      11    H5      19.763269   17.565506   23.660940 H          1 MOL1         0.0752
      12    H6      21.492593   17.557824   23.339144 H          1 MOL1         0.0752
      13    C5      20.670307   19.548230   23.579279 C.3        1 MOL1        -0.1858
      14    H7      19.785577   20.017517   24.028122 H          1 MOL1         0.0752
      15    H8      21.545606   20.047313   24.017098 H          1 MOL1         0.0752
      16    C6      20.661437   19.813392   22.054887 C.3        1 MOL1        -0.1858
      17    H9      21.555282   19.367064   21.598134 H          1 MOL1         0.0752
      18    H10     20.736175   20.896830   21.889370 H          1 MOL1         0.0752
      19    C7      19.394310   19.282692   21.347062 C.3        1 MOL1        -0.1834
      20    H11     19.339481   18.190028   21.440239 H          1 MOL1         0.0752
      21    H12     18.498980   19.691433   21.835561 H          1 MOL1         0.0752
      22    C8      19.380578   19.660923   19.852169 C.3        1 MOL1        -0.2849
      23    H13     19.396274   20.750964   19.722190 H          1 MOL1         0.0764
      24    H14     20.252137   19.240974   19.333155 H          1 MOL1         0.0764
      25    H15     18.476552   19.274608   19.363773 H          1 MOL1         0.0764
@<TRIPOS>BOND
    1     1     2    1
    2     1     3    2
    3     1     4    1
    4     4     5    1
    5     4     6    1
    6     4     7    1
    7     7     8    1
    8     7     9    1
    9     7    10    1
   10    10    11    1
   11    10    12    1
   12    10    13    1
   13    13    14    1
   14    13    15    1
   15    13    16    1
   16    16    17    1
   17    16    18    1
   18    16    19    1
   19    19    20    1
   20    19    21    1
   21    19    22    1
   22    22    23    1
   23    22    24    1
   24    22    25    1
@<TRIPOS>SUBSTRUCTURE
       1 MOL1            1 RESIDUE      1      MOL     
@<SCITEGIC>MOL_PROPERTY
VM2 Rank
SciTegic.value.IntegerValue
106

@<SCITEGIC>MOL_PROPERTY
Conf_Id
SciTegic.value.IntegerValue
1085

@<SCITEGIC>MOL_PROPERTY
Probability
SciTegic.value.DoubleValue
0.01

@<SCITEGIC>MOL_PROPERTY
Sum Probability
SciTegic.value.DoubleValue
99.73

@<SCITEGIC>MOL_PROPERTY
Delta G
SciTegic.value.DoubleValue
4.596

@<SCITEGIC>MOL_PROPERTY
G
SciTegic.value.DoubleValue
-3.366

@<SCITEGIC>MOL_PROPERTY
E
SciTegic.value.DoubleValue
-28.554

@<SCITEGIC>MOL_PROPERTY
-TS
SciTegic.value.DoubleValue
25.187

@<SCITEGIC>MOL_PROPERTY
U+W
SciTegic.value.DoubleValue
-49.121

@<SCITEGIC>MOL_PROPERTY
U
SciTegic.value.DoubleValue
11.400

@<SCITEGIC>MOL_PROPERTY
W
SciTegic.value.DoubleValue
-60.522

@<SCITEGIC>MOL_PROPERTY
W(PB)
SciTegic.value.DoubleValue
-62.946

@<SCITEGIC>MOL_PROPERTY
W(SA)
SciTegic.value.DoubleValue
2.424

@<SCITEGIC>MOL_PROPERTY
Valence
SciTegic.value.DoubleValue
9.920

@<SCITEGIC>MOL_PROPERTY
Coulomb
SciTegic.value.DoubleValue
0.704

@<SCITEGIC>MOL_PROPERTY
VdW
SciTegic.value.DoubleValue
0.777

@<SCITEGIC>MOL_PROPERTY
VdW6
SciTegic.value.DoubleValue
-10.716

@<SCITEGIC>MOL_PROPERTY
VdW12
SciTegic.value.DoubleValue
11.493

@<SCITEGIC>MOL_PROPERTY
Bond
SciTegic.value.DoubleValue
0.235

@<SCITEGIC>MOL_PROPERTY
Angle
SciTegic.value.DoubleValue
3.375

@<SCITEGIC>MOL_PROPERTY
Pdih
SciTegic.value.DoubleValue
6.305

@<SCITEGIC>MOL_PROPERTY
Idih
SciTegic.value.DoubleValue
0.006

@<SCITEGIC>MOL_PROPERTY
Tether
SciTegic.value.DoubleValue
0.000

@<TRIPOS>MOLECULE
guest-8_vm2.mol2 : vm2 ligand conformer 107
          25          24           1
SMALL
USER_CHARGES
 
@<TRIPOS>ATOM
       1    C1      19.688391   19.196060   26.758618 C.2        1 MOL1         0.6168
       2    O1      20.179482   18.226310   27.302773 O.co2      1 MOL1        -0.6703
       3    O2      18.494683   19.326801   26.571014 O.co2      1 MOL1        -0.6703
       4    C2      20.611551   20.341314   26.347038 C.3        1 MOL1        -0.1963
       5    H1      21.051940   20.730460   27.272274 H          1 MOL1         0.0750
       6    H2      20.006381   21.151384   25.922358 H          1 MOL1         0.0750
       7    C3      21.754044   19.952587   25.366956 C.3        1 MOL1        -0.1860
       8    H3      22.530273   20.727428   25.425927 H          1 MOL1         0.0752
       9    H4      22.231793   19.020542   25.699521 H          1 MOL1         0.0752
      10    C4      21.321891   19.828854   23.884739 C.3        1 MOL1        -0.1858
      11    H5      22.225552   19.701420   23.273276 H          1 MOL1         0.0752
      12    H6      20.859254   20.770910   23.562414 H          1 MOL1         0.0752
      13    C5      20.362205   18.646871   23.607019 C.3        1 MOL1        -0.1858
      14    H7      20.757398   17.741664   24.087998 H          1 MOL1         0.0752
      15    H8      19.383888   18.842396   24.064293 H          1 MOL1         0.0752
      16    C6      20.164309   18.359203   22.099623 C.3        1 MOL1        -0.1858
      17    H9      19.557621   17.449322   21.995386 H          1 MOL1         0.0752
      18    H10     21.135654   18.139618   21.635875 H          1 MOL1         0.0752
      19    C7      19.473411   19.514160   21.340016 C.3        1 MOL1        -0.1834
      20    H11     18.524492   19.766084   21.833375 H          1 MOL1         0.0752
      21    H12     20.100143   20.415155   21.371883 H          1 MOL1         0.0752
      22    C8      19.203032   19.141842   19.868204 C.3        1 MOL1        -0.2849
      23    H13     18.546294   18.264804   19.798719 H          1 MOL1         0.0764
      24    H14     18.715098   19.972808   19.342421 H          1 MOL1         0.0764
      25    H15     20.139434   18.911661   19.343307 H          1 MOL1         0.0764
@<TRIPOS>BOND
    1     1     2    1
    2     1     3    2
    3     1     4    1
    4     4     5    1
    5     4     6    1
    6     4     7    1
    7     7     8    1
    8     7     9    1
    9     7    10    1
   10    10    11    1
   11    10    12    1
   12    10    13    1
   13    13    14    1
   14    13    15    1
   15    13    16    1
   16    16    17    1
   17    16    18    1
   18    16    19    1
   19    19    20    1
   20    19    21    1
   21    19    22    1
   22    22    23    1
   23    22    24    1
   24    22    25    1
@<TRIPOS>SUBSTRUCTURE
       1 MOL1            1 RESIDUE      1      MOL     
@<SCITEGIC>MOL_PROPERTY
VM2 Rank
SciTegic.value.IntegerValue
107

@<SCITEGIC>MOL_PROPERTY
Conf_Id
SciTegic.value.IntegerValue
438

@<SCITEGIC>MOL_PROPERTY
Probability
SciTegic.value.DoubleValue
0.01

@<SCITEGIC>MOL_PROPERTY
Sum Probability
SciTegic.value.DoubleValue
99.74

@<SCITEGIC>MOL_PROPERTY
Delta G
SciTegic.value.DoubleValue
4.608

@<SCITEGIC>MOL_PROPERTY
G
SciTegic.value.DoubleValue
-3.355

@<SCITEGIC>MOL_PROPERTY
E
SciTegic.value.DoubleValue
-28.541

@<SCITEGIC>MOL_PROPERTY
-TS
SciTegic.value.DoubleValue
25.187

@<SCITEGIC>MOL_PROPERTY
U+W
SciTegic.value.DoubleValue
-49.109

@<SCITEGIC>MOL_PROPERTY
U
SciTegic.value.DoubleValue
11.401

@<SCITEGIC>MOL_PROPERTY
W
SciTegic.value.DoubleValue
-60.510

@<SCITEGIC>MOL_PROPERTY
W(PB)
SciTegic.value.DoubleValue
-62.942

@<SCITEGIC>MOL_PROPERTY
W(SA)
SciTegic.value.DoubleValue
2.432

@<SCITEGIC>MOL_PROPERTY
Valence
SciTegic.value.DoubleValue
9.920

@<SCITEGIC>MOL_PROPERTY
Coulomb
SciTegic.value.DoubleValue
0.705

@<SCITEGIC>MOL_PROPERTY
VdW
SciTegic.value.DoubleValue
0.777

@<SCITEGIC>MOL_PROPERTY
VdW6
SciTegic.value.DoubleValue
-10.716

@<SCITEGIC>MOL_PROPERTY
VdW12
SciTegic.value.DoubleValue
11.493

@<SCITEGIC>MOL_PROPERTY
Bond
SciTegic.value.DoubleValue
0.235

@<SCITEGIC>MOL_PROPERTY
Angle
SciTegic.value.DoubleValue
3.375

@<SCITEGIC>MOL_PROPERTY
Pdih
SciTegic.value.DoubleValue
6.304

@<SCITEGIC>MOL_PROPERTY
Idih
SciTegic.value.DoubleValue
0.006

@<SCITEGIC>MOL_PROPERTY
Tether
SciTegic.value.DoubleValue
0.000

@<TRIPOS>MOLECULE
guest-8_vm2.mol2 : vm2 ligand conformer 108
          25          24           1
SMALL
USER_CHARGES
 
@<TRIPOS>ATOM
       1    C1      20.307671   19.566929   27.373952 C.2        1 MOL1         0.6168
       2    O1      21.389527   19.455063   27.916021 O.co2      1 MOL1        -0.6703
       3    O2      19.249396   19.533795   27.970356 O.co2      1 MOL1        -0.6703
       4    C2      20.275617   19.734950   25.859122 C.3        1 MOL1        -0.1963
       5    H1      21.176155   20.283595   25.558486 H          1 MOL1         0.0750
       6    H2      19.413218   20.364052   25.611294 H          1 MOL1         0.0750
       7    C3      20.197964   18.381080   25.106839 C.3        1 MOL1        -0.1860
       8    H3      21.026486   17.742059   25.442360 H          1 MOL1         0.0752
       9    H4      19.271821   17.859435   25.385069 H          1 MOL1         0.0752
      10    C4      20.274699   18.526493   23.568377 C.3        1 MOL1        -0.1858
      11    H5      20.313910   17.523281   23.122747 H          1 MOL1         0.0752
      12    H6      21.213579   19.029138   23.302497 H          1 MOL1         0.0752
      13    C5      19.078648   19.301012   22.966521 C.3        1 MOL1        -0.1858
      14    H7      18.145940   18.890466   23.376582 H          1 MOL1         0.0752
      15    H8      19.119584   20.351739   23.282021 H          1 MOL1         0.0752
      16    C6      18.997266   19.241442   21.420310 C.3        1 MOL1        -0.1858
      17    H9      18.079527   19.764481   21.118590 H          1 MOL1         0.0752
      18    H10     18.870645   18.201965   21.088210 H          1 MOL1         0.0752
      19    C7      20.190025   19.899629   20.682445 C.3        1 MOL1        -0.1834
      20    H11     19.815355   20.374179   19.764996 H          1 MOL1         0.0752
      21    H12     20.615838   20.708243   21.292415 H          1 MOL1         0.0752
      22    C8      21.292188   18.893608   20.282057 C.3        1 MOL1        -0.2849
      23    H13     20.888929   18.115055   19.621551 H          1 MOL1         0.0764
      24    H14     22.100555   19.404716   19.743439 H          1 MOL1         0.0764
      25    H15     21.732983   18.400982   21.155899 H          1 MOL1         0.0764
@<TRIPOS>BOND
    1     1     2    1
    2     1     3    2
    3     1     4    1
    4     4     5    1
    5     4     6    1
    6     4     7    1
    7     7     8    1
    8     7     9    1
    9     7    10    1
   10    10    11    1
   11    10    12    1
   12    10    13    1
   13    13    14    1
   14    13    15    1
   15    13    16    1
   16    16    17    1
   17    16    18    1
   18    16    19    1
   19    19    20    1
   20    19    21    1
   21    19    22    1
   22    22    23    1
   23    22    24    1
   24    22    25    1
@<TRIPOS>SUBSTRUCTURE
       1 MOL1            1 RESIDUE      1      MOL     
@<SCITEGIC>MOL_PROPERTY
VM2 Rank
SciTegic.value.IntegerValue
108

@<SCITEGIC>MOL_PROPERTY
Conf_Id
SciTegic.value.IntegerValue
450

@<SCITEGIC>MOL_PROPERTY
Probability
SciTegic.value.DoubleValue
0.01

@<SCITEGIC>MOL_PROPERTY
Sum Probability
SciTegic.value.DoubleValue
99.75

@<SCITEGIC>MOL_PROPERTY
Delta G
SciTegic.value.DoubleValue
4.649

@<SCITEGIC>MOL_PROPERTY
G
SciTegic.value.DoubleValue
-3.313

@<SCITEGIC>MOL_PROPERTY
E
SciTegic.value.DoubleValue
-28.170

@<SCITEGIC>MOL_PROPERTY
-TS
SciTegic.value.DoubleValue
24.856

@<SCITEGIC>MOL_PROPERTY
U+W
SciTegic.value.DoubleValue
-48.737

@<SCITEGIC>MOL_PROPERTY
U
SciTegic.value.DoubleValue
10.438

@<SCITEGIC>MOL_PROPERTY
W
SciTegic.value.DoubleValue
-59.175

@<SCITEGIC>MOL_PROPERTY
W(PB)
SciTegic.value.DoubleValue
-61.615

@<SCITEGIC>MOL_PROPERTY
W(SA)
SciTegic.value.DoubleValue
2.439

@<SCITEGIC>MOL_PROPERTY
Valence
SciTegic.value.DoubleValue
10.999

@<SCITEGIC>MOL_PROPERTY
Coulomb
SciTegic.value.DoubleValue
-1.665

@<SCITEGIC>MOL_PROPERTY
VdW
SciTegic.value.DoubleValue
1.104

@<SCITEGIC>MOL_PROPERTY
VdW6
SciTegic.value.DoubleValue
-9.904

@<SCITEGIC>MOL_PROPERTY
VdW12
SciTegic.value.DoubleValue
11.009

@<SCITEGIC>MOL_PROPERTY
Bond
SciTegic.value.DoubleValue
0.232

@<SCITEGIC>MOL_PROPERTY
Angle
SciTegic.value.DoubleValue
3.215

@<SCITEGIC>MOL_PROPERTY
Pdih
SciTegic.value.DoubleValue
7.552

@<SCITEGIC>MOL_PROPERTY
Idih
SciTegic.value.DoubleValue
0.001

@<SCITEGIC>MOL_PROPERTY
Tether
SciTegic.value.DoubleValue
0.000

@<TRIPOS>MOLECULE
guest-8_vm2.mol2 : vm2 ligand conformer 109
          25          24           1
SMALL
USER_CHARGES
 
@<TRIPOS>ATOM
       1    C1      20.324826   19.746414   27.229579 C.2        1 MOL1         0.6168
       2    O1      21.380508   19.606929   27.815113 O.co2      1 MOL1        -0.6703
       3    O2      19.262589   19.928051   27.791190 O.co2      1 MOL1        -0.6703
       4    C2      20.330070   19.665904   25.707265 C.3        1 MOL1        -0.1963
       5    H1      21.290894   20.054714   25.349446 H          1 MOL1         0.0750
       6    H2      19.548645   20.337963   25.335585 H          1 MOL1         0.0750
       7    C3      20.107812   18.223658   25.182117 C.3        1 MOL1        -0.1860
       8    H3      20.851064   17.561423   25.647332 H          1 MOL1         0.0752
       9    H4      19.122832   17.861184   25.507181 H          1 MOL1         0.0752
      10    C4      20.230486   18.102693   23.644579 C.3        1 MOL1        -0.1858
      11    H5      20.195002   17.037993   23.376744 H          1 MOL1         0.0752
      12    H6      21.216938   18.463936   23.330718 H          1 MOL1         0.0752
      13    C5      19.108462   18.847627   22.878726 C.3        1 MOL1        -0.1858
      14    H7      18.141632   18.460411   23.227968 H          1 MOL1         0.0752
      15    H8      19.114698   19.918500   23.118411 H          1 MOL1         0.0752
      16    C6      19.186874   18.658984   21.342114 C.3        1 MOL1        -0.1858
      17    H9      18.161284   18.609135   20.951583 H          1 MOL1         0.0752
      18    H10     19.645633   17.690939   21.098949 H          1 MOL1         0.0752
      19    C7      19.917256   19.797566   20.587617 C.3        1 MOL1        -0.1834
      20    H11     19.848634   19.600839   19.508851 H          1 MOL1         0.0752
      21    H12     19.394031   20.748171   20.760260 H          1 MOL1         0.0752
      22    C8      21.404116   19.956174   20.967701 C.3        1 MOL1        -0.2849
      23    H13     21.512326   20.315108   21.998757 H          1 MOL1         0.0764
      24    H14     21.939548   19.002788   20.871233 H          1 MOL1         0.0764
      25    H15     21.892409   20.687276   20.310596 H          1 MOL1         0.0764
@<TRIPOS>BOND
    1     1     2    1
    2     1     3    2
    3     1     4    1
    4     4     5    1
    5     4     6    1
    6     4     7    1
    7     7     8    1
    8     7     9    1
    9     7    10    1
   10    10    11    1
   11    10    12    1
   12    10    13    1
   13    13    14    1
   14    13    15    1
   15    13    16    1
   16    16    17    1
   17    16    18    1
   18    16    19    1
   19    19    20    1
   20    19    21    1
   21    19    22    1
   22    22    23    1
   23    22    24    1
   24    22    25    1
@<TRIPOS>SUBSTRUCTURE
       1 MOL1            1 RESIDUE      1      MOL     
@<SCITEGIC>MOL_PROPERTY
VM2 Rank
SciTegic.value.IntegerValue
109

@<SCITEGIC>MOL_PROPERTY
Conf_Id
SciTegic.value.IntegerValue
238

@<SCITEGIC>MOL_PROPERTY
Probability
SciTegic.value.DoubleValue
0.01

@<SCITEGIC>MOL_PROPERTY
Sum Probability
SciTegic.value.DoubleValue
99.76

@<SCITEGIC>MOL_PROPERTY
Delta G
SciTegic.value.DoubleValue
4.657

@<SCITEGIC>MOL_PROPERTY
G
SciTegic.value.DoubleValue
-3.305

@<SCITEGIC>MOL_PROPERTY
E
SciTegic.value.DoubleValue
-28.116

@<SCITEGIC>MOL_PROPERTY
-TS
SciTegic.value.DoubleValue
24.811

@<SCITEGIC>MOL_PROPERTY
U+W
SciTegic.value.DoubleValue
-48.684

@<SCITEGIC>MOL_PROPERTY
U
SciTegic.value.DoubleValue
10.664

@<SCITEGIC>MOL_PROPERTY
W
SciTegic.value.DoubleValue
-59.348

@<SCITEGIC>MOL_PROPERTY
W(PB)
SciTegic.value.DoubleValue
-61.759

@<SCITEGIC>MOL_PROPERTY
W(SA)
SciTegic.value.DoubleValue
2.411

@<SCITEGIC>MOL_PROPERTY
Valence
SciTegic.value.DoubleValue
11.013

@<SCITEGIC>MOL_PROPERTY
Coulomb
SciTegic.value.DoubleValue
-1.402

@<SCITEGIC>MOL_PROPERTY
VdW
SciTegic.value.DoubleValue
1.052

@<SCITEGIC>MOL_PROPERTY
VdW6
SciTegic.value.DoubleValue
-9.993

@<SCITEGIC>MOL_PROPERTY
VdW12
SciTegic.value.DoubleValue
11.045

@<SCITEGIC>MOL_PROPERTY
Bond
SciTegic.value.DoubleValue
0.241

@<SCITEGIC>MOL_PROPERTY
Angle
SciTegic.value.DoubleValue
3.227

@<SCITEGIC>MOL_PROPERTY
Pdih
SciTegic.value.DoubleValue
7.545

@<SCITEGIC>MOL_PROPERTY
Idih
SciTegic.value.DoubleValue
0.001

@<SCITEGIC>MOL_PROPERTY
Tether
SciTegic.value.DoubleValue
0.000

@<TRIPOS>MOLECULE
guest-8_vm2.mol2 : vm2 ligand conformer 110
          25          24           1
SMALL
USER_CHARGES
 
@<TRIPOS>ATOM
       1    C1      20.324313   18.931030   26.893333 C.2        1 MOL1         0.6168
       2    O1      21.469339   19.242730   27.156708 O.co2      1 MOL1        -0.6703
       3    O2      19.906293   17.791983   26.964694 O.co2      1 MOL1        -0.6703
       4    C2      19.340647   20.036445   26.514231 C.3        1 MOL1        -0.1963
       5    H1      19.260604   20.690147   27.390441 H          1 MOL1         0.0750
       6    H2      18.348661   19.594513   26.361163 H          1 MOL1         0.0750
       7    C3      19.746126   20.891984   25.280848 C.3        1 MOL1        -0.1860
       8    H3      19.205892   21.846505   25.339850 H          1 MOL1         0.0752
       9    H4      20.813842   21.146208   25.334944 H          1 MOL1         0.0752
      10    C4      19.421223   20.252432   23.907769 C.3        1 MOL1        -0.1858
      11    H5      19.593422   21.014394   23.137521 H          1 MOL1         0.0752
      12    H6      18.352874   20.001490   23.860727 H          1 MOL1         0.0752
      13    C5      20.265263   18.996208   23.582382 C.3        1 MOL1        -0.1858
      14    H7      21.334195   19.226513   23.687810 H          1 MOL1         0.0752
      15    H8      20.041681   18.211144   24.314859 H          1 MOL1         0.0752
      16    C6      19.993719   18.417059   22.173049 C.3        1 MOL1        -0.1858
      17    H9      18.919620   18.217696   22.057322 H          1 MOL1         0.0752
      18    H10     20.499361   17.444807   22.095881 H          1 MOL1         0.0752
      19    C7      20.484570   19.325889   21.023037 C.3        1 MOL1        -0.1834
      20    H11     19.934145   20.275493   21.027238 H          1 MOL1         0.0752
      21    H12     21.545711   19.569547   21.170683 H          1 MOL1         0.0752
      22    C8      20.301507   18.648241   19.649948 C.3        1 MOL1        -0.2849
      23    H13     19.244358   18.417385   19.464181 H          1 MOL1         0.0764
      24    H14     20.651427   19.306412   18.844085 H          1 MOL1         0.0764
      25    H15     20.872013   17.711889   19.594166 H          1 MOL1         0.0764
@<TRIPOS>BOND
    1     1     2    1
    2     1     3    2
    3     1     4    1
    4     4     5    1
    5     4     6    1
    6     4     7    1
    7     7     8    1
    8     7     9    1
    9     7    10    1
   10    10    11    1
   11    10    12    1
   12    10    13    1
   13    13    14    1
   14    13    15    1
   15    13    16    1
   16    16    17    1
   17    16    18    1
   18    16    19    1
   19    19    20    1
   20    19    21    1
   21    19    22    1
   22    22    23    1
   23    22    24    1
   24    22    25    1
@<TRIPOS>SUBSTRUCTURE
       1 MOL1            1 RESIDUE      1      MOL     
@<SCITEGIC>MOL_PROPERTY
VM2 Rank
SciTegic.value.IntegerValue
110

@<SCITEGIC>MOL_PROPERTY
Conf_Id
SciTegic.value.IntegerValue
1259

@<SCITEGIC>MOL_PROPERTY
Probability
SciTegic.value.DoubleValue
0.01

@<SCITEGIC>MOL_PROPERTY
Sum Probability
SciTegic.value.DoubleValue
99.77

@<SCITEGIC>MOL_PROPERTY
Delta G
SciTegic.value.DoubleValue
4.658

@<SCITEGIC>MOL_PROPERTY
G
SciTegic.value.DoubleValue
-3.304

@<SCITEGIC>MOL_PROPERTY
E
SciTegic.value.DoubleValue
-28.308

@<SCITEGIC>MOL_PROPERTY
-TS
SciTegic.value.DoubleValue
25.003

@<SCITEGIC>MOL_PROPERTY
U+W
SciTegic.value.DoubleValue
-48.875

@<SCITEGIC>MOL_PROPERTY
U
SciTegic.value.DoubleValue
11.423

@<SCITEGIC>MOL_PROPERTY
W
SciTegic.value.DoubleValue
-60.298

@<SCITEGIC>MOL_PROPERTY
W(PB)
SciTegic.value.DoubleValue
-62.736

@<SCITEGIC>MOL_PROPERTY
W(SA)
SciTegic.value.DoubleValue
2.438

@<SCITEGIC>MOL_PROPERTY
Valence
SciTegic.value.DoubleValue
10.135

@<SCITEGIC>MOL_PROPERTY
Coulomb
SciTegic.value.DoubleValue
0.370

@<SCITEGIC>MOL_PROPERTY
VdW
SciTegic.value.DoubleValue
0.918

@<SCITEGIC>MOL_PROPERTY
VdW6
SciTegic.value.DoubleValue
-10.483

@<SCITEGIC>MOL_PROPERTY
VdW12
SciTegic.value.DoubleValue
11.400

@<SCITEGIC>MOL_PROPERTY
Bond
SciTegic.value.DoubleValue
0.245

@<SCITEGIC>MOL_PROPERTY
Angle
SciTegic.value.DoubleValue
3.539

@<SCITEGIC>MOL_PROPERTY
Pdih
SciTegic.value.DoubleValue
6.346

@<SCITEGIC>MOL_PROPERTY
Idih
SciTegic.value.DoubleValue
0.006

@<SCITEGIC>MOL_PROPERTY
Tether
SciTegic.value.DoubleValue
0.000

@<TRIPOS>MOLECULE
guest-8_vm2.mol2 : vm2 ligand conformer 111
          25          24           1
SMALL
USER_CHARGES
 
@<TRIPOS>ATOM
       1    C1      20.010580   19.465703   26.980699 C.2        1 MOL1         0.6168
       2    O1      20.899354   19.914351   27.678062 O.co2      1 MOL1        -0.6703
       3    O2      18.916768   19.983601   26.869744 O.co2      1 MOL1        -0.6703
       4    C2      20.274943   18.164708   26.228002 C.3        1 MOL1        -0.1963
       5    H1      19.317522   17.755388   25.886832 H          1 MOL1         0.0750
       6    H2      20.677599   17.446448   26.951614 H          1 MOL1         0.0750
       7    C3      21.267036   18.307700   25.041238 C.3        1 MOL1        -0.1860
       8    H3      22.236958   18.643114   25.433735 H          1 MOL1         0.0752
       9    H4      21.441402   17.319033   24.595751 H          1 MOL1         0.0752
      10    C4      20.812266   19.291769   23.935096 C.3        1 MOL1        -0.1858
      11    H5      21.628491   19.381402   23.207163 H          1 MOL1         0.0752
      12    H6      20.667289   20.292573   24.364285 H          1 MOL1         0.0752
      13    C5      19.520710   18.846441   23.206454 C.3        1 MOL1        -0.1858
      14    H7      19.656208   17.840246   22.789326 H          1 MOL1         0.0752
      15    H8      18.702971   18.769013   23.934365 H          1 MOL1         0.0752
      16    C6      19.069119   19.825761   22.093220 C.3        1 MOL1        -0.1858
      17    H9      18.856921   20.803835   22.546138 H          1 MOL1         0.0752
      18    H10     18.115208   19.470526   21.680356 H          1 MOL1         0.0752
      19    C7      20.072214   20.021761   20.929193 C.3        1 MOL1        -0.1834
      20    H11     19.640198   20.733949   20.212832 H          1 MOL1         0.0752
      21    H12     20.995667   20.487309   21.297668 H          1 MOL1         0.0752
      22    C8      20.410009   18.712204   20.184291 C.3        1 MOL1        -0.2849
      23    H13     21.046131   18.918265   19.313866 H          1 MOL1         0.0764
      24    H14     20.951622   18.012965   20.833749 H          1 MOL1         0.0764
      25    H15     19.497858   18.216432   19.827701 H          1 MOL1         0.0764
@<TRIPOS>BOND
    1     1     2    1
    2     1     3    2
    3     1     4    1
    4     4     5    1
    5     4     6    1
    6     4     7    1
    7     7     8    1
    8     7     9    1
    9     7    10    1
   10    10    11    1
   11    10    12    1
   12    10    13    1
   13    13    14    1
   14    13    15    1
   15    13    16    1
   16    16    17    1
   17    16    18    1
   18    16    19    1
   19    19    20    1
   20    19    21    1
   21    19    22    1
   22    22    23    1
   23    22    24    1
   24    22    25    1
@<TRIPOS>SUBSTRUCTURE
       1 MOL1            1 RESIDUE      1      MOL     
@<SCITEGIC>MOL_PROPERTY
VM2 Rank
SciTegic.value.IntegerValue
111

@<SCITEGIC>MOL_PROPERTY
Conf_Id
SciTegic.value.IntegerValue
563

@<SCITEGIC>MOL_PROPERTY
Probability
SciTegic.value.DoubleValue
0.01

@<SCITEGIC>MOL_PROPERTY
Sum Probability
SciTegic.value.DoubleValue
99.78

@<SCITEGIC>MOL_PROPERTY
Delta G
SciTegic.value.DoubleValue
4.660

@<SCITEGIC>MOL_PROPERTY
G
SciTegic.value.DoubleValue
-3.303

@<SCITEGIC>MOL_PROPERTY
E
SciTegic.value.DoubleValue
-28.505

@<SCITEGIC>MOL_PROPERTY
-TS
SciTegic.value.DoubleValue
25.202

@<SCITEGIC>MOL_PROPERTY
U+W
SciTegic.value.DoubleValue
-49.073

@<SCITEGIC>MOL_PROPERTY
U
SciTegic.value.DoubleValue
11.036

@<SCITEGIC>MOL_PROPERTY
W
SciTegic.value.DoubleValue
-60.109

@<SCITEGIC>MOL_PROPERTY
W(PB)
SciTegic.value.DoubleValue
-62.507

@<SCITEGIC>MOL_PROPERTY
W(SA)
SciTegic.value.DoubleValue
2.399

@<SCITEGIC>MOL_PROPERTY
Valence
SciTegic.value.DoubleValue
9.325

@<SCITEGIC>MOL_PROPERTY
Coulomb
SciTegic.value.DoubleValue
0.928

@<SCITEGIC>MOL_PROPERTY
VdW
SciTegic.value.DoubleValue
0.783

@<SCITEGIC>MOL_PROPERTY
VdW6
SciTegic.value.DoubleValue
-11.027

@<SCITEGIC>MOL_PROPERTY
VdW12
SciTegic.value.DoubleValue
11.810

@<SCITEGIC>MOL_PROPERTY
Bond
SciTegic.value.DoubleValue
0.268

@<SCITEGIC>MOL_PROPERTY
Angle
SciTegic.value.DoubleValue
3.516

@<SCITEGIC>MOL_PROPERTY
Pdih
SciTegic.value.DoubleValue
5.540

@<SCITEGIC>MOL_PROPERTY
Idih
SciTegic.value.DoubleValue
0.001

@<SCITEGIC>MOL_PROPERTY
Tether
SciTegic.value.DoubleValue
0.000

@<TRIPOS>MOLECULE
guest-8_vm2.mol2 : vm2 ligand conformer 112
          25          24           1
SMALL
USER_CHARGES
 
@<TRIPOS>ATOM
       1    C1      19.556284   19.059538   26.503816 C.2        1 MOL1         0.6168
       2    O1      19.597182   17.854182   26.655883 O.co2      1 MOL1        -0.6703
       3    O2      18.522314   19.683755   26.367801 O.co2      1 MOL1        -0.6703
       4    C2      20.867282   19.841804   26.557523 C.3        1 MOL1        -0.1963
       5    H1      21.270059   19.698859   27.566874 H          1 MOL1         0.0750
       6    H2      20.648516   20.911618   26.455466 H          1 MOL1         0.0750
       7    C3      21.940446   19.410028   25.518815 C.3        1 MOL1        -0.1860
       8    H3      22.918879   19.756690   25.877836 H          1 MOL1         0.0752
       9    H4      22.004196   18.313661   25.479979 H          1 MOL1         0.0752
      10    C4      21.731714   19.980435   24.093972 C.3        1 MOL1        -0.1858
      11    H5      22.618555   19.734811   23.493841 H          1 MOL1         0.0752
      12    H6      21.683119   21.076996   24.138459 H          1 MOL1         0.0752
      13    C5      20.478461   19.433539   23.373447 C.3        1 MOL1        -0.1858
      14    H7      20.478155   18.337241   23.430300 H          1 MOL1         0.0752
      15    H8      19.572571   19.783619   23.883961 H          1 MOL1         0.0752
      16    C6      20.428349   19.886210   21.895590 C.3        1 MOL1        -0.1858
      17    H9      21.301193   19.492297   21.357287 H          1 MOL1         0.0752
      18    H10     20.505540   20.981324   21.855241 H          1 MOL1         0.0752
      19    C7      19.134385   19.457520   21.165183 C.3        1 MOL1        -0.1834
      20    H11     18.259324   19.856306   21.696849 H          1 MOL1         0.0752
      21    H12     19.125401   19.914287   20.165958 H          1 MOL1         0.0752
      22    C8      18.996583   17.926988   21.013971 C.3        1 MOL1        -0.2849
      23    H13     19.874967   17.500919   20.512008 H          1 MOL1         0.0764
      24    H14     18.885518   17.437045   21.989478 H          1 MOL1         0.0764
      25    H15     18.111022   17.678554   20.414878 H          1 MOL1         0.0764
@<TRIPOS>BOND
    1     1     2    1
    2     1     3    2
    3     1     4    1
    4     4     5    1
    5     4     6    1
    6     4     7    1
    7     7     8    1
    8     7     9    1
    9     7    10    1
   10    10    11    1
   11    10    12    1
   12    10    13    1
   13    13    14    1
   14    13    15    1
   15    13    16    1
   16    16    17    1
   17    16    18    1
   18    16    19    1
   19    19    20    1
   20    19    21    1
   21    19    22    1
   22    22    23    1
   23    22    24    1
   24    22    25    1
@<TRIPOS>SUBSTRUCTURE
       1 MOL1            1 RESIDUE      1      MOL     
@<SCITEGIC>MOL_PROPERTY
VM2 Rank
SciTegic.value.IntegerValue
112

@<SCITEGIC>MOL_PROPERTY
Conf_Id
SciTegic.value.IntegerValue
235

@<SCITEGIC>MOL_PROPERTY
Probability
SciTegic.value.DoubleValue
0.01

@<SCITEGIC>MOL_PROPERTY
Sum Probability
SciTegic.value.DoubleValue
99.78

@<SCITEGIC>MOL_PROPERTY
Delta G
SciTegic.value.DoubleValue
4.661

@<SCITEGIC>MOL_PROPERTY
G
SciTegic.value.DoubleValue
-3.301

@<SCITEGIC>MOL_PROPERTY
E
SciTegic.value.DoubleValue
-28.442

@<SCITEGIC>MOL_PROPERTY
-TS
SciTegic.value.DoubleValue
25.141

@<SCITEGIC>MOL_PROPERTY
U+W
SciTegic.value.DoubleValue
-49.010

@<SCITEGIC>MOL_PROPERTY
U
SciTegic.value.DoubleValue
12.313

@<SCITEGIC>MOL_PROPERTY
W
SciTegic.value.DoubleValue
-61.322

@<SCITEGIC>MOL_PROPERTY
W(PB)
SciTegic.value.DoubleValue
-63.724

@<SCITEGIC>MOL_PROPERTY
W(SA)
SciTegic.value.DoubleValue
2.402

@<SCITEGIC>MOL_PROPERTY
Valence
SciTegic.value.DoubleValue
9.950

@<SCITEGIC>MOL_PROPERTY
Coulomb
SciTegic.value.DoubleValue
1.612

@<SCITEGIC>MOL_PROPERTY
VdW
SciTegic.value.DoubleValue
0.751

@<SCITEGIC>MOL_PROPERTY
VdW6
SciTegic.value.DoubleValue
-10.686

@<SCITEGIC>MOL_PROPERTY
VdW12
SciTegic.value.DoubleValue
11.437

@<SCITEGIC>MOL_PROPERTY
Bond
SciTegic.value.DoubleValue
0.232

@<SCITEGIC>MOL_PROPERTY
Angle
SciTegic.value.DoubleValue
3.418

@<SCITEGIC>MOL_PROPERTY
Pdih
SciTegic.value.DoubleValue
6.293

@<SCITEGIC>MOL_PROPERTY
Idih
SciTegic.value.DoubleValue
0.007

@<SCITEGIC>MOL_PROPERTY
Tether
SciTegic.value.DoubleValue
0.000

@<TRIPOS>MOLECULE
guest-8_vm2.mol2 : vm2 ligand conformer 113
          25          24           1
SMALL
USER_CHARGES
 
@<TRIPOS>ATOM
       1    C1      20.596368   19.104457   27.117410 C.2        1 MOL1         0.6168
       2    O1      21.541442   19.832889   27.347565 O.co2      1 MOL1        -0.6703
       3    O2      19.986061   18.501629   27.978170 O.co2      1 MOL1        -0.6703
       4    C2      20.136278   18.956467   25.671642 C.3        1 MOL1        -0.1963
       5    H1      19.718009   17.950443   25.548567 H          1 MOL1         0.0750
       6    H2      21.023731   19.026020   25.032495 H          1 MOL1         0.0750
       7    C3      19.091599   20.025256   25.262123 C.3        1 MOL1        -0.1860
       8    H3      18.272338   20.015607   25.994325 H          1 MOL1         0.0752
       9    H4      19.549938   21.021747   25.327035 H          1 MOL1         0.0752
      10    C4      18.490753   19.821931   23.848399 C.3        1 MOL1        -0.1858
      11    H5      17.735353   20.604576   23.694195 H          1 MOL1         0.0752
      12    H6      17.946381   18.868755   23.802403 H          1 MOL1         0.0752
      13    C5      19.519885   19.909256   22.692882 C.3        1 MOL1        -0.1858
      14    H7      19.038561   20.411161   21.843442 H          1 MOL1         0.0752
      15    H8      20.364584   20.546626   22.987675 H          1 MOL1         0.0752
      16    C6      20.027703   18.523630   22.221649 C.3        1 MOL1        -0.1858
      17    H9      19.188437   17.946581   21.810177 H          1 MOL1         0.0752
      18    H10     20.399136   17.951066   23.079569 H          1 MOL1         0.0752
      19    C7      21.157263   18.610409   21.169008 C.3        1 MOL1        -0.1834
      20    H11     22.004427   19.176023   21.580933 H          1 MOL1         0.0752
      21    H12     21.529946   17.596656   20.967529 H          1 MOL1         0.0752
      22    C8      20.705649   19.248075   19.837151 C.3        1 MOL1        -0.2849
      23    H13     19.839337   18.717383   19.421264 H          1 MOL1         0.0764
      24    H14     20.432851   20.302425   19.970238 H          1 MOL1         0.0764
      25    H15     21.515313   19.205450   19.097216 H          1 MOL1         0.0764
@<TRIPOS>BOND
    1     1     2    1
    2     1     3    2
    3     1     4    1
    4     4     5    1
    5     4     6    1
    6     4     7    1
    7     7     8    1
    8     7     9    1
    9     7    10    1
   10    10    11    1
   11    10    12    1
   12    10    13    1
   13    13    14    1
   14    13    15    1
   15    13    16    1
   16    16    17    1
   17    16    18    1
   18    16    19    1
   19    19    20    1
   20    19    21    1
   21    19    22    1
   22    22    23    1
   23    22    24    1
   24    22    25    1
@<TRIPOS>SUBSTRUCTURE
       1 MOL1            1 RESIDUE      1      MOL     
@<SCITEGIC>MOL_PROPERTY
VM2 Rank
SciTegic.value.IntegerValue
113

@<SCITEGIC>MOL_PROPERTY
Conf_Id
SciTegic.value.IntegerValue
222

@<SCITEGIC>MOL_PROPERTY
Probability
SciTegic.value.DoubleValue
0.01

@<SCITEGIC>MOL_PROPERTY
Sum Probability
SciTegic.value.DoubleValue
99.79

@<SCITEGIC>MOL_PROPERTY
Delta G
SciTegic.value.DoubleValue
4.661

@<SCITEGIC>MOL_PROPERTY
G
SciTegic.value.DoubleValue
-3.301

@<SCITEGIC>MOL_PROPERTY
E
SciTegic.value.DoubleValue
-28.221

@<SCITEGIC>MOL_PROPERTY
-TS
SciTegic.value.DoubleValue
24.920

@<SCITEGIC>MOL_PROPERTY
U+W
SciTegic.value.DoubleValue
-48.789

@<SCITEGIC>MOL_PROPERTY
U
SciTegic.value.DoubleValue
10.710

@<SCITEGIC>MOL_PROPERTY
W
SciTegic.value.DoubleValue
-59.499

@<SCITEGIC>MOL_PROPERTY
W(PB)
SciTegic.value.DoubleValue
-61.911

@<SCITEGIC>MOL_PROPERTY
W(SA)
SciTegic.value.DoubleValue
2.413

@<SCITEGIC>MOL_PROPERTY
Valence
SciTegic.value.DoubleValue
11.065

@<SCITEGIC>MOL_PROPERTY
Coulomb
SciTegic.value.DoubleValue
-1.442

@<SCITEGIC>MOL_PROPERTY
VdW
SciTegic.value.DoubleValue
1.087

@<SCITEGIC>MOL_PROPERTY
VdW6
SciTegic.value.DoubleValue
-9.993

@<SCITEGIC>MOL_PROPERTY
VdW12
SciTegic.value.DoubleValue
11.080

@<SCITEGIC>MOL_PROPERTY
Bond
SciTegic.value.DoubleValue
0.233

@<SCITEGIC>MOL_PROPERTY
Angle
SciTegic.value.DoubleValue
3.172

@<SCITEGIC>MOL_PROPERTY
Pdih
SciTegic.value.DoubleValue
7.658

@<SCITEGIC>MOL_PROPERTY
Idih
SciTegic.value.DoubleValue
0.001

@<SCITEGIC>MOL_PROPERTY
Tether
SciTegic.value.DoubleValue
0.000

@<TRIPOS>MOLECULE
guest-8_vm2.mol2 : vm2 ligand conformer 114
          25          24           1
SMALL
USER_CHARGES
 
@<TRIPOS>ATOM
       1    C1      19.647946   19.403701   27.039081 C.2        1 MOL1         0.6168
       2    O1      20.213277   19.300955   28.109918 O.co2      1 MOL1        -0.6703
       3    O2      18.645809   20.069321   26.867979 O.co2      1 MOL1        -0.6703
       4    C2      20.240861   18.673302   25.839630 C.3        1 MOL1        -0.1963
       5    H1      19.415391   18.387031   25.180758 H          1 MOL1         0.0750
       6    H2      20.697597   17.744520   26.201583 H          1 MOL1         0.0750
       7    C3      21.294146   19.523273   25.080823 C.3        1 MOL1        -0.1860
       8    H3      20.853901   20.480136   24.767753 H          1 MOL1         0.0752
       9    H4      22.098010   19.773563   25.786936 H          1 MOL1         0.0752
      10    C4      21.914950   18.794157   23.862101 C.3        1 MOL1        -0.1858
      11    H5      21.927422   17.708963   24.032508 H          1 MOL1         0.0752
      12    H6      22.968451   19.095835   23.784360 H          1 MOL1         0.0752
      13    C5      21.238975   19.113093   22.504861 C.3        1 MOL1        -0.1858
      14    H7      21.317252   20.190821   22.310437 H          1 MOL1         0.0752
      15    H8      21.808798   18.613155   21.709931 H          1 MOL1         0.0752
      16    C6      19.758688   18.673103   22.413586 C.3        1 MOL1        -0.1858
      17    H9      19.146997   19.286129   23.088332 H          1 MOL1         0.0752
      18    H10     19.670527   17.634068   22.758597 H          1 MOL1         0.0752
      19    C7      19.179285   18.768466   20.982948 C.3        1 MOL1        -0.1834
      20    H11     19.772133   18.144615   20.299885 H          1 MOL1         0.0752
      21    H12     18.164144   18.348167   20.984602 H          1 MOL1         0.0752
      22    C8      19.119064   20.214629   20.445073 C.3        1 MOL1        -0.2849
      23    H13     20.123884   20.638152   20.323252 H          1 MOL1         0.0764
      24    H14     18.626291   20.239666   19.464563 H          1 MOL1         0.0764
      25    H15     18.551942   20.863241   21.125382 H          1 MOL1         0.0764
@<TRIPOS>BOND
    1     1     2    1
    2     1     3    2
    3     1     4    1
    4     4     5    1
    5     4     6    1
    6     4     7    1
    7     7     8    1
    8     7     9    1
    9     7    10    1
   10    10    11    1
   11    10    12    1
   12    10    13    1
   13    13    14    1
   14    13    15    1
   15    13    16    1
   16    16    17    1
   17    16    18    1
   18    16    19    1
   19    19    20    1
   20    19    21    1
   21    19    22    1
   22    22    23    1
   23    22    24    1
   24    22    25    1
@<TRIPOS>SUBSTRUCTURE
       1 MOL1            1 RESIDUE      1      MOL     
@<SCITEGIC>MOL_PROPERTY
VM2 Rank
SciTegic.value.IntegerValue
114

@<SCITEGIC>MOL_PROPERTY
Conf_Id
SciTegic.value.IntegerValue
221

@<SCITEGIC>MOL_PROPERTY
Probability
SciTegic.value.DoubleValue
0.01

@<SCITEGIC>MOL_PROPERTY
Sum Probability
SciTegic.value.DoubleValue
99.80

@<SCITEGIC>MOL_PROPERTY
Delta G
SciTegic.value.DoubleValue
4.708

@<SCITEGIC>MOL_PROPERTY
G
SciTegic.value.DoubleValue
-3.255

@<SCITEGIC>MOL_PROPERTY
E
SciTegic.value.DoubleValue
-28.163

@<SCITEGIC>MOL_PROPERTY
-TS
SciTegic.value.DoubleValue
24.908

@<SCITEGIC>MOL_PROPERTY
U+W
SciTegic.value.DoubleValue
-48.730

@<SCITEGIC>MOL_PROPERTY
U
SciTegic.value.DoubleValue
10.997

@<SCITEGIC>MOL_PROPERTY
W
SciTegic.value.DoubleValue
-59.727

@<SCITEGIC>MOL_PROPERTY
W(PB)
SciTegic.value.DoubleValue
-62.149

@<SCITEGIC>MOL_PROPERTY
W(SA)
SciTegic.value.DoubleValue
2.422

@<SCITEGIC>MOL_PROPERTY
Valence
SciTegic.value.DoubleValue
10.985

@<SCITEGIC>MOL_PROPERTY
Coulomb
SciTegic.value.DoubleValue
-0.994

@<SCITEGIC>MOL_PROPERTY
VdW
SciTegic.value.DoubleValue
1.006

@<SCITEGIC>MOL_PROPERTY
VdW6
SciTegic.value.DoubleValue
-10.063

@<SCITEGIC>MOL_PROPERTY
VdW12
SciTegic.value.DoubleValue
11.069

@<SCITEGIC>MOL_PROPERTY
Bond
SciTegic.value.DoubleValue
0.238

@<SCITEGIC>MOL_PROPERTY
Angle
SciTegic.value.DoubleValue
3.202

@<SCITEGIC>MOL_PROPERTY
Pdih
SciTegic.value.DoubleValue
7.545

@<SCITEGIC>MOL_PROPERTY
Idih
SciTegic.value.DoubleValue
0.001

@<SCITEGIC>MOL_PROPERTY
Tether
SciTegic.value.DoubleValue
0.000

@<TRIPOS>MOLECULE
guest-8_vm2.mol2 : vm2 ligand conformer 115
          25          24           1
SMALL
USER_CHARGES
 
@<TRIPOS>ATOM
       1    C1      20.140553   18.894357   27.255920 C.2        1 MOL1         0.6168
       2    O1      21.166854   18.619070   27.845574 O.co2      1 MOL1        -0.6703
       3    O2      19.105411   19.201059   27.813736 O.co2      1 MOL1        -0.6703
       4    C2      20.159114   18.875788   25.731696 C.3        1 MOL1        -0.1963
       5    H1      19.165206   18.565850   25.390343 H          1 MOL1         0.0750
       6    H2      20.868944   18.104570   25.409581 H          1 MOL1         0.0750
       7    C3      20.545621   20.247448   25.119806 C.3        1 MOL1        -0.1860
       8    H3      19.802493   21.002778   25.410459 H          1 MOL1         0.0752
       9    H4      21.501902   20.569730   25.554622 H          1 MOL1         0.0752
      10    C4      20.687627   20.216272   23.579492 C.3        1 MOL1        -0.1858
      11    H5      21.432837   19.462203   23.299976 H          1 MOL1         0.0752
      12    H6      21.091464   21.182857   23.249024 H          1 MOL1         0.0752
      13    C5      19.348444   19.957383   22.844670 C.3        1 MOL1        -0.1858
      14    H7      18.915179   18.995505   23.146881 H          1 MOL1         0.0752
      15    H8      18.632221   20.728912   23.158414 H          1 MOL1         0.0752
      16    C6      19.477980   20.006365   21.300738 C.3        1 MOL1        -0.1858
      17    H9      20.292098   20.682812   21.006914 H          1 MOL1         0.0752
      18    H10     18.559389   20.451912   20.895137 H          1 MOL1         0.0752
      19    C7      19.663793   18.625768   20.623594 C.3        1 MOL1        -0.1834
      20    H11     18.797296   17.987597   20.845270 H          1 MOL1         0.0752
      21    H12     19.668486   18.769651   19.534364 H          1 MOL1         0.0752
      22    C8      20.957601   17.890490   21.030774 C.3        1 MOL1        -0.2849
      23    H13     21.092311   16.985960   20.423809 H          1 MOL1         0.0764
      24    H14     21.837336   18.530659   20.885206 H          1 MOL1         0.0764
      25    H15     20.921404   17.579928   22.082371 H          1 MOL1         0.0764
@<TRIPOS>BOND
    1     1     2    1
    2     1     3    2
    3     1     4    1
    4     4     5    1
    5     4     6    1
    6     4     7    1
    7     7     8    1
    8     7     9    1
    9     7    10    1
   10    10    11    1
   11    10    12    1
   12    10    13    1
   13    13    14    1
   14    13    15    1
   15    13    16    1
   16    16    17    1
   17    16    18    1
   18    16    19    1
   19    19    20    1
   20    19    21    1
   21    19    22    1
   22    22    23    1
   23    22    24    1
   24    22    25    1
@<TRIPOS>SUBSTRUCTURE
       1 MOL1            1 RESIDUE      1      MOL     
@<SCITEGIC>MOL_PROPERTY
VM2 Rank
SciTegic.value.IntegerValue
115

@<SCITEGIC>MOL_PROPERTY
Conf_Id
SciTegic.value.IntegerValue
463

@<SCITEGIC>MOL_PROPERTY
Probability
SciTegic.value.DoubleValue
0.01

@<SCITEGIC>MOL_PROPERTY
Sum Probability
SciTegic.value.DoubleValue
99.81

@<SCITEGIC>MOL_PROPERTY
Delta G
SciTegic.value.DoubleValue
4.710

@<SCITEGIC>MOL_PROPERTY
G
SciTegic.value.DoubleValue
-3.252

@<SCITEGIC>MOL_PROPERTY
E
SciTegic.value.DoubleValue
-28.063

@<SCITEGIC>MOL_PROPERTY
-TS
SciTegic.value.DoubleValue
24.811

@<SCITEGIC>MOL_PROPERTY
U+W
SciTegic.value.DoubleValue
-48.631

@<SCITEGIC>MOL_PROPERTY
U
SciTegic.value.DoubleValue
10.664

@<SCITEGIC>MOL_PROPERTY
W
SciTegic.value.DoubleValue
-59.294

@<SCITEGIC>MOL_PROPERTY
W(PB)
SciTegic.value.DoubleValue
-61.729

@<SCITEGIC>MOL_PROPERTY
W(SA)
SciTegic.value.DoubleValue
2.435

@<SCITEGIC>MOL_PROPERTY
Valence
SciTegic.value.DoubleValue
11.013

@<SCITEGIC>MOL_PROPERTY
Coulomb
SciTegic.value.DoubleValue
-1.402

@<SCITEGIC>MOL_PROPERTY
VdW
SciTegic.value.DoubleValue
1.052

@<SCITEGIC>MOL_PROPERTY
VdW6
SciTegic.value.DoubleValue
-9.992

@<SCITEGIC>MOL_PROPERTY
VdW12
SciTegic.value.DoubleValue
11.045

@<SCITEGIC>MOL_PROPERTY
Bond
SciTegic.value.DoubleValue
0.241

@<SCITEGIC>MOL_PROPERTY
Angle
SciTegic.value.DoubleValue
3.228

@<SCITEGIC>MOL_PROPERTY
Pdih
SciTegic.value.DoubleValue
7.544

@<SCITEGIC>MOL_PROPERTY
Idih
SciTegic.value.DoubleValue
0.001

@<SCITEGIC>MOL_PROPERTY
Tether
SciTegic.value.DoubleValue
0.000

@<TRIPOS>MOLECULE
guest-8_vm2.mol2 : vm2 ligand conformer 116
          25          24           1
SMALL
USER_CHARGES
 
@<TRIPOS>ATOM
       1    C1      20.642310   19.467070   27.027562 C.2        1 MOL1         0.6168
       2    O1      21.547797   20.254078   26.834383 O.co2      1 MOL1        -0.6703
       3    O2      20.119314   19.295157   28.110968 O.co2      1 MOL1        -0.6703
       4    C2      20.119377   18.665539   25.841055 C.3        1 MOL1        -0.1963
       5    H1      19.792602   17.686874   26.212121 H          1 MOL1         0.0750
       6    H2      20.959100   18.485285   25.162940 H          1 MOL1         0.0750
       7    C3      18.949592   19.373874   25.107907 C.3        1 MOL1        -0.1860
       8    H3      18.136928   19.521210   25.832688 H          1 MOL1         0.0752
       9    H4      19.257558   20.378389   24.786160 H          1 MOL1         0.0752
      10    C4      18.398448   18.570055   23.902749 C.3        1 MOL1        -0.1858
      11    H5      17.313673   18.735491   23.849713 H          1 MOL1         0.0752
      12    H6      18.527712   17.492307   24.071837 H          1 MOL1         0.0752
      13    C5      18.997064   18.970168   22.530769 C.3        1 MOL1        -0.1858
      14    H7      18.477182   18.400733   21.748453 H          1 MOL1         0.0752
      15    H8      18.778152   20.028944   22.339730 H          1 MOL1         0.0752
      16    C6      20.518737   18.721529   22.404819 C.3        1 MOL1        -0.1858
      17    H9      20.746005   17.702598   22.746178 H          1 MOL1         0.0752
      18    H10     21.063015   19.408232   23.066219 H          1 MOL1         0.0752
      19    C7      21.048274   18.887596   20.961371 C.3        1 MOL1        -0.1834
      20    H11     22.108312   18.599526   20.939036 H          1 MOL1         0.0752
      21    H12     20.523827   18.192572   20.291198 H          1 MOL1         0.0752
      22    C8      20.912087   20.328935   20.424416 C.3        1 MOL1        -0.2849
      23    H13     21.407831   21.045250   21.092456 H          1 MOL1         0.0764
      24    H14     21.374984   20.414895   19.432858 H          1 MOL1         0.0764
      25    H15     19.859109   20.621347   20.326400 H          1 MOL1         0.0764
@<TRIPOS>BOND
    1     1     2    1
    2     1     3    2
    3     1     4    1
    4     4     5    1
    5     4     6    1
    6     4     7    1
    7     7     8    1
    8     7     9    1
    9     7    10    1
   10    10    11    1
   11    10    12    1
   12    10    13    1
   13    13    14    1
   14    13    15    1
   15    13    16    1
   16    16    17    1
   17    16    18    1
   18    16    19    1
   19    19    20    1
   20    19    21    1
   21    19    22    1
   22    22    23    1
   23    22    24    1
   24    22    25    1
@<TRIPOS>SUBSTRUCTURE
       1 MOL1            1 RESIDUE      1      MOL     
@<SCITEGIC>MOL_PROPERTY
VM2 Rank
SciTegic.value.IntegerValue
116

@<SCITEGIC>MOL_PROPERTY
Conf_Id
SciTegic.value.IntegerValue
856

@<SCITEGIC>MOL_PROPERTY
Probability
SciTegic.value.DoubleValue
0.01

@<SCITEGIC>MOL_PROPERTY
Sum Probability
SciTegic.value.DoubleValue
99.82

@<SCITEGIC>MOL_PROPERTY
Delta G
SciTegic.value.DoubleValue
4.712

@<SCITEGIC>MOL_PROPERTY
G
SciTegic.value.DoubleValue
-3.250

@<SCITEGIC>MOL_PROPERTY
E
SciTegic.value.DoubleValue
-28.158

@<SCITEGIC>MOL_PROPERTY
-TS
SciTegic.value.DoubleValue
24.908

@<SCITEGIC>MOL_PROPERTY
U+W
SciTegic.value.DoubleValue
-48.726

@<SCITEGIC>MOL_PROPERTY
U
SciTegic.value.DoubleValue
10.997

@<SCITEGIC>MOL_PROPERTY
W
SciTegic.value.DoubleValue
-59.723

@<SCITEGIC>MOL_PROPERTY
W(PB)
SciTegic.value.DoubleValue
-62.151

@<SCITEGIC>MOL_PROPERTY
W(SA)
SciTegic.value.DoubleValue
2.428

@<SCITEGIC>MOL_PROPERTY
Valence
SciTegic.value.DoubleValue
10.985

@<SCITEGIC>MOL_PROPERTY
Coulomb
SciTegic.value.DoubleValue
-0.994

@<SCITEGIC>MOL_PROPERTY
VdW
SciTegic.value.DoubleValue
1.006

@<SCITEGIC>MOL_PROPERTY
VdW6
SciTegic.value.DoubleValue
-10.063

@<SCITEGIC>MOL_PROPERTY
VdW12
SciTegic.value.DoubleValue
11.069

@<SCITEGIC>MOL_PROPERTY
Bond
SciTegic.value.DoubleValue
0.238

@<SCITEGIC>MOL_PROPERTY
Angle
SciTegic.value.DoubleValue
3.202

@<SCITEGIC>MOL_PROPERTY
Pdih
SciTegic.value.DoubleValue
7.545

@<SCITEGIC>MOL_PROPERTY
Idih
SciTegic.value.DoubleValue
0.001

@<SCITEGIC>MOL_PROPERTY
Tether
SciTegic.value.DoubleValue
0.000

@<TRIPOS>MOLECULE
guest-8_vm2.mol2 : vm2 ligand conformer 117
          25          24           1
SMALL
USER_CHARGES
 
@<TRIPOS>ATOM
       1    C1      20.280640   19.108612   27.388066 C.2        1 MOL1         0.6168
       2    O1      21.370058   19.125349   27.926259 O.co2      1 MOL1        -0.6703
       3    O2      19.235709   19.302109   27.977490 O.co2      1 MOL1        -0.6703
       4    C2      20.223650   18.853012   25.886271 C.3        1 MOL1        -0.1963
       5    H1      19.292487   18.315484   25.674322 H          1 MOL1         0.0750
       6    H2      21.052484   18.185084   25.623078 H          1 MOL1         0.0750
       7    C3      20.302732   20.157992   25.052187 C.3        1 MOL1        -0.1860
       8    H3      19.445232   20.800796   25.294601 H          1 MOL1         0.0752
       9    H4      21.201742   20.714689   25.350916 H          1 MOL1         0.0752
      10    C4      20.356299   19.910627   23.525805 C.3        1 MOL1        -0.1858
      11    H5      21.228816   19.286058   23.294567 H          1 MOL1         0.0752
      12    H6      20.511212   20.873136   23.019709 H          1 MOL1         0.0752
      13    C5      19.075532   19.246242   22.968239 C.3        1 MOL1        -0.1858
      14    H7      18.994258   18.219222   23.347536 H          1 MOL1         0.0752
      15    H8      18.198859   19.787524   23.349158 H          1 MOL1         0.0752
      16    C6      18.995989   19.220295   21.421003 C.3        1 MOL1        -0.1858
      17    H9      18.990773   20.245189   21.025529 H          1 MOL1         0.0752
      18    H10     18.022198   18.790900   21.148607 H          1 MOL1         0.0752
      19    C7      20.100721   18.383067   20.728946 C.3        1 MOL1        -0.1834
      20    H11     20.431104   17.568923   21.388683 H          1 MOL1         0.0752
      21    H12     19.669684   17.900522   19.840890 H          1 MOL1         0.0752
      22    C8      21.311671   19.226694   20.271733 C.3        1 MOL1        -0.2849
      23    H13     21.810356   19.716709   21.115402 H          1 MOL1         0.0764
      24    H14     22.052604   18.592475   19.768165 H          1 MOL1         0.0764
      25    H15     20.999967   20.005344   19.563511 H          1 MOL1         0.0764
@<TRIPOS>BOND
    1     1     2    1
    2     1     3    2
    3     1     4    1
    4     4     5    1
    5     4     6    1
    6     4     7    1
    7     7     8    1
    8     7     9    1
    9     7    10    1
   10    10    11    1
   11    10    12    1
   12    10    13    1
   13    13    14    1
   14    13    15    1
   15    13    16    1
   16    16    17    1
   17    16    18    1
   18    16    19    1
   19    19    20    1
   20    19    21    1
   21    19    22    1
   22    22    23    1
   23    22    24    1
   24    22    25    1
@<TRIPOS>SUBSTRUCTURE
       1 MOL1            1 RESIDUE      1      MOL     
@<SCITEGIC>MOL_PROPERTY
VM2 Rank
SciTegic.value.IntegerValue
117

@<SCITEGIC>MOL_PROPERTY
Conf_Id
SciTegic.value.IntegerValue
435

@<SCITEGIC>MOL_PROPERTY
Probability
SciTegic.value.DoubleValue
0.01

@<SCITEGIC>MOL_PROPERTY
Sum Probability
SciTegic.value.DoubleValue
99.83

@<SCITEGIC>MOL_PROPERTY
Delta G
SciTegic.value.DoubleValue
4.724

@<SCITEGIC>MOL_PROPERTY
G
SciTegic.value.DoubleValue
-3.238

@<SCITEGIC>MOL_PROPERTY
E
SciTegic.value.DoubleValue
-28.094

@<SCITEGIC>MOL_PROPERTY
-TS
SciTegic.value.DoubleValue
24.856

@<SCITEGIC>MOL_PROPERTY
U+W
SciTegic.value.DoubleValue
-48.662

@<SCITEGIC>MOL_PROPERTY
U
SciTegic.value.DoubleValue
10.438

@<SCITEGIC>MOL_PROPERTY
W
SciTegic.value.DoubleValue
-59.100

@<SCITEGIC>MOL_PROPERTY
W(PB)
SciTegic.value.DoubleValue
-61.543

@<SCITEGIC>MOL_PROPERTY
W(SA)
SciTegic.value.DoubleValue
2.443

@<SCITEGIC>MOL_PROPERTY
Valence
SciTegic.value.DoubleValue
10.999

@<SCITEGIC>MOL_PROPERTY
Coulomb
SciTegic.value.DoubleValue
-1.666

@<SCITEGIC>MOL_PROPERTY
VdW
SciTegic.value.DoubleValue
1.105

@<SCITEGIC>MOL_PROPERTY
VdW6
SciTegic.value.DoubleValue
-9.904

@<SCITEGIC>MOL_PROPERTY
VdW12
SciTegic.value.DoubleValue
11.009

@<SCITEGIC>MOL_PROPERTY
Bond
SciTegic.value.DoubleValue
0.232

@<SCITEGIC>MOL_PROPERTY
Angle
SciTegic.value.DoubleValue
3.215

@<SCITEGIC>MOL_PROPERTY
Pdih
SciTegic.value.DoubleValue
7.552

@<SCITEGIC>MOL_PROPERTY
Idih
SciTegic.value.DoubleValue
0.001

@<SCITEGIC>MOL_PROPERTY
Tether
SciTegic.value.DoubleValue
0.000

@<TRIPOS>MOLECULE
guest-8_vm2.mol2 : vm2 ligand conformer 118
          25          24           1
SMALL
USER_CHARGES
 
@<TRIPOS>ATOM
       1    C1      20.765458   19.140169   26.489531 C.2        1 MOL1         0.6168
       2    O1      21.704197   19.895639   26.330545 O.co2      1 MOL1        -0.6703
       3    O2      20.888138   17.940269   26.640756 O.co2      1 MOL1        -0.6703
       4    C2      19.364010   19.742035   26.574704 C.3        1 MOL1        -0.1963
       5    H1      19.436718   20.831201   26.468828 H          1 MOL1         0.0750
       6    H2      19.007308   19.548946   27.593003 H          1 MOL1         0.0750
       7    C3      18.333625   19.169925   25.560787 C.3        1 MOL1        -0.1860
       8    H3      18.414908   18.074715   25.522043 H          1 MOL1         0.0752
       9    H4      17.326504   19.384466   25.942994 H          1 MOL1         0.0752
      10    C4      18.431627   19.760349   24.132184 C.3        1 MOL1        -0.1858
      11    H5      18.334928   20.853710   24.176875 H          1 MOL1         0.0752
      12    H6      17.571712   19.397812   23.552450 H          1 MOL1         0.0752
      13    C5      19.729524   19.383710   23.382184 C.3        1 MOL1        -0.1858
      14    H7      20.592302   19.852273   23.871965 H          1 MOL1         0.0752
      15    H8      19.877083   18.297322   23.437787 H          1 MOL1         0.0752
      16    C6      19.684770   19.836090   21.904069 C.3        1 MOL1        -0.1858
      17    H9      19.461341   20.911052   21.866712 H          1 MOL1         0.0752
      18    H10     18.860078   19.328244   21.385639 H          1 MOL1         0.0752
      19    C7      21.007173   19.582297   21.143505 C.3        1 MOL1        -0.1834
      20    H11     20.932071   20.034006   20.144763 H          1 MOL1         0.0752
      21    H12     21.833218   20.095437   21.655140 H          1 MOL1         0.0752
      22    C8      21.344478   18.083517   20.987734 C.3        1 MOL1        -0.2849
      23    H13     20.519433   17.542933   20.505936 H          1 MOL1         0.0764
      24    H14     22.241164   17.954171   20.367996 H          1 MOL1         0.0764
      25    H15     21.542501   17.614927   21.959952 H          1 MOL1         0.0764
@<TRIPOS>BOND
    1     1     2    1
    2     1     3    2
    3     1     4    1
    4     4     5    1
    5     4     6    1
    6     4     7    1
    7     7     8    1
    8     7     9    1
    9     7    10    1
   10    10    11    1
   11    10    12    1
   12    10    13    1
   13    13    14    1
   14    13    15    1
   15    13    16    1
   16    16    17    1
   17    16    18    1
   18    16    19    1
   19    19    20    1
   20    19    21    1
   21    19    22    1
   22    22    23    1
   23    22    24    1
   24    22    25    1
@<TRIPOS>SUBSTRUCTURE
       1 MOL1            1 RESIDUE      1      MOL     
@<SCITEGIC>MOL_PROPERTY
VM2 Rank
SciTegic.value.IntegerValue
118

@<SCITEGIC>MOL_PROPERTY
Conf_Id
SciTegic.value.IntegerValue
229

@<SCITEGIC>MOL_PROPERTY
Probability
SciTegic.value.DoubleValue
0.01

@<SCITEGIC>MOL_PROPERTY
Sum Probability
SciTegic.value.DoubleValue
99.84

@<SCITEGIC>MOL_PROPERTY
Delta G
SciTegic.value.DoubleValue
4.775

@<SCITEGIC>MOL_PROPERTY
G
SciTegic.value.DoubleValue
-3.187

@<SCITEGIC>MOL_PROPERTY
E
SciTegic.value.DoubleValue
-28.329

@<SCITEGIC>MOL_PROPERTY
-TS
SciTegic.value.DoubleValue
25.142

@<SCITEGIC>MOL_PROPERTY
U+W
SciTegic.value.DoubleValue
-48.896

@<SCITEGIC>MOL_PROPERTY
U
SciTegic.value.DoubleValue
12.313

@<SCITEGIC>MOL_PROPERTY
W
SciTegic.value.DoubleValue
-61.210

@<SCITEGIC>MOL_PROPERTY
W(PB)
SciTegic.value.DoubleValue
-63.636

@<SCITEGIC>MOL_PROPERTY
W(SA)
SciTegic.value.DoubleValue
2.427

@<SCITEGIC>MOL_PROPERTY
Valence
SciTegic.value.DoubleValue
9.950

@<SCITEGIC>MOL_PROPERTY
Coulomb
SciTegic.value.DoubleValue
1.612

@<SCITEGIC>MOL_PROPERTY
VdW
SciTegic.value.DoubleValue
0.751

@<SCITEGIC>MOL_PROPERTY
VdW6
SciTegic.value.DoubleValue
-10.688

@<SCITEGIC>MOL_PROPERTY
VdW12
SciTegic.value.DoubleValue
11.439

@<SCITEGIC>MOL_PROPERTY
Bond
SciTegic.value.DoubleValue
0.232

@<SCITEGIC>MOL_PROPERTY
Angle
SciTegic.value.DoubleValue
3.418

@<SCITEGIC>MOL_PROPERTY
Pdih
SciTegic.value.DoubleValue
6.293

@<SCITEGIC>MOL_PROPERTY
Idih
SciTegic.value.DoubleValue
0.007

@<SCITEGIC>MOL_PROPERTY
Tether
SciTegic.value.DoubleValue
0.000

@<TRIPOS>MOLECULE
guest-8_vm2.mol2 : vm2 ligand conformer 119
          25          24           1
SMALL
USER_CHARGES
 
@<TRIPOS>ATOM
       1    C1      19.989793   19.888434   27.028451 C.2        1 MOL1         0.6168
       2    O1      21.040982   20.137335   27.585075 O.co2      1 MOL1        -0.6703
       3    O2      18.913232   19.888807   27.592181 O.co2      1 MOL1        -0.6703
       4    C2      20.026091   19.533161   25.546483 C.3        1 MOL1        -0.1963
       5    H1      20.840503   20.105361   25.088367 H          1 MOL1         0.0750
       6    H2      19.087603   19.871729   25.091572 H          1 MOL1         0.0750
       7    C3      20.226140   18.016864   25.297497 C.3        1 MOL1        -0.1860
       8    H3      21.205513   17.711284   25.690787 H          1 MOL1         0.0752
       9    H4      19.475459   17.462962   25.878092 H          1 MOL1         0.0752
      10    C4      20.106991   17.595281   23.811359 C.3        1 MOL1        -0.1858
      11    H5      19.095743   17.811040   23.445048 H          1 MOL1         0.0752
      12    H6      20.211230   16.502564   23.768533 H          1 MOL1         0.0752
      13    C5      21.179589   18.217757   22.878184 C.3        1 MOL1        -0.1858
      14    H7      22.088557   18.428719   23.457813 H          1 MOL1         0.0752
      15    H8      21.474657   17.471289   22.128167 H          1 MOL1         0.0752
      16    C6      20.730912   19.502208   22.135650 C.3        1 MOL1        -0.1858
      17    H9      21.618209   19.972232   21.690181 H          1 MOL1         0.0752
      18    H10     20.319567   20.231316   22.843644 H          1 MOL1         0.0752
      19    C7      19.701331   19.230776   21.014750 C.3        1 MOL1        -0.1834
      20    H11     20.109956   18.496635   20.306807 H          1 MOL1         0.0752
      21    H12     18.786489   18.792864   21.434079 H          1 MOL1         0.0752
      22    C8      19.337939   20.523377   20.256371 C.3        1 MOL1        -0.2849
      23    H13     18.898575   21.266097   20.935109 H          1 MOL1         0.0764
      24    H14     20.226364   20.968470   19.789562 H          1 MOL1         0.0764
      25    H15     18.607571   20.314566   19.463915 H          1 MOL1         0.0764
@<TRIPOS>BOND
    1     1     2    1
    2     1     3    2
    3     1     4    1
    4     4     5    1
    5     4     6    1
    6     4     7    1
    7     7     8    1
    8     7     9    1
    9     7    10    1
   10    10    11    1
   11    10    12    1
   12    10    13    1
   13    13    14    1
   14    13    15    1
   15    13    16    1
   16    16    17    1
   17    16    18    1
   18    16    19    1
   19    19    20    1
   20    19    21    1
   21    19    22    1
   22    22    23    1
   23    22    24    1
   24    22    25    1
@<TRIPOS>SUBSTRUCTURE
       1 MOL1            1 RESIDUE      1      MOL     
@<SCITEGIC>MOL_PROPERTY
VM2 Rank
SciTegic.value.IntegerValue
119

@<SCITEGIC>MOL_PROPERTY
Conf_Id
SciTegic.value.IntegerValue
1089

@<SCITEGIC>MOL_PROPERTY
Probability
SciTegic.value.DoubleValue
0.01

@<SCITEGIC>MOL_PROPERTY
Sum Probability
SciTegic.value.DoubleValue
99.84

@<SCITEGIC>MOL_PROPERTY
Delta G
SciTegic.value.DoubleValue
4.779

@<SCITEGIC>MOL_PROPERTY
G
SciTegic.value.DoubleValue
-3.183

@<SCITEGIC>MOL_PROPERTY
E
SciTegic.value.DoubleValue
-28.035

@<SCITEGIC>MOL_PROPERTY
-TS
SciTegic.value.DoubleValue
24.851

@<SCITEGIC>MOL_PROPERTY
U+W
SciTegic.value.DoubleValue
-48.602

@<SCITEGIC>MOL_PROPERTY
U
SciTegic.value.DoubleValue
10.987

@<SCITEGIC>MOL_PROPERTY
W
SciTegic.value.DoubleValue
-59.589

@<SCITEGIC>MOL_PROPERTY
W(PB)
SciTegic.value.DoubleValue
-62.019

@<SCITEGIC>MOL_PROPERTY
W(SA)
SciTegic.value.DoubleValue
2.430

@<SCITEGIC>MOL_PROPERTY
Valence
SciTegic.value.DoubleValue
11.268

@<SCITEGIC>MOL_PROPERTY
Coulomb
SciTegic.value.DoubleValue
-1.344

@<SCITEGIC>MOL_PROPERTY
VdW
SciTegic.value.DoubleValue
1.063

@<SCITEGIC>MOL_PROPERTY
VdW6
SciTegic.value.DoubleValue
-9.930

@<SCITEGIC>MOL_PROPERTY
VdW12
SciTegic.value.DoubleValue
10.993

@<SCITEGIC>MOL_PROPERTY
Bond
SciTegic.value.DoubleValue
0.245

@<SCITEGIC>MOL_PROPERTY
Angle
SciTegic.value.DoubleValue
3.252

@<SCITEGIC>MOL_PROPERTY
Pdih
SciTegic.value.DoubleValue
7.770

@<SCITEGIC>MOL_PROPERTY
Idih
SciTegic.value.DoubleValue
0.001

@<SCITEGIC>MOL_PROPERTY
Tether
SciTegic.value.DoubleValue
0.000

@<TRIPOS>MOLECULE
guest-8_vm2.mol2 : vm2 ligand conformer 120
          25          24           1
SMALL
USER_CHARGES
 
@<TRIPOS>ATOM
       1    C1      20.258378   19.431389   27.429591 C.2        1 MOL1         0.6168
       2    O1      21.208857   20.139734   27.697122 O.co2      1 MOL1        -0.6703
       3    O2      19.336745   19.224653   28.194203 O.co2      1 MOL1        -0.6703
       4    C2      20.208174   18.784164   26.050216 C.3        1 MOL1        -0.1963
       5    H1      19.687716   17.823604   26.143915 H          1 MOL1         0.0750
       6    H2      21.238511   18.568322   25.745889 H          1 MOL1         0.0750
       7    C3      19.501850   19.674964   24.995392 C.3        1 MOL1        -0.1860
       8    H3      18.507595   19.949488   25.374180 H          1 MOL1         0.0752
       9    H4      20.058674   20.614764   24.876976 H          1 MOL1         0.0752
      10    C4      19.335687   18.990164   23.617906 C.3        1 MOL1        -0.1858
      11    H5      18.726570   19.641558   22.980049 H          1 MOL1         0.0752
      12    H6      18.764010   18.059878   23.738009 H          1 MOL1         0.0752
      13    C5      20.683036   18.682431   22.918420 C.3        1 MOL1        -0.1858
      14    H7      21.319191   19.577817   22.903076 H          1 MOL1         0.0752
      15    H8      21.221891   17.932244   23.511482 H          1 MOL1         0.0752
      16    C6      20.511994   18.128008   21.481115 C.3        1 MOL1        -0.1858
      17    H9      19.554008   17.598318   21.388450 H          1 MOL1         0.0752
      18    H10     21.289359   17.370347   21.312205 H          1 MOL1         0.0752
      19    C7      20.644568   19.189100   20.360634 C.3        1 MOL1        -0.1834
      20    H11     21.639144   19.653462   20.409873 H          1 MOL1         0.0752
      21    H12     20.591468   18.679217   19.388856 H          1 MOL1         0.0752
      22    C8      19.563711   20.289393   20.401401 C.3        1 MOL1        -0.2849
      23    H13     19.645184   20.940448   19.521495 H          1 MOL1         0.0764
      24    H14     18.556799   19.852334   20.407355 H          1 MOL1         0.0764
      25    H15     19.675412   20.920920   21.291648 H          1 MOL1         0.0764
@<TRIPOS>BOND
    1     1     2    1
    2     1     3    2
    3     1     4    1
    4     4     5    1
    5     4     6    1
    6     4     7    1
    7     7     8    1
    8     7     9    1
    9     7    10    1
   10    10    11    1
   11    10    12    1
   12    10    13    1
   13    13    14    1
   14    13    15    1
   15    13    16    1
   16    16    17    1
   17    16    18    1
   18    16    19    1
   19    19    20    1
   20    19    21    1
   21    19    22    1
   22    22    23    1
   23    22    24    1
   24    22    25    1
@<TRIPOS>SUBSTRUCTURE
       1 MOL1            1 RESIDUE      1      MOL     
@<SCITEGIC>MOL_PROPERTY
VM2 Rank
SciTegic.value.IntegerValue
120

@<SCITEGIC>MOL_PROPERTY
Conf_Id
SciTegic.value.IntegerValue
530

@<SCITEGIC>MOL_PROPERTY
Probability
SciTegic.value.DoubleValue
0.01

@<SCITEGIC>MOL_PROPERTY
Sum Probability
SciTegic.value.DoubleValue
99.85

@<SCITEGIC>MOL_PROPERTY
Delta G
SciTegic.value.DoubleValue
4.848

@<SCITEGIC>MOL_PROPERTY
G
SciTegic.value.DoubleValue
-3.114

@<SCITEGIC>MOL_PROPERTY
E
SciTegic.value.DoubleValue
-27.995

@<SCITEGIC>MOL_PROPERTY
-TS
SciTegic.value.DoubleValue
24.881

@<SCITEGIC>MOL_PROPERTY
U+W
SciTegic.value.DoubleValue
-48.563

@<SCITEGIC>MOL_PROPERTY
U
SciTegic.value.DoubleValue
10.553

@<SCITEGIC>MOL_PROPERTY
W
SciTegic.value.DoubleValue
-59.116

@<SCITEGIC>MOL_PROPERTY
W(PB)
SciTegic.value.DoubleValue
-61.565

@<SCITEGIC>MOL_PROPERTY
W(SA)
SciTegic.value.DoubleValue
2.449

@<SCITEGIC>MOL_PROPERTY
Valence
SciTegic.value.DoubleValue
11.068

@<SCITEGIC>MOL_PROPERTY
Coulomb
SciTegic.value.DoubleValue
-1.643

@<SCITEGIC>MOL_PROPERTY
VdW
SciTegic.value.DoubleValue
1.127

@<SCITEGIC>MOL_PROPERTY
VdW6
SciTegic.value.DoubleValue
-9.885

@<SCITEGIC>MOL_PROPERTY
VdW12
SciTegic.value.DoubleValue
11.012

@<SCITEGIC>MOL_PROPERTY
Bond
SciTegic.value.DoubleValue
0.238

@<SCITEGIC>MOL_PROPERTY
Angle
SciTegic.value.DoubleValue
3.177

@<SCITEGIC>MOL_PROPERTY
Pdih
SciTegic.value.DoubleValue
7.653

@<SCITEGIC>MOL_PROPERTY
Idih
SciTegic.value.DoubleValue
0.001

@<SCITEGIC>MOL_PROPERTY
Tether
SciTegic.value.DoubleValue
0.000

@<TRIPOS>MOLECULE
guest-8_vm2.mol2 : vm2 ligand conformer 121
          25          24           1
SMALL
USER_CHARGES
 
@<TRIPOS>ATOM
       1    C1      20.212806   19.262275   27.470079 C.2        1 MOL1         0.6168
       2    O1      21.276356   19.232100   28.057209 O.co2      1 MOL1        -0.6703
       3    O2      19.179861   19.663548   27.968824 O.co2      1 MOL1        -0.6703
       4    C2      20.177337   18.791894   26.020366 C.3        1 MOL1        -0.1963
       5    H1      19.195764   18.339232   25.842074 H          1 MOL1         0.0750
       6    H2      20.927350   18.000887   25.901466 H          1 MOL1         0.0750
       7    C3      20.445264   19.939258   25.011603 C.3        1 MOL1        -0.1860
       8    H3      19.661223   20.703263   25.105710 H          1 MOL1         0.0752
       9    H4      21.390112   20.430244   25.282980 H          1 MOL1         0.0752
      10    C4      20.540775   19.464718   23.541696 C.3        1 MOL1        -0.1858
      11    H5      21.307769   18.683238   23.454589 H          1 MOL1         0.0752
      12    H6      20.883321   20.313089   22.935960 H          1 MOL1         0.0752
      13    C5      19.197837   18.948960   22.971633 C.3        1 MOL1        -0.1858
      14    H7      18.812824   18.144181   23.610047 H          1 MOL1         0.0752
      15    H8      18.452829   19.755316   23.008337 H          1 MOL1         0.0752
      16    C6      19.290926   18.400305   21.525332 C.3        1 MOL1        -0.1858
      17    H9      18.297881   18.017282   21.253253 H          1 MOL1         0.0752
      18    H10     19.963315   17.532039   21.495133 H          1 MOL1         0.0752
      19    C7      19.712997   19.443329   20.460362 C.3        1 MOL1        -0.1834
      20    H11     19.148238   19.251942   19.537476 H          1 MOL1         0.0752
      21    H12     19.432768   20.454903   20.785050 H          1 MOL1         0.0752
      22    C8      21.218840   19.387614   20.118896 C.3        1 MOL1        -0.2849
      23    H13     21.491648   18.402500   19.718639 H          1 MOL1         0.0764
      24    H14     21.468448   20.139336   19.359016 H          1 MOL1         0.0764
      25    H15     21.844201   19.579513   20.998224 H          1 MOL1         0.0764
@<TRIPOS>BOND
    1     1     2    1
    2     1     3    2
    3     1     4    1
    4     4     5    1
    5     4     6    1
    6     4     7    1
    7     7     8    1
    8     7     9    1
    9     7    10    1
   10    10    11    1
   11    10    12    1
   12    10    13    1
   13    13    14    1
   14    13    15    1
   15    13    16    1
   16    16    17    1
   17    16    18    1
   18    16    19    1
   19    19    20    1
   20    19    21    1
   21    19    22    1
   22    22    23    1
   23    22    24    1
   24    22    25    1
@<TRIPOS>SUBSTRUCTURE
       1 MOL1            1 RESIDUE      1      MOL     
@<SCITEGIC>MOL_PROPERTY
VM2 Rank
SciTegic.value.IntegerValue
121

@<SCITEGIC>MOL_PROPERTY
Conf_Id
SciTegic.value.IntegerValue
1243

@<SCITEGIC>MOL_PROPERTY
Probability
SciTegic.value.DoubleValue
0.01

@<SCITEGIC>MOL_PROPERTY
Sum Probability
SciTegic.value.DoubleValue
99.86

@<SCITEGIC>MOL_PROPERTY
Delta G
SciTegic.value.DoubleValue
4.857

@<SCITEGIC>MOL_PROPERTY
G
SciTegic.value.DoubleValue
-3.106

@<SCITEGIC>MOL_PROPERTY
E
SciTegic.value.DoubleValue
-27.896

@<SCITEGIC>MOL_PROPERTY
-TS
SciTegic.value.DoubleValue
24.790

@<SCITEGIC>MOL_PROPERTY
U+W
SciTegic.value.DoubleValue
-48.464

@<SCITEGIC>MOL_PROPERTY
U
SciTegic.value.DoubleValue
10.617

@<SCITEGIC>MOL_PROPERTY
W
SciTegic.value.DoubleValue
-59.081

@<SCITEGIC>MOL_PROPERTY
W(PB)
SciTegic.value.DoubleValue
-61.515

@<SCITEGIC>MOL_PROPERTY
W(SA)
SciTegic.value.DoubleValue
2.434

@<SCITEGIC>MOL_PROPERTY
Valence
SciTegic.value.DoubleValue
11.188

@<SCITEGIC>MOL_PROPERTY
Coulomb
SciTegic.value.DoubleValue
-1.778

@<SCITEGIC>MOL_PROPERTY
VdW
SciTegic.value.DoubleValue
1.208

@<SCITEGIC>MOL_PROPERTY
VdW6
SciTegic.value.DoubleValue
-9.786

@<SCITEGIC>MOL_PROPERTY
VdW12
SciTegic.value.DoubleValue
10.993

@<SCITEGIC>MOL_PROPERTY
Bond
SciTegic.value.DoubleValue
0.241

@<SCITEGIC>MOL_PROPERTY
Angle
SciTegic.value.DoubleValue
3.294

@<SCITEGIC>MOL_PROPERTY
Pdih
SciTegic.value.DoubleValue
7.653

@<SCITEGIC>MOL_PROPERTY
Idih
SciTegic.value.DoubleValue
0.001

@<SCITEGIC>MOL_PROPERTY
Tether
SciTegic.value.DoubleValue
0.000

@<TRIPOS>MOLECULE
guest-8_vm2.mol2 : vm2 ligand conformer 122
          25          24           1
SMALL
USER_CHARGES
 
@<TRIPOS>ATOM
       1    C1      20.125171   19.790905   27.137593 C.2        1 MOL1         0.6168
       2    O1      21.159114   20.317419   27.498758 O.co2      1 MOL1        -0.6703
       3    O2      19.020742   20.210477   27.421970 O.co2      1 MOL1        -0.6703
       4    C2      20.218872   18.544979   26.264038 C.3        1 MOL1        -0.1963
       5    H1      19.357571   17.904862   26.489784 H          1 MOL1         0.0750
       6    H2      21.119779   17.991871   26.555488 H          1 MOL1         0.0750
       7    C3      20.258120   18.873708   24.751295 C.3        1 MOL1        -0.1860
       8    H3      19.355698   19.441838   24.490094 H          1 MOL1         0.0752
       9    H4      21.121227   19.520620   24.542000 H          1 MOL1         0.0752
      10    C4      20.341493   17.595471   23.887352 C.3        1 MOL1        -0.1858
      11    H5      19.434935   16.993193   24.036700 H          1 MOL1         0.0752
      12    H6      21.181335   16.980923   24.239303 H          1 MOL1         0.0752
      13    C5      20.537605   17.865255   22.374380 C.3        1 MOL1        -0.1858
      14    H7      21.490405   18.383751   22.210700 H          1 MOL1         0.0752
      15    H8      20.640290   16.891808   21.875917 H          1 MOL1         0.0752
      16    C6      19.368205   18.630267   21.698954 C.3        1 MOL1        -0.1858
      17    H9      18.436580   18.429076   22.245082 H          1 MOL1         0.0752
      18    H10     19.213214   18.223644   20.690281 H          1 MOL1         0.0752
      19    C7      19.577030   20.160585   21.578890 C.3        1 MOL1        -0.1834
      20    H11     18.623515   20.622322   21.288063 H          1 MOL1         0.0752
      21    H12     19.843540   20.592237   22.551321 H          1 MOL1         0.0752
      22    C8      20.646648   20.544935   20.532770 C.3        1 MOL1        -0.2849
      23    H13     20.397104   20.132907   19.546370 H          1 MOL1         0.0764
      24    H14     20.712257   21.636253   20.434909 H          1 MOL1         0.0764
      25    H15     21.639991   20.176493   20.816388 H          1 MOL1         0.0764
@<TRIPOS>BOND
    1     1     2    1
    2     1     3    2
    3     1     4    1
    4     4     5    1
    5     4     6    1
    6     4     7    1
    7     7     8    1
    8     7     9    1
    9     7    10    1
   10    10    11    1
   11    10    12    1
   12    10    13    1
   13    13    14    1
   14    13    15    1
   15    13    16    1
   16    16    17    1
   17    16    18    1
   18    16    19    1
   19    19    20    1
   20    19    21    1
   21    19    22    1
   22    22    23    1
   23    22    24    1
   24    22    25    1
@<TRIPOS>SUBSTRUCTURE
       1 MOL1            1 RESIDUE      1      MOL     
@<SCITEGIC>MOL_PROPERTY
VM2 Rank
SciTegic.value.IntegerValue
122

@<SCITEGIC>MOL_PROPERTY
Conf_Id
SciTegic.value.IntegerValue
442

@<SCITEGIC>MOL_PROPERTY
Probability
SciTegic.value.DoubleValue
0.01

@<SCITEGIC>MOL_PROPERTY
Sum Probability
SciTegic.value.DoubleValue
99.86

@<SCITEGIC>MOL_PROPERTY
Delta G
SciTegic.value.DoubleValue
4.879

@<SCITEGIC>MOL_PROPERTY
G
SciTegic.value.DoubleValue
-3.084

@<SCITEGIC>MOL_PROPERTY
E
SciTegic.value.DoubleValue
-27.936

@<SCITEGIC>MOL_PROPERTY
-TS
SciTegic.value.DoubleValue
24.853

@<SCITEGIC>MOL_PROPERTY
U+W
SciTegic.value.DoubleValue
-48.504

@<SCITEGIC>MOL_PROPERTY
U
SciTegic.value.DoubleValue
11.373

@<SCITEGIC>MOL_PROPERTY
W
SciTegic.value.DoubleValue
-59.877

@<SCITEGIC>MOL_PROPERTY
W(PB)
SciTegic.value.DoubleValue
-62.301

@<SCITEGIC>MOL_PROPERTY
W(SA)
SciTegic.value.DoubleValue
2.424

@<SCITEGIC>MOL_PROPERTY
Valence
SciTegic.value.DoubleValue
11.258

@<SCITEGIC>MOL_PROPERTY
Coulomb
SciTegic.value.DoubleValue
-0.951

@<SCITEGIC>MOL_PROPERTY
VdW
SciTegic.value.DoubleValue
1.066

@<SCITEGIC>MOL_PROPERTY
VdW6
SciTegic.value.DoubleValue
-9.862

@<SCITEGIC>MOL_PROPERTY
VdW12
SciTegic.value.DoubleValue
10.928

@<SCITEGIC>MOL_PROPERTY
Bond
SciTegic.value.DoubleValue
0.236

@<SCITEGIC>MOL_PROPERTY
Angle
SciTegic.value.DoubleValue
3.227

@<SCITEGIC>MOL_PROPERTY
Pdih
SciTegic.value.DoubleValue
7.795

@<SCITEGIC>MOL_PROPERTY
Idih
SciTegic.value.DoubleValue
0.001

@<SCITEGIC>MOL_PROPERTY
Tether
SciTegic.value.DoubleValue
0.000

@<TRIPOS>MOLECULE
guest-8_vm2.mol2 : vm2 ligand conformer 123
          25          24           1
SMALL
USER_CHARGES
 
@<TRIPOS>ATOM
       1    C1      19.687276   19.259881   27.126555 C.2        1 MOL1         0.6168
       2    O1      20.285696   19.060302   28.165250 O.co2      1 MOL1        -0.6703
       3    O2      18.671992   19.923292   27.051151 O.co2      1 MOL1        -0.6703
       4    C2      20.253558   18.662124   25.843758 C.3        1 MOL1        -0.1963
       5    H1      19.413066   18.426965   25.183234 H          1 MOL1         0.0750
       6    H2      20.734852   17.710267   26.097979 H          1 MOL1         0.0750
       7    C3      21.270726   19.600805   25.142357 C.3        1 MOL1        -0.1860
       8    H3      20.814194   20.582676   24.955537 H          1 MOL1         0.0752
       9    H4      22.102388   19.778690   25.838145 H          1 MOL1         0.0752
      10    C4      21.840382   19.014028   23.825820 C.3        1 MOL1        -0.1858
      11    H5      21.828501   17.916075   23.861467 H          1 MOL1         0.0752
      12    H6      22.899195   19.298239   23.754612 H          1 MOL1         0.0752
      13    C5      21.137289   19.510406   22.537191 C.3        1 MOL1        -0.1858
      14    H7      21.245183   20.600810   22.460230 H          1 MOL1         0.0752
      15    H8      21.672993   19.086459   21.678684 H          1 MOL1         0.0752
      16    C6      19.638317   19.136446   22.446433 C.3        1 MOL1        -0.1858
      17    H9      19.097753   19.623622   23.267960 H          1 MOL1         0.0752
      18    H10     19.515012   18.053567   22.582820 H          1 MOL1         0.0752
      19    C7      18.974201   19.571216   21.118898 C.3        1 MOL1        -0.1834
      20    H11     17.889971   19.413463   21.201259 H          1 MOL1         0.0752
      21    H12     19.119542   20.649581   20.966337 H          1 MOL1         0.0752
      22    C8      19.493563   18.795500   19.888588 C.3        1 MOL1        -0.2849
      23    H13     19.389131   17.712453   20.034188 H          1 MOL1         0.0764
      24    H14     18.923138   19.072055   18.992473 H          1 MOL1         0.0764
      25    H15     20.549465   19.016262   19.689737 H          1 MOL1         0.0764
@<TRIPOS>BOND
    1     1     2    1
    2     1     3    2
    3     1     4    1
    4     4     5    1
    5     4     6    1
    6     4     7    1
    7     7     8    1
    8     7     9    1
    9     7    10    1
   10    10    11    1
   11    10    12    1
   12    10    13    1
   13    13    14    1
   14    13    15    1
   15    13    16    1
   16    16    17    1
   17    16    18    1
   18    16    19    1
   19    19    20    1
   20    19    21    1
   21    19    22    1
   22    22    23    1
   23    22    24    1
   24    22    25    1
@<TRIPOS>SUBSTRUCTURE
       1 MOL1            1 RESIDUE      1      MOL     
@<SCITEGIC>MOL_PROPERTY
VM2 Rank
SciTegic.value.IntegerValue
123

@<SCITEGIC>MOL_PROPERTY
Conf_Id
SciTegic.value.IntegerValue
1003

@<SCITEGIC>MOL_PROPERTY
Probability
SciTegic.value.DoubleValue
0.01

@<SCITEGIC>MOL_PROPERTY
Sum Probability
SciTegic.value.DoubleValue
99.87

@<SCITEGIC>MOL_PROPERTY
Delta G
SciTegic.value.DoubleValue
4.890

@<SCITEGIC>MOL_PROPERTY
G
SciTegic.value.DoubleValue
-3.073

@<SCITEGIC>MOL_PROPERTY
E
SciTegic.value.DoubleValue
-27.926

@<SCITEGIC>MOL_PROPERTY
-TS
SciTegic.value.DoubleValue
24.854

@<SCITEGIC>MOL_PROPERTY
U+W
SciTegic.value.DoubleValue
-48.494

@<SCITEGIC>MOL_PROPERTY
U
SciTegic.value.DoubleValue
10.982

@<SCITEGIC>MOL_PROPERTY
W
SciTegic.value.DoubleValue
-59.476

@<SCITEGIC>MOL_PROPERTY
W(PB)
SciTegic.value.DoubleValue
-61.935

@<SCITEGIC>MOL_PROPERTY
W(SA)
SciTegic.value.DoubleValue
2.459

@<SCITEGIC>MOL_PROPERTY
Valence
SciTegic.value.DoubleValue
11.160

@<SCITEGIC>MOL_PROPERTY
Coulomb
SciTegic.value.DoubleValue
-1.272

@<SCITEGIC>MOL_PROPERTY
VdW
SciTegic.value.DoubleValue
1.095

@<SCITEGIC>MOL_PROPERTY
VdW6
SciTegic.value.DoubleValue
-9.961

@<SCITEGIC>MOL_PROPERTY
VdW12
SciTegic.value.DoubleValue
11.056

@<SCITEGIC>MOL_PROPERTY
Bond
SciTegic.value.DoubleValue
0.244

@<SCITEGIC>MOL_PROPERTY
Angle
SciTegic.value.DoubleValue
3.277

@<SCITEGIC>MOL_PROPERTY
Pdih
SciTegic.value.DoubleValue
7.638

@<SCITEGIC>MOL_PROPERTY
Idih
SciTegic.value.DoubleValue
0.001

@<SCITEGIC>MOL_PROPERTY
Tether
SciTegic.value.DoubleValue
0.000

@<TRIPOS>MOLECULE
guest-8_vm2.mol2 : vm2 ligand conformer 124
          25          24           1
SMALL
USER_CHARGES
 
@<TRIPOS>ATOM
       1    C1      20.106562   18.848853   27.159688 C.2        1 MOL1         0.6168
       2    O1      21.119266   18.299317   27.545869 O.co2      1 MOL1        -0.6703
       3    O2      18.986703   18.486723   27.462099 O.co2      1 MOL1        -0.6703
       4    C2      20.248521   20.047922   26.228940 C.3        1 MOL1        -0.1963
       5    H1      21.170787   20.578108   26.495084 H          1 MOL1         0.0750
       6    H2      19.413322   20.731341   26.423708 H          1 MOL1         0.0750
       7    C3      20.273432   19.647564   24.733249 C.3        1 MOL1        -0.1860
       8    H3      21.110174   18.958052   24.555241 H          1 MOL1         0.0752
       9    H4      19.349079   19.103869   24.498026 H          1 MOL1         0.0752
      10    C4      20.406370   20.879747   23.810591 C.3        1 MOL1        -0.1858
      11    H5      21.270137   21.476448   24.134205 H          1 MOL1         0.0752
      12    H6      19.524424   21.523647   23.930814 H          1 MOL1         0.0752
      13    C5      20.590264   20.532046   22.312051 C.3        1 MOL1        -0.1858
      14    H7      20.730791   21.476333   21.768746 H          1 MOL1         0.0752
      15    H8      21.521716   19.969288   22.173632 H          1 MOL1         0.0752
      16    C6      19.390966   19.783035   21.672048 C.3        1 MOL1        -0.1858
      17    H9      19.251174   20.147888   20.645341 H          1 MOL1         0.0752
      18    H10     18.468519   20.046102   22.207348 H          1 MOL1         0.0752
      19    C7      19.539179   18.241738   21.623805 C.3        1 MOL1        -0.1834
      20    H11     19.789479   17.845834   22.615563 H          1 MOL1         0.0752
      21    H12     18.567907   17.804859   21.354102 H          1 MOL1         0.0752
      22    C8      20.591736   17.767057   20.597660 C.3        1 MOL1        -0.2849
      23    H13     20.357566   18.141997   19.592867 H          1 MOL1         0.0764
      24    H14     21.599110   18.108969   20.864515 H          1 MOL1         0.0764
      25    H15     20.614231   16.670619   20.551014 H          1 MOL1         0.0764
@<TRIPOS>BOND
    1     1     2    1
    2     1     3    2
    3     1     4    1
    4     4     5    1
    5     4     6    1
    6     4     7    1
    7     7     8    1
    8     7     9    1
    9     7    10    1
   10    10    11    1
   11    10    12    1
   12    10    13    1
   13    13    14    1
   14    13    15    1
   15    13    16    1
   16    16    17    1
   17    16    18    1
   18    16    19    1
   19    19    20    1
   20    19    21    1
   21    19    22    1
   22    22    23    1
   23    22    24    1
   24    22    25    1
@<TRIPOS>SUBSTRUCTURE
       1 MOL1            1 RESIDUE      1      MOL     
@<SCITEGIC>MOL_PROPERTY
VM2 Rank
SciTegic.value.IntegerValue
124

@<SCITEGIC>MOL_PROPERTY
Conf_Id
SciTegic.value.IntegerValue
561

@<SCITEGIC>MOL_PROPERTY
Probability
SciTegic.value.DoubleValue
0.01

@<SCITEGIC>MOL_PROPERTY
Sum Probability
SciTegic.value.DoubleValue
99.87

@<SCITEGIC>MOL_PROPERTY
Delta G
SciTegic.value.DoubleValue
4.904

@<SCITEGIC>MOL_PROPERTY
G
SciTegic.value.DoubleValue
-3.059

@<SCITEGIC>MOL_PROPERTY
E
SciTegic.value.DoubleValue
-27.911

@<SCITEGIC>MOL_PROPERTY
-TS
SciTegic.value.DoubleValue
24.853

@<SCITEGIC>MOL_PROPERTY
U+W
SciTegic.value.DoubleValue
-48.479

@<SCITEGIC>MOL_PROPERTY
U
SciTegic.value.DoubleValue
11.374

@<SCITEGIC>MOL_PROPERTY
W
SciTegic.value.DoubleValue
-59.853

@<SCITEGIC>MOL_PROPERTY
W(PB)
SciTegic.value.DoubleValue
-62.282

@<SCITEGIC>MOL_PROPERTY
W(SA)
SciTegic.value.DoubleValue
2.429

@<SCITEGIC>MOL_PROPERTY
Valence
SciTegic.value.DoubleValue
11.258

@<SCITEGIC>MOL_PROPERTY
Coulomb
SciTegic.value.DoubleValue
-0.951

@<SCITEGIC>MOL_PROPERTY
VdW
SciTegic.value.DoubleValue
1.066

@<SCITEGIC>MOL_PROPERTY
VdW6
SciTegic.value.DoubleValue
-9.862

@<SCITEGIC>MOL_PROPERTY
VdW12
SciTegic.value.DoubleValue
10.928

@<SCITEGIC>MOL_PROPERTY
Bond
SciTegic.value.DoubleValue
0.236

@<SCITEGIC>MOL_PROPERTY
Angle
SciTegic.value.DoubleValue
3.227

@<SCITEGIC>MOL_PROPERTY
Pdih
SciTegic.value.DoubleValue
7.794

@<SCITEGIC>MOL_PROPERTY
Idih
SciTegic.value.DoubleValue
0.000

@<SCITEGIC>MOL_PROPERTY
Tether
SciTegic.value.DoubleValue
0.000

@<TRIPOS>MOLECULE
guest-8_vm2.mol2 : vm2 ligand conformer 125
          25          24           1
SMALL
USER_CHARGES
 
@<TRIPOS>ATOM
       1    C1      20.403418   19.735932   27.090446 C.2        1 MOL1         0.6168
       2    O1      21.325268   20.517414   26.963378 O.co2      1 MOL1        -0.6703
       3    O2      19.615227   19.769259   28.014821 O.co2      1 MOL1        -0.6703
       4    C2      20.212108   18.667488   26.019947 C.3        1 MOL1        -0.1963
       5    H1      19.796032   17.775105   26.502428 H          1 MOL1         0.0750
       6    H2      21.202493   18.396472   25.638396 H          1 MOL1         0.0750
       7    C3      19.284523   19.134090   24.867363 C.3        1 MOL1        -0.1860
       8    H3      18.323430   19.445010   25.299578 H          1 MOL1         0.0752
       9    H4      19.712088   20.026956   24.395284 H          1 MOL1         0.0752
      10    C4      19.017521   18.031480   23.811369 C.3        1 MOL1        -0.1858
      11    H5      18.167410   18.325935   23.181010 H          1 MOL1         0.0752
      12    H6      18.695005   17.121894   24.336242 H          1 MOL1         0.0752
      13    C5      20.232638   17.686972   22.909394 C.3        1 MOL1        -0.1858
      14    H7      21.177091   17.865397   23.438004 H          1 MOL1         0.0752
      15    H8      20.207693   16.608407   22.702659 H          1 MOL1         0.0752
      16    C6      20.250837   18.421501   21.545285 C.3        1 MOL1        -0.1858
      17    H9      19.345537   18.163907   20.978822 H          1 MOL1         0.0752
      18    H10     21.098803   18.040096   20.960208 H          1 MOL1         0.0752
      19    C7      20.368683   19.957347   21.654553 C.3        1 MOL1        -0.1834
      20    H11     19.468381   20.367113   22.130692 H          1 MOL1         0.0752
      21    H12     21.222917   20.219990   22.293743 H          1 MOL1         0.0752
      22    C8      20.542779   20.612518   20.269446 C.3        1 MOL1        -0.2849
      23    H13     21.455384   20.253149   19.776197 H          1 MOL1         0.0764
      24    H14     19.688603   20.385876   19.618030 H          1 MOL1         0.0764
      25    H15     20.616561   21.703630   20.364510 H          1 MOL1         0.0764
@<TRIPOS>BOND
    1     1     2    1
    2     1     3    2
    3     1     4    1
    4     4     5    1
    5     4     6    1
    6     4     7    1
    7     7     8    1
    8     7     9    1
    9     7    10    1
   10    10    11    1
   11    10    12    1
   12    10    13    1
   13    13    14    1
   14    13    15    1
   15    13    16    1
   16    16    17    1
   17    16    18    1
   18    16    19    1
   19    19    20    1
   20    19    21    1
   21    19    22    1
   22    22    23    1
   23    22    24    1
   24    22    25    1
@<TRIPOS>SUBSTRUCTURE
       1 MOL1            1 RESIDUE      1      MOL     
@<SCITEGIC>MOL_PROPERTY
VM2 Rank
SciTegic.value.IntegerValue
125

@<SCITEGIC>MOL_PROPERTY
Conf_Id
SciTegic.value.IntegerValue
258

@<SCITEGIC>MOL_PROPERTY
Probability
SciTegic.value.DoubleValue
0.01

@<SCITEGIC>MOL_PROPERTY
Sum Probability
SciTegic.value.DoubleValue
99.88

@<SCITEGIC>MOL_PROPERTY
Delta G
SciTegic.value.DoubleValue
4.905

@<SCITEGIC>MOL_PROPERTY
G
SciTegic.value.DoubleValue
-3.058

@<SCITEGIC>MOL_PROPERTY
E
SciTegic.value.DoubleValue
-27.902

@<SCITEGIC>MOL_PROPERTY
-TS
SciTegic.value.DoubleValue
24.845

@<SCITEGIC>MOL_PROPERTY
U+W
SciTegic.value.DoubleValue
-48.470

@<SCITEGIC>MOL_PROPERTY
U
SciTegic.value.DoubleValue
11.198

@<SCITEGIC>MOL_PROPERTY
W
SciTegic.value.DoubleValue
-59.667

@<SCITEGIC>MOL_PROPERTY
W(PB)
SciTegic.value.DoubleValue
-62.101

@<SCITEGIC>MOL_PROPERTY
W(SA)
SciTegic.value.DoubleValue
2.433

@<SCITEGIC>MOL_PROPERTY
Valence
SciTegic.value.DoubleValue
11.279

@<SCITEGIC>MOL_PROPERTY
Coulomb
SciTegic.value.DoubleValue
-1.128

@<SCITEGIC>MOL_PROPERTY
VdW
SciTegic.value.DoubleValue
1.047

@<SCITEGIC>MOL_PROPERTY
VdW6
SciTegic.value.DoubleValue
-9.931

@<SCITEGIC>MOL_PROPERTY
VdW12
SciTegic.value.DoubleValue
10.978

@<SCITEGIC>MOL_PROPERTY
Bond
SciTegic.value.DoubleValue
0.250

@<SCITEGIC>MOL_PROPERTY
Angle
SciTegic.value.DoubleValue
3.255

@<SCITEGIC>MOL_PROPERTY
Pdih
SciTegic.value.DoubleValue
7.772

@<SCITEGIC>MOL_PROPERTY
Idih
SciTegic.value.DoubleValue
0.001

@<SCITEGIC>MOL_PROPERTY
Tether
SciTegic.value.DoubleValue
0.000

@<TRIPOS>MOLECULE
guest-8_vm2.mol2 : vm2 ligand conformer 126
          25          24           1
SMALL
USER_CHARGES
 
@<TRIPOS>ATOM
       1    C1      20.777625   18.960566   26.411034 C.2        1 MOL1         0.6168
       2    O1      21.447915   19.934057   26.695237 O.co2      1 MOL1        -0.6703
       3    O2      21.253311   17.887192   26.096737 O.co2      1 MOL1        -0.6703
       4    C2      19.257914   19.069166   26.523116 C.3        1 MOL1        -0.1963
       5    H1      19.040117   19.259089   27.580441 H          1 MOL1         0.0750
       6    H2      18.812167   18.096922   26.280559 H          1 MOL1         0.0750
       7    C3      18.607398   20.189570   25.663506 C.3        1 MOL1        -0.1860
       8    H3      17.621481   20.416109   26.091352 H          1 MOL1         0.0752
       9    H4      19.193514   21.115163   25.749081 H          1 MOL1         0.0752
      10    C4      18.401966   19.827505   24.171542 C.3        1 MOL1        -0.1858
      11    H5      17.808460   20.625585   23.704964 H          1 MOL1         0.0752
      12    H6      17.802141   18.910536   24.092875 H          1 MOL1         0.0752
      13    C5      19.717263   19.656220   23.378071 C.3        1 MOL1        -0.1858
      14    H7      20.361507   20.531369   23.538677 H          1 MOL1         0.0752
      15    H8      20.259940   18.782151   23.756526 H          1 MOL1         0.0752
      16    C6      19.452368   19.477890   21.864869 C.3        1 MOL1        -0.1858
      17    H9      18.855010   20.325919   21.503261 H          1 MOL1         0.0752
      18    H10     18.846167   18.576784   21.699464 H          1 MOL1         0.0752
      19    C7      20.745343   19.393899   21.020431 C.3        1 MOL1        -0.1834
      20    H11     20.471875   19.389373   19.956303 H          1 MOL1         0.0752
      21    H12     21.352262   20.295623   21.181145 H          1 MOL1         0.0752
      22    C8      21.591899   18.137934   21.321457 C.3        1 MOL1        -0.2849
      23    H13     21.984028   18.155087   22.346336 H          1 MOL1         0.0764
      24    H14     20.997149   17.223857   21.195878 H          1 MOL1         0.0764
      25    H15     22.449418   18.080003   20.638733 H          1 MOL1         0.0764
@<TRIPOS>BOND
    1     1     2    1
    2     1     3    2
    3     1     4    1
    4     4     5    1
    5     4     6    1
    6     4     7    1
    7     7     8    1
    8     7     9    1
    9     7    10    1
   10    10    11    1
   11    10    12    1
   12    10    13    1
   13    13    14    1
   14    13    15    1
   15    13    16    1
   16    16    17    1
   17    16    18    1
   18    16    19    1
   19    19    20    1
   20    19    21    1
   21    19    22    1
   22    22    23    1
   23    22    24    1
   24    22    25    1
@<TRIPOS>SUBSTRUCTURE
       1 MOL1            1 RESIDUE      1      MOL     
@<SCITEGIC>MOL_PROPERTY
VM2 Rank
SciTegic.value.IntegerValue
126

@<SCITEGIC>MOL_PROPERTY
Conf_Id
SciTegic.value.IntegerValue
568

@<SCITEGIC>MOL_PROPERTY
Probability
SciTegic.value.DoubleValue
0.01

@<SCITEGIC>MOL_PROPERTY
Sum Probability
SciTegic.value.DoubleValue
99.89

@<SCITEGIC>MOL_PROPERTY
Delta G
SciTegic.value.DoubleValue
4.906

@<SCITEGIC>MOL_PROPERTY
G
SciTegic.value.DoubleValue
-3.056

@<SCITEGIC>MOL_PROPERTY
E
SciTegic.value.DoubleValue
-28.214

@<SCITEGIC>MOL_PROPERTY
-TS
SciTegic.value.DoubleValue
25.158

@<SCITEGIC>MOL_PROPERTY
U+W
SciTegic.value.DoubleValue
-48.781

@<SCITEGIC>MOL_PROPERTY
U
SciTegic.value.DoubleValue
12.472

@<SCITEGIC>MOL_PROPERTY
W
SciTegic.value.DoubleValue
-61.253

@<SCITEGIC>MOL_PROPERTY
W(PB)
SciTegic.value.DoubleValue
-63.647

@<SCITEGIC>MOL_PROPERTY
W(SA)
SciTegic.value.DoubleValue
2.393

@<SCITEGIC>MOL_PROPERTY
Valence
SciTegic.value.DoubleValue
9.941

@<SCITEGIC>MOL_PROPERTY
Coulomb
SciTegic.value.DoubleValue
1.808

@<SCITEGIC>MOL_PROPERTY
VdW
SciTegic.value.DoubleValue
0.723

@<SCITEGIC>MOL_PROPERTY
VdW6
SciTegic.value.DoubleValue
-10.775

@<SCITEGIC>MOL_PROPERTY
VdW12
SciTegic.value.DoubleValue
11.499

@<SCITEGIC>MOL_PROPERTY
Bond
SciTegic.value.DoubleValue
0.236

@<SCITEGIC>MOL_PROPERTY
Angle
SciTegic.value.DoubleValue
3.416

@<SCITEGIC>MOL_PROPERTY
Pdih
SciTegic.value.DoubleValue
6.282

@<SCITEGIC>MOL_PROPERTY
Idih
SciTegic.value.DoubleValue
0.007

@<SCITEGIC>MOL_PROPERTY
Tether
SciTegic.value.DoubleValue
0.000

@<TRIPOS>MOLECULE
guest-8_vm2.mol2 : vm2 ligand conformer 127
          25          24           1
SMALL
USER_CHARGES
 
@<TRIPOS>ATOM
       1    C1      20.594143   18.821083   26.769625 C.2        1 MOL1         0.6168
       2    O1      21.760934   19.158025   26.811465 O.co2      1 MOL1        -0.6703
       3    O2      19.951848   18.496208   27.748810 O.co2      1 MOL1        -0.6703
       4    C2      19.890598   18.826955   25.417384 C.3        1 MOL1        -0.1963
       5    H1      19.133119   18.034325   25.426768 H          1 MOL1         0.0750
       6    H2      20.629381   18.554498   24.658062 H          1 MOL1         0.0750
       7    C3      19.229278   20.192299   25.091800 C.3        1 MOL1        -0.1860
       8    H3      18.522562   20.424203   25.900638 H          1 MOL1         0.0752
       9    H4      19.983823   20.990760   25.108180 H          1 MOL1         0.0752
      10    C4      18.458511   20.208810   23.746677 C.3        1 MOL1        -0.1858
      11    H5      17.588503   20.868611   23.867365 H          1 MOL1         0.0752
      12    H6      18.042509   19.216520   23.528938 H          1 MOL1         0.0752
      13    C5      19.271384   20.742227   22.537337 C.3        1 MOL1        -0.1858
      14    H7      18.599979   20.818648   21.671281 H          1 MOL1         0.0752
      15    H8      19.595321   21.768852   22.755832 H          1 MOL1         0.0752
      16    C6      20.510502   19.909646   22.128423 C.3        1 MOL1        -0.1858
      17    H9      21.233743   19.884611   22.953015 H          1 MOL1         0.0752
      18    H10     21.016284   20.428078   21.302582 H          1 MOL1         0.0752
      19    C7      20.163902   18.473867   21.672802 C.3        1 MOL1        -0.1834
      20    H11     19.680514   17.921602   22.488724 H          1 MOL1         0.0752
      21    H12     19.442959   18.513486   20.844762 H          1 MOL1         0.0752
      22    C8      21.421899   17.704880   21.221678 C.3        1 MOL1        -0.2849
      23    H13     22.147391   17.625184   22.041860 H          1 MOL1         0.0764
      24    H14     21.159648   16.688350   20.900996 H          1 MOL1         0.0764
      25    H15     21.910896   18.210752   20.378933 H          1 MOL1         0.0764
@<TRIPOS>BOND
    1     1     2    1
    2     1     3    2
    3     1     4    1
    4     4     5    1
    5     4     6    1
    6     4     7    1
    7     7     8    1
    8     7     9    1
    9     7    10    1
   10    10    11    1
   11    10    12    1
   12    10    13    1
   13    13    14    1
   14    13    15    1
   15    13    16    1
   16    16    17    1
   17    16    18    1
   18    16    19    1
   19    19    20    1
   20    19    21    1
   21    19    22    1
   22    22    23    1
   23    22    24    1
   24    22    25    1
@<TRIPOS>SUBSTRUCTURE
       1 MOL1            1 RESIDUE      1      MOL     
@<SCITEGIC>MOL_PROPERTY
VM2 Rank
SciTegic.value.IntegerValue
127

@<SCITEGIC>MOL_PROPERTY
Conf_Id
SciTegic.value.IntegerValue
793

@<SCITEGIC>MOL_PROPERTY
Probability
SciTegic.value.DoubleValue
0.01

@<SCITEGIC>MOL_PROPERTY
Sum Probability
SciTegic.value.DoubleValue
99.89

@<SCITEGIC>MOL_PROPERTY
Delta G
SciTegic.value.DoubleValue
4.909

@<SCITEGIC>MOL_PROPERTY
G
SciTegic.value.DoubleValue
-3.054

@<SCITEGIC>MOL_PROPERTY
E
SciTegic.value.DoubleValue
-28.317

@<SCITEGIC>MOL_PROPERTY
-TS
SciTegic.value.DoubleValue
25.264

@<SCITEGIC>MOL_PROPERTY
U+W
SciTegic.value.DoubleValue
-48.885

@<SCITEGIC>MOL_PROPERTY
U
SciTegic.value.DoubleValue
11.279

@<SCITEGIC>MOL_PROPERTY
W
SciTegic.value.DoubleValue
-60.164

@<SCITEGIC>MOL_PROPERTY
W(PB)
SciTegic.value.DoubleValue
-62.543

@<SCITEGIC>MOL_PROPERTY
W(SA)
SciTegic.value.DoubleValue
2.379

@<SCITEGIC>MOL_PROPERTY
Valence
SciTegic.value.DoubleValue
11.119

@<SCITEGIC>MOL_PROPERTY
Coulomb
SciTegic.value.DoubleValue
-0.438

@<SCITEGIC>MOL_PROPERTY
VdW
SciTegic.value.DoubleValue
0.597

@<SCITEGIC>MOL_PROPERTY
VdW6
SciTegic.value.DoubleValue
-10.693

@<SCITEGIC>MOL_PROPERTY
VdW12
SciTegic.value.DoubleValue
11.290

@<SCITEGIC>MOL_PROPERTY
Bond
SciTegic.value.DoubleValue
0.252

@<SCITEGIC>MOL_PROPERTY
Angle
SciTegic.value.DoubleValue
3.622

@<SCITEGIC>MOL_PROPERTY
Pdih
SciTegic.value.DoubleValue
7.244

@<SCITEGIC>MOL_PROPERTY
Idih
SciTegic.value.DoubleValue
0.001

@<SCITEGIC>MOL_PROPERTY
Tether
SciTegic.value.DoubleValue
0.000

@<TRIPOS>MOLECULE
guest-8_vm2.mol2 : vm2 ligand conformer 128
          25          24           1
SMALL
USER_CHARGES
 
@<TRIPOS>ATOM
       1    C1      20.110094   19.255685   27.471255 C.2        1 MOL1         0.6168
       2    O1      21.094854   19.785841   27.946567 O.co2      1 MOL1        -0.6703
       3    O2      19.072880   19.091349   28.082771 O.co2      1 MOL1        -0.6703
       4    C2      20.171596   18.791475   26.020425 C.3        1 MOL1        -0.1963
       5    H1      19.525766   17.911300   25.917737 H          1 MOL1         0.0750
       6    H2      21.198394   18.467099   25.818835 H          1 MOL1         0.0750
       7    C3      19.736630   19.893922   25.019804 C.3        1 MOL1        -0.1860
       8    H3      18.743448   20.260991   25.313570 H          1 MOL1         0.0752
       9    H4      20.418959   20.751680   25.096996 H          1 MOL1         0.0752
      10    C4      19.668556   19.408952   23.551777 C.3        1 MOL1        -0.1858
      11    H5      19.206799   20.205857   22.955361 H          1 MOL1         0.0752
      12    H6      19.005643   18.535945   23.481182 H          1 MOL1         0.0752
      13    C5      21.052808   19.067792   22.950182 C.3        1 MOL1        -0.1858
      14    H7      21.689536   19.962636   22.970835 H          1 MOL1         0.0752
      15    H8      21.551929   18.319682   23.578420 H          1 MOL1         0.0752
      16    C6      20.997168   18.509503   21.505645 C.3        1 MOL1        -0.1858
      17    H9      20.440457   17.562547   21.489710 H          1 MOL1         0.0752
      18    H10     22.024421   18.255800   21.210248 H          1 MOL1         0.0752
      19    C7      20.421182   19.488560   20.452132 C.3        1 MOL1        -0.1834
      20    H11     20.577669   20.528107   20.771646 H          1 MOL1         0.0752
      21    H12     20.984278   19.369215   19.516194 H          1 MOL1         0.0752
      22    C8      18.927233   19.240922   20.145440 C.3        1 MOL1        -0.2849
      23    H13     18.302954   19.353094   21.039203 H          1 MOL1         0.0764
      24    H14     18.566466   19.953449   19.392473 H          1 MOL1         0.0764
      25    H15     18.772970   18.228411   19.750337 H          1 MOL1         0.0764
@<TRIPOS>BOND
    1     1     2    1
    2     1     3    2
    3     1     4    1
    4     4     5    1
    5     4     6    1
    6     4     7    1
    7     7     8    1
    8     7     9    1
    9     7    10    1
   10    10    11    1
   11    10    12    1
   12    10    13    1
   13    13    14    1
   14    13    15    1
   15    13    16    1
   16    16    17    1
   17    16    18    1
   18    16    19    1
   19    19    20    1
   20    19    21    1
   21    19    22    1
   22    22    23    1
   23    22    24    1
   24    22    25    1
@<TRIPOS>SUBSTRUCTURE
       1 MOL1            1 RESIDUE      1      MOL     
@<SCITEGIC>MOL_PROPERTY
VM2 Rank
SciTegic.value.IntegerValue
128

@<SCITEGIC>MOL_PROPERTY
Conf_Id
SciTegic.value.IntegerValue
19

@<SCITEGIC>MOL_PROPERTY
Probability
SciTegic.value.DoubleValue
0.01

@<SCITEGIC>MOL_PROPERTY
Sum Probability
SciTegic.value.DoubleValue
99.90

@<SCITEGIC>MOL_PROPERTY
Delta G
SciTegic.value.DoubleValue
4.913

@<SCITEGIC>MOL_PROPERTY
G
SciTegic.value.DoubleValue
-3.050

@<SCITEGIC>MOL_PROPERTY
E
SciTegic.value.DoubleValue
-27.840

@<SCITEGIC>MOL_PROPERTY
-TS
SciTegic.value.DoubleValue
24.790

@<SCITEGIC>MOL_PROPERTY
U+W
SciTegic.value.DoubleValue
-48.407

@<SCITEGIC>MOL_PROPERTY
U
SciTegic.value.DoubleValue
10.617

@<SCITEGIC>MOL_PROPERTY
W
SciTegic.value.DoubleValue
-59.025

@<SCITEGIC>MOL_PROPERTY
W(PB)
SciTegic.value.DoubleValue
-61.462

@<SCITEGIC>MOL_PROPERTY
W(SA)
SciTegic.value.DoubleValue
2.437

@<SCITEGIC>MOL_PROPERTY
Valence
SciTegic.value.DoubleValue
11.188

@<SCITEGIC>MOL_PROPERTY
Coulomb
SciTegic.value.DoubleValue
-1.778

@<SCITEGIC>MOL_PROPERTY
VdW
SciTegic.value.DoubleValue
1.208

@<SCITEGIC>MOL_PROPERTY
VdW6
SciTegic.value.DoubleValue
-9.786

@<SCITEGIC>MOL_PROPERTY
VdW12
SciTegic.value.DoubleValue
10.993

@<SCITEGIC>MOL_PROPERTY
Bond
SciTegic.value.DoubleValue
0.241

@<SCITEGIC>MOL_PROPERTY
Angle
SciTegic.value.DoubleValue
3.294

@<SCITEGIC>MOL_PROPERTY
Pdih
SciTegic.value.DoubleValue
7.653

@<SCITEGIC>MOL_PROPERTY
Idih
SciTegic.value.DoubleValue
0.001

@<SCITEGIC>MOL_PROPERTY
Tether
SciTegic.value.DoubleValue
0.000

@<TRIPOS>MOLECULE
guest-8_vm2.mol2 : vm2 ligand conformer 129
          25          24           1
SMALL
USER_CHARGES
 
@<TRIPOS>ATOM
       1    C1      19.772259   18.768311   26.779042 C.2        1 MOL1         0.6168
       2    O1      20.473118   18.530240   27.742892 O.co2      1 MOL1        -0.6703
       3    O2      18.573145   18.952849   26.847958 O.co2      1 MOL1        -0.6703
       4    C2      20.438177   18.862027   25.411075 C.3        1 MOL1        -0.1963
       5    H1      19.723167   18.496091   24.668475 H          1 MOL1         0.0750
       6    H2      21.290864   18.172849   25.402046 H          1 MOL1         0.0750
       7    C3      20.911735   20.300254   25.072317 C.3        1 MOL1        -0.1860
       8    H3      20.061822   20.995652   25.107203 H          1 MOL1         0.0752
       9    H4      21.601409   20.621896   25.864997 H          1 MOL1         0.0752
      10    C4      21.642864   20.413158   23.709817 C.3        1 MOL1        -0.1858
      11    H5      22.177134   19.481851   23.481067 H          1 MOL1         0.0752
      12    H6      22.423964   21.178915   23.811389 H          1 MOL1         0.0752
      13    C5      20.740798   20.836522   22.520347 C.3        1 MOL1        -0.1858
      14    H7      20.293495   21.813679   22.747758 H          1 MOL1         0.0752
      15    H8      21.376750   20.996779   21.639120 H          1 MOL1         0.0752
      16    C6      19.609084   19.851840   22.138980 C.3        1 MOL1        -0.1858
      17    H9      19.022213   20.300187   21.325857 H          1 MOL1         0.0752
      18    H10     18.914264   19.735798   22.980063 H          1 MOL1         0.0752
      19    C7      20.125671   18.471460   21.673282 C.3        1 MOL1        -0.1834
      20    H11     20.816235   18.601684   20.828805 H          1 MOL1         0.0752
      21    H12     20.694476   17.986699   22.476935 H          1 MOL1         0.0752
      22    C8      18.966149   17.547337   21.250293 C.3        1 MOL1        -0.2849
      23    H13     18.397038   17.985367   20.419938 H          1 MOL1         0.0764
      24    H14     19.348672   16.572225   20.921996 H          1 MOL1         0.0764
      25    H15     18.276060   17.376695   22.086982 H          1 MOL1         0.0764
@<TRIPOS>BOND
    1     1     2    1
    2     1     3    2
    3     1     4    1
    4     4     5    1
    5     4     6    1
    6     4     7    1
    7     7     8    1
    8     7     9    1
    9     7    10    1
   10    10    11    1
   11    10    12    1
   12    10    13    1
   13    13    14    1
   14    13    15    1
   15    13    16    1
   16    16    17    1
   17    16    18    1
   18    16    19    1
   19    19    20    1
   20    19    21    1
   21    19    22    1
   22    22    23    1
   23    22    24    1
   24    22    25    1
@<TRIPOS>SUBSTRUCTURE
       1 MOL1            1 RESIDUE      1      MOL     
@<SCITEGIC>MOL_PROPERTY
VM2 Rank
SciTegic.value.IntegerValue
129

@<SCITEGIC>MOL_PROPERTY
Conf_Id
SciTegic.value.IntegerValue
541

@<SCITEGIC>MOL_PROPERTY
Probability
SciTegic.value.DoubleValue
0.01

@<SCITEGIC>MOL_PROPERTY
Sum Probability
SciTegic.value.DoubleValue
99.91

@<SCITEGIC>MOL_PROPERTY
Delta G
SciTegic.value.DoubleValue
4.933

@<SCITEGIC>MOL_PROPERTY
G
SciTegic.value.DoubleValue
-3.030

@<SCITEGIC>MOL_PROPERTY
E
SciTegic.value.DoubleValue
-28.293

@<SCITEGIC>MOL_PROPERTY
-TS
SciTegic.value.DoubleValue
25.264

@<SCITEGIC>MOL_PROPERTY
U+W
SciTegic.value.DoubleValue
-48.861

@<SCITEGIC>MOL_PROPERTY
U
SciTegic.value.DoubleValue
11.279

@<SCITEGIC>MOL_PROPERTY
W
SciTegic.value.DoubleValue
-60.140

@<SCITEGIC>MOL_PROPERTY
W(PB)
SciTegic.value.DoubleValue
-62.527

@<SCITEGIC>MOL_PROPERTY
W(SA)
SciTegic.value.DoubleValue
2.387

@<SCITEGIC>MOL_PROPERTY
Valence
SciTegic.value.DoubleValue
11.119

@<SCITEGIC>MOL_PROPERTY
Coulomb
SciTegic.value.DoubleValue
-0.437

@<SCITEGIC>MOL_PROPERTY
VdW
SciTegic.value.DoubleValue
0.598

@<SCITEGIC>MOL_PROPERTY
VdW6
SciTegic.value.DoubleValue
-10.693

@<SCITEGIC>MOL_PROPERTY
VdW12
SciTegic.value.DoubleValue
11.291

@<SCITEGIC>MOL_PROPERTY
Bond
SciTegic.value.DoubleValue
0.252

@<SCITEGIC>MOL_PROPERTY
Angle
SciTegic.value.DoubleValue
3.622

@<SCITEGIC>MOL_PROPERTY
Pdih
SciTegic.value.DoubleValue
7.245

@<SCITEGIC>MOL_PROPERTY
Idih
SciTegic.value.DoubleValue
0.001

@<SCITEGIC>MOL_PROPERTY
Tether
SciTegic.value.DoubleValue
0.000

@<TRIPOS>MOLECULE
guest-8_vm2.mol2 : vm2 ligand conformer 130
          25          24           1
SMALL
USER_CHARGES
 
@<TRIPOS>ATOM
       1    C1      20.623562   19.319816   27.115716 C.2        1 MOL1         0.6168
       2    O1      21.544225   20.106835   27.017831 O.co2      1 MOL1        -0.6703
       3    O2      20.079395   19.047488   28.167640 O.co2      1 MOL1        -0.6703
       4    C2      20.108580   18.652783   25.845511 C.3        1 MOL1        -0.1963
       5    H1      19.758374   17.647803   26.109473 H          1 MOL1         0.0750
       6    H2      20.956719   18.525493   25.165457 H          1 MOL1         0.0750
       7    C3      18.964292   19.453220   25.169036 C.3        1 MOL1        -0.1860
       8    H3      18.132965   19.524786   25.884017 H          1 MOL1         0.0752
       9    H4      19.287642   20.484957   24.973186 H          1 MOL1         0.0752
      10    C4      18.443892   18.796704   23.865100 C.3        1 MOL1        -0.1858
      11    H5      17.356142   18.943608   23.818691 H          1 MOL1         0.0752
      12    H6      18.596367   17.709264   23.898850 H          1 MOL1         0.0752
      13    C5      19.048186   19.376723   22.561374 C.3        1 MOL1        -0.1858
      14    H7      18.551183   18.886801   21.714789 H          1 MOL1         0.0752
      15    H8      18.800593   20.444404   22.488581 H          1 MOL1         0.0752
      16    C6      20.580082   19.196535   22.435539 C.3        1 MOL1        -0.1858
      17    H9      20.843365   18.138352   22.567324 H          1 MOL1         0.0752
      18    H10     21.073000   19.749680   23.245179 H          1 MOL1         0.0752
      19    C7      21.152673   19.710542   21.093761 C.3        1 MOL1        -0.1834
      20    H11     20.867728   20.761415   20.946309 H          1 MOL1         0.0752
      21    H12     22.249772   19.692247   21.150887 H          1 MOL1         0.0752
      22    C8      20.708113   18.873355   19.874492 C.3        1 MOL1        -0.2849
      23    H13     19.628379   18.957491   19.700425 H          1 MOL1         0.0764
      24    H14     21.217788   19.219174   18.965905 H          1 MOL1         0.0764
      25    H15     20.953049   17.812641   20.015859 H          1 MOL1         0.0764
@<TRIPOS>BOND
    1     1     2    1
    2     1     3    2
    3     1     4    1
    4     4     5    1
    5     4     6    1
    6     4     7    1
    7     7     8    1
    8     7     9    1
    9     7    10    1
   10    10    11    1
   11    10    12    1
   12    10    13    1
   13    13    14    1
   14    13    15    1
   15    13    16    1
   16    16    17    1
   17    16    18    1
   18    16    19    1
   19    19    20    1
   20    19    21    1
   21    19    22    1
   22    22    23    1
   23    22    24    1
   24    22    25    1
@<TRIPOS>SUBSTRUCTURE
       1 MOL1            1 RESIDUE      1      MOL     
@<SCITEGIC>MOL_PROPERTY
VM2 Rank
SciTegic.value.IntegerValue
130

@<SCITEGIC>MOL_PROPERTY
Conf_Id
SciTegic.value.IntegerValue
1308

@<SCITEGIC>MOL_PROPERTY
Probability
SciTegic.value.DoubleValue
0.01

@<SCITEGIC>MOL_PROPERTY
Sum Probability
SciTegic.value.DoubleValue
99.91

@<SCITEGIC>MOL_PROPERTY
Delta G
SciTegic.value.DoubleValue
4.946

@<SCITEGIC>MOL_PROPERTY
G
SciTegic.value.DoubleValue
-3.016

@<SCITEGIC>MOL_PROPERTY
E
SciTegic.value.DoubleValue
-27.869

@<SCITEGIC>MOL_PROPERTY
-TS
SciTegic.value.DoubleValue
24.853

@<SCITEGIC>MOL_PROPERTY
U+W
SciTegic.value.DoubleValue
-48.437

@<SCITEGIC>MOL_PROPERTY
U
SciTegic.value.DoubleValue
10.982

@<SCITEGIC>MOL_PROPERTY
W
SciTegic.value.DoubleValue
-59.419

@<SCITEGIC>MOL_PROPERTY
W(PB)
SciTegic.value.DoubleValue
-61.897

@<SCITEGIC>MOL_PROPERTY
W(SA)
SciTegic.value.DoubleValue
2.477

@<SCITEGIC>MOL_PROPERTY
Valence
SciTegic.value.DoubleValue
11.160

@<SCITEGIC>MOL_PROPERTY
Coulomb
SciTegic.value.DoubleValue
-1.272

@<SCITEGIC>MOL_PROPERTY
VdW
SciTegic.value.DoubleValue
1.094

@<SCITEGIC>MOL_PROPERTY
VdW6
SciTegic.value.DoubleValue
-9.961

@<SCITEGIC>MOL_PROPERTY
VdW12
SciTegic.value.DoubleValue
11.055

@<SCITEGIC>MOL_PROPERTY
Bond
SciTegic.value.DoubleValue
0.244

@<SCITEGIC>MOL_PROPERTY
Angle
SciTegic.value.DoubleValue
3.277

@<SCITEGIC>MOL_PROPERTY
Pdih
SciTegic.value.DoubleValue
7.638

@<SCITEGIC>MOL_PROPERTY
Idih
SciTegic.value.DoubleValue
0.001

@<SCITEGIC>MOL_PROPERTY
Tether
SciTegic.value.DoubleValue
0.000

@<TRIPOS>MOLECULE
guest-8_vm2.mol2 : vm2 ligand conformer 131
          25          24           1
SMALL
USER_CHARGES
 
@<TRIPOS>ATOM
       1    C1      19.565812   18.880348   26.425052 C.2        1 MOL1         0.6168
       2    O1      19.228989   17.752964   26.120504 O.co2      1 MOL1        -0.6703
       3    O2      18.779507   19.757315   26.725710 O.co2      1 MOL1        -0.6703
       4    C2      21.060049   19.188824   26.502336 C.3        1 MOL1        -0.1963
       5    H1      21.624570   18.283537   26.248256 H          1 MOL1         0.0750
       6    H2      21.275088   19.407606   27.554636 H          1 MOL1         0.0750
       7    C3      21.537038   20.383857   25.629537 C.3        1 MOL1        -0.1860
       8    H3      20.836014   21.224141   25.729867 H          1 MOL1         0.0752
       9    H4      22.494015   20.739245   26.034874 H          1 MOL1         0.0752
      10    C4      21.754068   20.049561   24.132744 C.3        1 MOL1        -0.1858
      11    H5      22.467557   19.219525   24.039035 H          1 MOL1         0.0752
      12    H6      22.226319   20.918132   23.653747 H          1 MOL1         0.0752
      13    C5      20.454942   19.705095   23.369491 C.3        1 MOL1        -0.1858
      14    H7      20.040992   18.767795   23.759154 H          1 MOL1         0.0752
      15    H8      19.704858   20.488003   23.546008 H          1 MOL1         0.0752
      16    C6      20.706238   19.560617   21.850373 C.3        1 MOL1        -0.1858
      17    H9      21.421868   18.746899   21.669904 H          1 MOL1         0.0752
      18    H10     21.178274   20.479300   21.476272 H          1 MOL1         0.0752
      19    C7      19.416567   19.305665   21.035720 C.3        1 MOL1        -0.1834
      20    H11     18.700087   20.119954   21.211430 H          1 MOL1         0.0752
      21    H12     19.663809   19.335259   19.965595 H          1 MOL1         0.0752
      22    C8      18.749791   17.949756   21.354533 C.3        1 MOL1        -0.2849
      23    H13     18.382294   17.917036   22.388124 H          1 MOL1         0.0764
      24    H14     17.892010   17.778207   20.691518 H          1 MOL1         0.0764
      25    H15     19.456658   17.121679   21.214318 H          1 MOL1         0.0764
@<TRIPOS>BOND
    1     1     2    1
    2     1     3    2
    3     1     4    1
    4     4     5    1
    5     4     6    1
    6     4     7    1
    7     7     8    1
    8     7     9    1
    9     7    10    1
   10    10    11    1
   11    10    12    1
   12    10    13    1
   13    13    14    1
   14    13    15    1
   15    13    16    1
   16    16    17    1
   17    16    18    1
   18    16    19    1
   19    19    20    1
   20    19    21    1
   21    19    22    1
   22    22    23    1
   23    22    24    1
   24    22    25    1
@<TRIPOS>SUBSTRUCTURE
       1 MOL1            1 RESIDUE      1      MOL     
@<SCITEGIC>MOL_PROPERTY
VM2 Rank
SciTegic.value.IntegerValue
131

@<SCITEGIC>MOL_PROPERTY
Conf_Id
SciTegic.value.IntegerValue
148

@<SCITEGIC>MOL_PROPERTY
Probability
SciTegic.value.DoubleValue
0.01

@<SCITEGIC>MOL_PROPERTY
Sum Probability
SciTegic.value.DoubleValue
99.92

@<SCITEGIC>MOL_PROPERTY
Delta G
SciTegic.value.DoubleValue
4.991

@<SCITEGIC>MOL_PROPERTY
G
SciTegic.value.DoubleValue
-2.972

@<SCITEGIC>MOL_PROPERTY
E
SciTegic.value.DoubleValue
-28.129

@<SCITEGIC>MOL_PROPERTY
-TS
SciTegic.value.DoubleValue
25.157

@<SCITEGIC>MOL_PROPERTY
U+W
SciTegic.value.DoubleValue
-48.696

@<SCITEGIC>MOL_PROPERTY
U
SciTegic.value.DoubleValue
12.472

@<SCITEGIC>MOL_PROPERTY
W
SciTegic.value.DoubleValue
-61.168

@<SCITEGIC>MOL_PROPERTY
W(PB)
SciTegic.value.DoubleValue
-63.566

@<SCITEGIC>MOL_PROPERTY
W(SA)
SciTegic.value.DoubleValue
2.398

@<SCITEGIC>MOL_PROPERTY
Valence
SciTegic.value.DoubleValue
9.941

@<SCITEGIC>MOL_PROPERTY
Coulomb
SciTegic.value.DoubleValue
1.808

@<SCITEGIC>MOL_PROPERTY
VdW
SciTegic.value.DoubleValue
0.724

@<SCITEGIC>MOL_PROPERTY
VdW6
SciTegic.value.DoubleValue
-10.775

@<SCITEGIC>MOL_PROPERTY
VdW12
SciTegic.value.DoubleValue
11.499

@<SCITEGIC>MOL_PROPERTY
Bond
SciTegic.value.DoubleValue
0.236

@<SCITEGIC>MOL_PROPERTY
Angle
SciTegic.value.DoubleValue
3.415

@<SCITEGIC>MOL_PROPERTY
Pdih
SciTegic.value.DoubleValue
6.282

@<SCITEGIC>MOL_PROPERTY
Idih
SciTegic.value.DoubleValue
0.007

@<SCITEGIC>MOL_PROPERTY
Tether
SciTegic.value.DoubleValue
0.000

@<TRIPOS>MOLECULE
guest-8_vm2.mol2 : vm2 ligand conformer 132
          25          24           1
SMALL
USER_CHARGES
 
@<TRIPOS>ATOM
       1    C1      20.486571   19.310211   27.336174 C.2        1 MOL1         0.6168
       2    O1      21.605273   19.766595   27.466118 O.co2      1 MOL1        -0.6703
       3    O2      19.590780   19.484783   28.138543 O.co2      1 MOL1        -0.6703
       4    C2      20.184476   18.489294   26.087559 C.3        1 MOL1        -0.1963
       5    H1      19.443838   17.725482   26.353184 H          1 MOL1         0.0750
       6    H2      21.101653   17.964127   25.795010 H          1 MOL1         0.0750
       7    C3      19.665264   19.352376   24.911211 C.3        1 MOL1        -0.1860
       8    H3      18.753498   19.879435   25.224421 H          1 MOL1         0.0752
       9    H4      20.412519   20.121696   24.677866 H          1 MOL1         0.0752
      10    C4      19.367190   18.494259   23.659105 C.3        1 MOL1        -0.1858
      11    H5      18.643240   17.714354   23.931679 H          1 MOL1         0.0752
      12    H6      20.278831   17.972298   23.344452 H          1 MOL1         0.0752
      13    C5      18.781545   19.314780   22.482141 C.3        1 MOL1        -0.1858
      14    H7      18.343067   18.631211   21.742513 H          1 MOL1         0.0752
      15    H8      17.944024   19.915237   22.862614 H          1 MOL1         0.0752
      16    C6      19.794650   20.254981   21.775756 C.3        1 MOL1        -0.1858
      17    H9      20.572222   20.589128   22.473625 H          1 MOL1         0.0752
      18    H10     19.258994   21.164170   21.470640 H          1 MOL1         0.0752
      19    C7      20.452496   19.654959   20.508550 C.3        1 MOL1        -0.1834
      20    H11     19.675598   19.402262   19.773854 H          1 MOL1         0.0752
      21    H12     21.077748   20.427930   20.040870 H          1 MOL1         0.0752
      22    C8      21.324754   18.411761   20.780844 C.3        1 MOL1        -0.2849
      23    H13     22.071999   18.617730   21.558194 H          1 MOL1         0.0764
      24    H14     20.711507   17.561191   21.103298 H          1 MOL1         0.0764
      25    H15     21.857387   18.109249   19.870065 H          1 MOL1         0.0764
@<TRIPOS>BOND
    1     1     2    1
    2     1     3    2
    3     1     4    1
    4     4     5    1
    5     4     6    1
    6     4     7    1
    7     7     8    1
    8     7     9    1
    9     7    10    1
   10    10    11    1
   11    10    12    1
   12    10    13    1
   13    13    14    1
   14    13    15    1
   15    13    16    1
   16    16    17    1
   17    16    18    1
   18    16    19    1
   19    19    20    1
   20    19    21    1
   21    19    22    1
   22    22    23    1
   23    22    24    1
   24    22    25    1
@<TRIPOS>SUBSTRUCTURE
       1 MOL1            1 RESIDUE      1      MOL     
@<SCITEGIC>MOL_PROPERTY
VM2 Rank
SciTegic.value.IntegerValue
132

@<SCITEGIC>MOL_PROPERTY
Conf_Id
SciTegic.value.IntegerValue
829

@<SCITEGIC>MOL_PROPERTY
Probability
SciTegic.value.DoubleValue
0.01

@<SCITEGIC>MOL_PROPERTY
Sum Probability
SciTegic.value.DoubleValue
99.92

@<SCITEGIC>MOL_PROPERTY
Delta G
SciTegic.value.DoubleValue
5.020

@<SCITEGIC>MOL_PROPERTY
G
SciTegic.value.DoubleValue
-2.943

@<SCITEGIC>MOL_PROPERTY
E
SciTegic.value.DoubleValue
-27.760

@<SCITEGIC>MOL_PROPERTY
-TS
SciTegic.value.DoubleValue
24.817

@<SCITEGIC>MOL_PROPERTY
U+W
SciTegic.value.DoubleValue
-48.328

@<SCITEGIC>MOL_PROPERTY
U
SciTegic.value.DoubleValue
11.068

@<SCITEGIC>MOL_PROPERTY
W
SciTegic.value.DoubleValue
-59.396

@<SCITEGIC>MOL_PROPERTY
W(PB)
SciTegic.value.DoubleValue
-61.845

@<SCITEGIC>MOL_PROPERTY
W(SA)
SciTegic.value.DoubleValue
2.449

@<SCITEGIC>MOL_PROPERTY
Valence
SciTegic.value.DoubleValue
11.256

@<SCITEGIC>MOL_PROPERTY
Coulomb
SciTegic.value.DoubleValue
-1.285

@<SCITEGIC>MOL_PROPERTY
VdW
SciTegic.value.DoubleValue
1.098

@<SCITEGIC>MOL_PROPERTY
VdW6
SciTegic.value.DoubleValue
-9.790

@<SCITEGIC>MOL_PROPERTY
VdW12
SciTegic.value.DoubleValue
10.888

@<SCITEGIC>MOL_PROPERTY
Bond
SciTegic.value.DoubleValue
0.240

@<SCITEGIC>MOL_PROPERTY
Angle
SciTegic.value.DoubleValue
3.223

@<SCITEGIC>MOL_PROPERTY
Pdih
SciTegic.value.DoubleValue
7.792

@<SCITEGIC>MOL_PROPERTY
Idih
SciTegic.value.DoubleValue
0.001

@<SCITEGIC>MOL_PROPERTY
Tether
SciTegic.value.DoubleValue
0.000

@<TRIPOS>MOLECULE
guest-8_vm2.mol2 : vm2 ligand conformer 133
          25          24           1
SMALL
USER_CHARGES
 
@<TRIPOS>ATOM
       1    C1      20.708367   19.071412   26.478091 C.2        1 MOL1         0.6168
       2    O1      21.800097   19.142328   25.949052 O.co2      1 MOL1        -0.6703
       3    O2      20.384745   18.177999   27.236325 O.co2      1 MOL1        -0.6703
       4    C2      19.699553   20.184371   26.206811 C.3        1 MOL1        -0.1963
       5    H1      20.215722   21.011132   25.705683 H          1 MOL1         0.0750
       6    H2      19.369704   20.568290   27.179075 H          1 MOL1         0.0750
       7    C3      18.460678   19.734113   25.384920 C.3        1 MOL1        -0.1860
       8    H3      17.925075   18.958714   25.949867 H          1 MOL1         0.0752
       9    H4      17.765993   20.579271   25.288069 H          1 MOL1         0.0752
      10    C4      18.794525   19.183673   23.976781 C.3        1 MOL1        -0.1858
      11    H5      17.864675   18.834635   23.507810 H          1 MOL1         0.0752
      12    H6      19.442824   18.302915   24.076031 H          1 MOL1         0.0752
      13    C5      19.465750   20.228610   23.052910 C.3        1 MOL1        -0.1858
      14    H7      18.870949   21.151818   23.063987 H          1 MOL1         0.0752
      15    H8      20.455161   20.495669   23.445578 H          1 MOL1         0.0752
      16    C6      19.603994   19.752379   21.584846 C.3        1 MOL1        -0.1858
      17    H9      20.051949   20.561962   20.992837 H          1 MOL1         0.0752
      18    H10     18.601093   19.590457   21.167043 H          1 MOL1         0.0752
      19    C7      20.441035   18.464474   21.385361 C.3        1 MOL1        -0.1834
      20    H11     19.952405   17.615418   21.881412 H          1 MOL1         0.0752
      21    H12     20.459282   18.221140   20.314200 H          1 MOL1         0.0752
      22    C8      21.894255   18.594642   21.890903 C.3        1 MOL1        -0.2849
      23    H13     21.927093   18.720982   22.981288 H          1 MOL1         0.0764
      24    H14     22.469674   17.693275   21.643969 H          1 MOL1         0.0764
      25    H15     22.395957   19.454722   21.429058 H          1 MOL1         0.0764
@<TRIPOS>BOND
    1     1     2    1
    2     1     3    2
    3     1     4    1
    4     4     5    1
    5     4     6    1
    6     4     7    1
    7     7     8    1
    8     7     9    1
    9     7    10    1
   10    10    11    1
   11    10    12    1
   12    10    13    1
   13    13    14    1
   14    13    15    1
   15    13    16    1
   16    16    17    1
   17    16    18    1
   18    16    19    1
   19    19    20    1
   20    19    21    1
   21    19    22    1
   22    22    23    1
   23    22    24    1
   24    22    25    1
@<TRIPOS>SUBSTRUCTURE
       1 MOL1            1 RESIDUE      1      MOL     
@<SCITEGIC>MOL_PROPERTY
VM2 Rank
SciTegic.value.IntegerValue
133

@<SCITEGIC>MOL_PROPERTY
Conf_Id
SciTegic.value.IntegerValue
477

@<SCITEGIC>MOL_PROPERTY
Probability
SciTegic.value.DoubleValue
0.00

@<SCITEGIC>MOL_PROPERTY
Sum Probability
SciTegic.value.DoubleValue
99.93

@<SCITEGIC>MOL_PROPERTY
Delta G
SciTegic.value.DoubleValue
5.037

@<SCITEGIC>MOL_PROPERTY
G
SciTegic.value.DoubleValue
-2.925

@<SCITEGIC>MOL_PROPERTY
E
SciTegic.value.DoubleValue
-28.428

@<SCITEGIC>MOL_PROPERTY
-TS
SciTegic.value.DoubleValue
25.503

@<SCITEGIC>MOL_PROPERTY
U+W
SciTegic.value.DoubleValue
-48.996

@<SCITEGIC>MOL_PROPERTY
U
SciTegic.value.DoubleValue
12.037

@<SCITEGIC>MOL_PROPERTY
W
SciTegic.value.DoubleValue
-61.033

@<SCITEGIC>MOL_PROPERTY
W(PB)
SciTegic.value.DoubleValue
-63.382

@<SCITEGIC>MOL_PROPERTY
W(SA)
SciTegic.value.DoubleValue
2.349

@<SCITEGIC>MOL_PROPERTY
Valence
SciTegic.value.DoubleValue
9.200

@<SCITEGIC>MOL_PROPERTY
Coulomb
SciTegic.value.DoubleValue
2.437

@<SCITEGIC>MOL_PROPERTY
VdW
SciTegic.value.DoubleValue
0.400

@<SCITEGIC>MOL_PROPERTY
VdW6
SciTegic.value.DoubleValue
-11.697

@<SCITEGIC>MOL_PROPERTY
VdW12
SciTegic.value.DoubleValue
12.097

@<SCITEGIC>MOL_PROPERTY
Bond
SciTegic.value.DoubleValue
0.260

@<SCITEGIC>MOL_PROPERTY
Angle
SciTegic.value.DoubleValue
3.325

@<SCITEGIC>MOL_PROPERTY
Pdih
SciTegic.value.DoubleValue
5.612

@<SCITEGIC>MOL_PROPERTY
Idih
SciTegic.value.DoubleValue
0.002

@<SCITEGIC>MOL_PROPERTY
Tether
SciTegic.value.DoubleValue
0.000

@<TRIPOS>MOLECULE
guest-8_vm2.mol2 : vm2 ligand conformer 134
          25          24           1
SMALL
USER_CHARGES
 
@<TRIPOS>ATOM
       1    C1      19.694817   19.342214   27.083399 C.2        1 MOL1         0.6168
       2    O1      20.379790   18.802107   27.929505 O.co2      1 MOL1        -0.6703
       3    O2      18.479748   19.340699   27.099114 O.co2      1 MOL1        -0.6703
       4    C2      20.399209   20.046163   25.929080 C.3        1 MOL1        -0.1963
       5    H1      21.337810   20.467304   26.308668 H          1 MOL1         0.0750
       6    H2      19.771939   20.886782   25.608966 H          1 MOL1         0.0750
       7    C3      20.680006   19.104755   24.732216 C.3        1 MOL1        -0.1860
       8    H3      21.301052   18.263397   25.069055 H          1 MOL1         0.0752
       9    H4      19.729783   18.679293   24.384469 H          1 MOL1         0.0752
      10    C4      21.390074   19.845076   23.574951 C.3        1 MOL1        -0.1858
      11    H5      22.319572   20.288462   23.957147 H          1 MOL1         0.0752
      12    H6      20.776764   20.685733   23.227528 H          1 MOL1         0.0752
      13    C5      21.745640   18.924382   22.382827 C.3        1 MOL1        -0.1858
      14    H7      22.324412   19.504741   21.651528 H          1 MOL1         0.0752
      15    H8      22.420718   18.134681   22.739605 H          1 MOL1         0.0752
      16    C6      20.548030   18.258542   21.654366 C.3        1 MOL1        -0.1858
      17    H9      19.995027   17.599659   22.336385 H          1 MOL1         0.0752
      18    H10     20.966242   17.595255   20.885033 H          1 MOL1         0.0752
      19    C7      19.582425   19.246431   20.951991 C.3        1 MOL1        -0.1834
      20    H11     20.122297   20.151813   20.642401 H          1 MOL1         0.0752
      21    H12     19.217540   18.778090   20.027463 H          1 MOL1         0.0752
      22    C8      18.353262   19.623630   21.808552 C.3        1 MOL1        -0.2849
      23    H13     18.639861   20.150129   22.725508 H          1 MOL1         0.0764
      24    H14     17.680312   20.281696   21.243980 H          1 MOL1         0.0764
      25    H15     17.785785   18.728486   22.094179 H          1 MOL1         0.0764
@<TRIPOS>BOND
    1     1     2    1
    2     1     3    2
    3     1     4    1
    4     4     5    1
    5     4     6    1
    6     4     7    1
    7     7     8    1
    8     7     9    1
    9     7    10    1
   10    10    11    1
   11    10    12    1
   12    10    13    1
   13    13    14    1
   14    13    15    1
   15    13    16    1
   16    16    17    1
   17    16    18    1
   18    16    19    1
   19    19    20    1
   20    19    21    1
   21    19    22    1
   22    22    23    1
   23    22    24    1
   24    22    25    1
@<TRIPOS>SUBSTRUCTURE
       1 MOL1            1 RESIDUE      1      MOL     
@<SCITEGIC>MOL_PROPERTY
VM2 Rank
SciTegic.value.IntegerValue
134

@<SCITEGIC>MOL_PROPERTY
Conf_Id
SciTegic.value.IntegerValue
1275

@<SCITEGIC>MOL_PROPERTY
Probability
SciTegic.value.DoubleValue
0.00

@<SCITEGIC>MOL_PROPERTY
Sum Probability
SciTegic.value.DoubleValue
99.93

@<SCITEGIC>MOL_PROPERTY
Delta G
SciTegic.value.DoubleValue
5.084

@<SCITEGIC>MOL_PROPERTY
G
SciTegic.value.DoubleValue
-2.878

@<SCITEGIC>MOL_PROPERTY
E
SciTegic.value.DoubleValue
-28.089

@<SCITEGIC>MOL_PROPERTY
-TS
SciTegic.value.DoubleValue
25.210

@<SCITEGIC>MOL_PROPERTY
U+W
SciTegic.value.DoubleValue
-48.657

@<SCITEGIC>MOL_PROPERTY
U
SciTegic.value.DoubleValue
11.357

@<SCITEGIC>MOL_PROPERTY
W
SciTegic.value.DoubleValue
-60.013

@<SCITEGIC>MOL_PROPERTY
W(PB)
SciTegic.value.DoubleValue
-62.398

@<SCITEGIC>MOL_PROPERTY
W(SA)
SciTegic.value.DoubleValue
2.385

@<SCITEGIC>MOL_PROPERTY
Valence
SciTegic.value.DoubleValue
11.109

@<SCITEGIC>MOL_PROPERTY
Coulomb
SciTegic.value.DoubleValue
-0.409

@<SCITEGIC>MOL_PROPERTY
VdW
SciTegic.value.DoubleValue
0.657

@<SCITEGIC>MOL_PROPERTY
VdW6
SciTegic.value.DoubleValue
-10.516

@<SCITEGIC>MOL_PROPERTY
VdW12
SciTegic.value.DoubleValue
11.173

@<SCITEGIC>MOL_PROPERTY
Bond
SciTegic.value.DoubleValue
0.235

@<SCITEGIC>MOL_PROPERTY
Angle
SciTegic.value.DoubleValue
3.588

@<SCITEGIC>MOL_PROPERTY
Pdih
SciTegic.value.DoubleValue
7.286

@<SCITEGIC>MOL_PROPERTY
Idih
SciTegic.value.DoubleValue
0.000

@<SCITEGIC>MOL_PROPERTY
Tether
SciTegic.value.DoubleValue
0.000

@<TRIPOS>MOLECULE
guest-8_vm2.mol2 : vm2 ligand conformer 135
          25          24           1
SMALL
USER_CHARGES
 
@<TRIPOS>ATOM
       1    C1      19.651768   19.725349   26.715758 C.2        1 MOL1         0.6168
       2    O1      20.125284   19.661196   27.833184 O.co2      1 MOL1        -0.6703
       3    O2      18.869737   20.586368   26.364110 O.co2      1 MOL1        -0.6703
       4    C2      20.078232   18.678860   25.692871 C.3        1 MOL1        -0.1963
       5    H1      19.230103   18.503739   25.022167 H          1 MOL1         0.0750
       6    H2      20.268960   17.739403   26.224966 H          1 MOL1         0.0750
       7    C3      21.336176   19.102916   24.890833 C.3        1 MOL1        -0.1860
       8    H3      21.150175   20.051344   24.371166 H          1 MOL1         0.0752
       9    H4      22.150352   19.304799   25.600387 H          1 MOL1         0.0752
      10    C4      21.815848   18.029436   23.884461 C.3        1 MOL1        -0.1858
      11    H5      22.067777   17.115806   24.439941 H          1 MOL1         0.0752
      12    H6      22.754849   18.370399   23.427578 H          1 MOL1         0.0752
      13    C5      20.816784   17.661988   22.755550 C.3        1 MOL1        -0.1858
      14    H7      21.273074   16.850822   22.171969 H          1 MOL1         0.0752
      15    H8      19.895604   17.235866   23.173690 H          1 MOL1         0.0752
      16    C6      20.486166   18.818826   21.777575 C.3        1 MOL1        -0.1858
      17    H9      20.364189   18.394596   20.771562 H          1 MOL1         0.0752
      18    H10     21.334319   19.514027   21.714471 H          1 MOL1         0.0752
      19    C7      19.190613   19.584342   22.133529 C.3        1 MOL1        -0.1834
      20    H11     18.347259   18.881693   22.177648 H          1 MOL1         0.0752
      21    H12     19.271573   20.041746   23.126755 H          1 MOL1         0.0752
      22    C8      18.882392   20.684718   21.098129 C.3        1 MOL1        -0.2849
      23    H13     17.959347   21.216634   21.362819 H          1 MOL1         0.0764
      24    H14     19.696347   21.420101   21.053750 H          1 MOL1         0.0764
      25    H15     18.751492   20.256494   20.095765 H          1 MOL1         0.0764
@<TRIPOS>BOND
    1     1     2    1
    2     1     3    2
    3     1     4    1
    4     4     5    1
    5     4     6    1
    6     4     7    1
    7     7     8    1
    8     7     9    1
    9     7    10    1
   10    10    11    1
   11    10    12    1
   12    10    13    1
   13    13    14    1
   14    13    15    1
   15    13    16    1
   16    16    17    1
   17    16    18    1
   18    16    19    1
   19    19    20    1
   20    19    21    1
   21    19    22    1
   22    22    23    1
   23    22    24    1
   24    22    25    1
@<TRIPOS>SUBSTRUCTURE
       1 MOL1            1 RESIDUE      1      MOL     
@<SCITEGIC>MOL_PROPERTY
VM2 Rank
SciTegic.value.IntegerValue
135

@<SCITEGIC>MOL_PROPERTY
Conf_Id
SciTegic.value.IntegerValue
246

@<SCITEGIC>MOL_PROPERTY
Probability
SciTegic.value.DoubleValue
0.00

@<SCITEGIC>MOL_PROPERTY
Sum Probability
SciTegic.value.DoubleValue
99.93

@<SCITEGIC>MOL_PROPERTY
Delta G
SciTegic.value.DoubleValue
5.125

@<SCITEGIC>MOL_PROPERTY
G
SciTegic.value.DoubleValue
-2.837

@<SCITEGIC>MOL_PROPERTY
E
SciTegic.value.DoubleValue
-28.118

@<SCITEGIC>MOL_PROPERTY
-TS
SciTegic.value.DoubleValue
25.281

@<SCITEGIC>MOL_PROPERTY
U+W
SciTegic.value.DoubleValue
-48.685

@<SCITEGIC>MOL_PROPERTY
U
SciTegic.value.DoubleValue
11.615

@<SCITEGIC>MOL_PROPERTY
W
SciTegic.value.DoubleValue
-60.301

@<SCITEGIC>MOL_PROPERTY
W(PB)
SciTegic.value.DoubleValue
-62.668

@<SCITEGIC>MOL_PROPERTY
W(SA)
SciTegic.value.DoubleValue
2.368

@<SCITEGIC>MOL_PROPERTY
Valence
SciTegic.value.DoubleValue
11.123

@<SCITEGIC>MOL_PROPERTY
Coulomb
SciTegic.value.DoubleValue
-0.039

@<SCITEGIC>MOL_PROPERTY
VdW
SciTegic.value.DoubleValue
0.532

@<SCITEGIC>MOL_PROPERTY
VdW6
SciTegic.value.DoubleValue
-10.780

@<SCITEGIC>MOL_PROPERTY
VdW12
SciTegic.value.DoubleValue
11.312

@<SCITEGIC>MOL_PROPERTY
Bond
SciTegic.value.DoubleValue
0.247

@<SCITEGIC>MOL_PROPERTY
Angle
SciTegic.value.DoubleValue
3.570

@<SCITEGIC>MOL_PROPERTY
Pdih
SciTegic.value.DoubleValue
7.306

@<SCITEGIC>MOL_PROPERTY
Idih
SciTegic.value.DoubleValue
0.001

@<SCITEGIC>MOL_PROPERTY
Tether
SciTegic.value.DoubleValue
0.000

@<TRIPOS>MOLECULE
guest-8_vm2.mol2 : vm2 ligand conformer 136
          25          24           1
SMALL
USER_CHARGES
 
@<TRIPOS>ATOM
       1    C1      20.590587   19.784810   26.704867 C.2        1 MOL1         0.6168
       2    O1      21.249422   20.737069   26.336461 O.co2      1 MOL1        -0.6703
       3    O2      20.154818   19.663161   27.832822 O.co2      1 MOL1        -0.6703
       4    C2      20.276123   18.691294   25.690646 C.3        1 MOL1        -0.1963
       5    H1      20.217695   17.736109   26.225709 H          1 MOL1         0.0750
       6    H2      21.123923   18.623504   25.000375 H          1 MOL1         0.0750
       7    C3      18.956638   18.952057   24.918332 C.3        1 MOL1        -0.1860
       8    H3      18.140008   19.050588   25.646694 H          1 MOL1         0.0752
       9    H4      19.009483   19.915631   24.395937 H          1 MOL1         0.0752
      10    C4      18.593286   17.825201   23.921638 C.3        1 MOL1        -0.1858
      11    H5      17.608520   18.044294   23.486948 H          1 MOL1         0.0752
      12    H6      18.471491   16.887867   24.481382 H          1 MOL1         0.0752
      13    C5      19.604538   17.585196   22.769528 C.3        1 MOL1        -0.1858
      14    H7      20.581500   17.279352   23.165757 H          1 MOL1         0.0752
      15    H8      19.240999   16.722096   22.195372 H          1 MOL1         0.0752
      16    C6      19.763919   18.773130   21.785949 C.3        1 MOL1        -0.1858
      17    H9      18.833596   19.355660   21.743450 H          1 MOL1         0.0752
      18    H10     19.915237   18.366272   20.776751 H          1 MOL1         0.0752
      19    C7      20.960378   19.696502   22.113127 C.3        1 MOL1        -0.1834
      20    H11     20.845297   20.141359   23.108684 H          1 MOL1         0.0752
      21    H12     21.886453   19.105957   22.136663 H          1 MOL1         0.0752
      22    C8      21.103291   20.825582   21.072629 C.3        1 MOL1        -0.2849
      23    H13     20.202258   21.452338   21.048238 H          1 MOL1         0.0764
      24    H14     21.957726   21.470055   21.316764 H          1 MOL1         0.0764
      25    H15     21.263958   20.415954   20.066828 H          1 MOL1         0.0764
@<TRIPOS>BOND
    1     1     2    1
    2     1     3    2
    3     1     4    1
    4     4     5    1
    5     4     6    1
    6     4     7    1
    7     7     8    1
    8     7     9    1
    9     7    10    1
   10    10    11    1
   11    10    12    1
   12    10    13    1
   13    13    14    1
   14    13    15    1
   15    13    16    1
   16    16    17    1
   17    16    18    1
   18    16    19    1
   19    19    20    1
   20    19    21    1
   21    19    22    1
   22    22    23    1
   23    22    24    1
   24    22    25    1
@<TRIPOS>SUBSTRUCTURE
       1 MOL1            1 RESIDUE      1      MOL     
@<SCITEGIC>MOL_PROPERTY
VM2 Rank
SciTegic.value.IntegerValue
136

@<SCITEGIC>MOL_PROPERTY
Conf_Id
SciTegic.value.IntegerValue
1299

@<SCITEGIC>MOL_PROPERTY
Probability
SciTegic.value.DoubleValue
0.00

@<SCITEGIC>MOL_PROPERTY
Sum Probability
SciTegic.value.DoubleValue
99.94

@<SCITEGIC>MOL_PROPERTY
Delta G
SciTegic.value.DoubleValue
5.141

@<SCITEGIC>MOL_PROPERTY
G
SciTegic.value.DoubleValue
-2.822

@<SCITEGIC>MOL_PROPERTY
E
SciTegic.value.DoubleValue
-28.103

@<SCITEGIC>MOL_PROPERTY
-TS
SciTegic.value.DoubleValue
25.281

@<SCITEGIC>MOL_PROPERTY
U+W
SciTegic.value.DoubleValue
-48.670

@<SCITEGIC>MOL_PROPERTY
U
SciTegic.value.DoubleValue
11.616

@<SCITEGIC>MOL_PROPERTY
W
SciTegic.value.DoubleValue
-60.286

@<SCITEGIC>MOL_PROPERTY
W(PB)
SciTegic.value.DoubleValue
-62.670

@<SCITEGIC>MOL_PROPERTY
W(SA)
SciTegic.value.DoubleValue
2.384

@<SCITEGIC>MOL_PROPERTY
Valence
SciTegic.value.DoubleValue
11.123

@<SCITEGIC>MOL_PROPERTY
Coulomb
SciTegic.value.DoubleValue
-0.039

@<SCITEGIC>MOL_PROPERTY
VdW
SciTegic.value.DoubleValue
0.532

@<SCITEGIC>MOL_PROPERTY
VdW6
SciTegic.value.DoubleValue
-10.780

@<SCITEGIC>MOL_PROPERTY
VdW12
SciTegic.value.DoubleValue
11.312

@<SCITEGIC>MOL_PROPERTY
Bond
SciTegic.value.DoubleValue
0.247

@<SCITEGIC>MOL_PROPERTY
Angle
SciTegic.value.DoubleValue
3.569

@<SCITEGIC>MOL_PROPERTY
Pdih
SciTegic.value.DoubleValue
7.306

@<SCITEGIC>MOL_PROPERTY
Idih
SciTegic.value.DoubleValue
0.001

@<SCITEGIC>MOL_PROPERTY
Tether
SciTegic.value.DoubleValue
0.000

@<TRIPOS>MOLECULE
guest-8_vm2.mol2 : vm2 ligand conformer 137
          25          24           1
SMALL
USER_CHARGES
 
@<TRIPOS>ATOM
       1    C1      19.621964   18.998169   26.490525 C.2        1 MOL1         0.6168
       2    O1      20.079471   18.156466   27.238895 O.co2      1 MOL1        -0.6703
       3    O2      18.518337   18.922601   25.987455 O.co2      1 MOL1        -0.6703
       4    C2      20.466874   20.235373   26.198242 C.3        1 MOL1        -0.1963
       5    H1      20.765073   20.660876   27.163393 H          1 MOL1         0.0750
       6    H2      19.833627   20.985413   25.710871 H          1 MOL1         0.0750
       7    C3      21.735301   19.953425   25.346977 C.3        1 MOL1        -0.1860
       8    H3      22.308560   20.883605   25.235627 H          1 MOL1         0.0752
       9    H4      22.382567   19.257124   25.897876 H          1 MOL1         0.0752
      10    C4      21.445252   19.361637   23.945923 C.3        1 MOL1        -0.1858
      11    H5      20.923068   18.402198   24.058530 H          1 MOL1         0.0752
      12    H6      22.402215   19.139552   23.454715 H          1 MOL1         0.0752
      13    C5      20.618879   20.306313   23.040016 C.3        1 MOL1        -0.1858
      14    H7      19.612017   20.438884   23.456071 H          1 MOL1         0.0752
      15    H8      21.084803   21.300867   23.039215 H          1 MOL1         0.0752
      16    C6      20.511532   19.814317   21.574570 C.3        1 MOL1        -0.1858
      17    H9      21.517067   19.787928   21.133216 H          1 MOL1         0.0752
      18    H10     19.945369   20.555895   20.994842 H          1 MOL1         0.0752
      19    C7      19.850352   18.425573   21.391907 C.3        1 MOL1        -0.1834
      20    H11     19.839855   18.180907   20.320945 H          1 MOL1         0.0752
      21    H12     20.459926   17.650243   21.874614 H          1 MOL1         0.0752
      22    C8      18.405038   18.360127   21.931490 C.3        1 MOL1        -0.2849
      23    H13     17.950121   17.389452   21.696144 H          1 MOL1         0.0764
      24    H14     18.381074   18.482056   23.022609 H          1 MOL1         0.0764
      25    H15     17.781822   19.144644   21.483291 H          1 MOL1         0.0764
@<TRIPOS>BOND
    1     1     2    1
    2     1     3    2
    3     1     4    1
    4     4     5    1
    5     4     6    1
    6     4     7    1
    7     7     8    1
    8     7     9    1
    9     7    10    1
   10    10    11    1
   11    10    12    1
   12    10    13    1
   13    13    14    1
   14    13    15    1
   15    13    16    1
   16    16    17    1
   17    16    18    1
   18    16    19    1
   19    19    20    1
   20    19    21    1
   21    19    22    1
   22    22    23    1
   23    22    24    1
   24    22    25    1
@<TRIPOS>SUBSTRUCTURE
       1 MOL1            1 RESIDUE      1      MOL     
@<SCITEGIC>MOL_PROPERTY
VM2 Rank
SciTegic.value.IntegerValue
137

@<SCITEGIC>MOL_PROPERTY
Conf_Id
SciTegic.value.IntegerValue
1356

@<SCITEGIC>MOL_PROPERTY
Probability
SciTegic.value.DoubleValue
0.00

@<SCITEGIC>MOL_PROPERTY
Sum Probability
SciTegic.value.DoubleValue
99.94

@<SCITEGIC>MOL_PROPERTY
Delta G
SciTegic.value.DoubleValue
5.149

@<SCITEGIC>MOL_PROPERTY
G
SciTegic.value.DoubleValue
-2.813

@<SCITEGIC>MOL_PROPERTY
E
SciTegic.value.DoubleValue
-28.317

@<SCITEGIC>MOL_PROPERTY
-TS
SciTegic.value.DoubleValue
25.504

@<SCITEGIC>MOL_PROPERTY
U+W
SciTegic.value.DoubleValue
-48.885

@<SCITEGIC>MOL_PROPERTY
U
SciTegic.value.DoubleValue
12.037

@<SCITEGIC>MOL_PROPERTY
W
SciTegic.value.DoubleValue
-60.922

@<SCITEGIC>MOL_PROPERTY
W(PB)
SciTegic.value.DoubleValue
-63.260

@<SCITEGIC>MOL_PROPERTY
W(SA)
SciTegic.value.DoubleValue
2.339

@<SCITEGIC>MOL_PROPERTY
Valence
SciTegic.value.DoubleValue
9.200

@<SCITEGIC>MOL_PROPERTY
Coulomb
SciTegic.value.DoubleValue
2.437

@<SCITEGIC>MOL_PROPERTY
VdW
SciTegic.value.DoubleValue
0.400

@<SCITEGIC>MOL_PROPERTY
VdW6
SciTegic.value.DoubleValue
-11.698

@<SCITEGIC>MOL_PROPERTY
VdW12
SciTegic.value.DoubleValue
12.098

@<SCITEGIC>MOL_PROPERTY
Bond
SciTegic.value.DoubleValue
0.260

@<SCITEGIC>MOL_PROPERTY
Angle
SciTegic.value.DoubleValue
3.326

@<SCITEGIC>MOL_PROPERTY
Pdih
SciTegic.value.DoubleValue
5.612

@<SCITEGIC>MOL_PROPERTY
Idih
SciTegic.value.DoubleValue
0.002

@<SCITEGIC>MOL_PROPERTY
Tether
SciTegic.value.DoubleValue
0.000

@<TRIPOS>MOLECULE
guest-8_vm2.mol2 : vm2 ligand conformer 138
          25          24           1
SMALL
USER_CHARGES
 
@<TRIPOS>ATOM
       1    C1      20.283885   19.536074   27.191750 C.2        1 MOL1         0.6168
       2    O1      21.340702   19.010319   27.481167 O.co2      1 MOL1        -0.6703
       3    O2      19.272636   19.424090   27.856561 O.co2      1 MOL1        -0.6703
       4    C2      20.225524   20.398690   25.934202 C.3        1 MOL1        -0.1963
       5    H1      21.248184   20.678525   25.653754 H          1 MOL1         0.0750
       6    H2      19.703455   21.326246   26.196893 H          1 MOL1         0.0750
       7    C3      19.508793   19.722145   24.736865 C.3        1 MOL1        -0.1860
       8    H3      18.496352   19.424107   25.042659 H          1 MOL1         0.0752
       9    H4      19.385913   20.461617   23.937040 H          1 MOL1         0.0752
      10    C4      20.276504   18.486561   24.206607 C.3        1 MOL1        -0.1858
      11    H5      20.328270   17.740344   25.011386 H          1 MOL1         0.0752
      12    H6      21.316107   18.753230   23.972177 H          1 MOL1         0.0752
      13    C5      19.603959   17.830718   22.973976 C.3        1 MOL1        -0.1858
      14    H7      19.725753   16.742114   23.057351 H          1 MOL1         0.0752
      15    H8      18.520441   18.011275   22.989683 H          1 MOL1         0.0752
      16    C6      20.195666   18.262172   21.608411 C.3        1 MOL1        -0.1858
      17    H9      19.700692   17.679924   20.819220 H          1 MOL1         0.0752
      18    H10     21.259436   17.990616   21.569804 H          1 MOL1         0.0752
      19    C7      20.039063   19.765952   21.294121 C.3        1 MOL1        -0.1834
      20    H11     18.988193   20.063229   21.413818 H          1 MOL1         0.0752
      21    H12     20.628408   20.358635   22.005975 H          1 MOL1         0.0752
      22    C8      20.506268   20.097279   19.862339 C.3        1 MOL1        -0.2849
      23    H13     19.914038   19.548566   19.118379 H          1 MOL1         0.0764
      24    H14     20.396041   21.170236   19.658323 H          1 MOL1         0.0764
      25    H15     21.562600   19.832463   19.723149 H          1 MOL1         0.0764
@<TRIPOS>BOND
    1     1     2    1
    2     1     3    2
    3     1     4    1
    4     4     5    1
    5     4     6    1
    6     4     7    1
    7     7     8    1
    8     7     9    1
    9     7    10    1
   10    10    11    1
   11    10    12    1
   12    10    13    1
   13    13    14    1
   14    13    15    1
   15    13    16    1
   16    16    17    1
   17    16    18    1
   18    16    19    1
   19    19    20    1
   20    19    21    1
   21    19    22    1
   22    22    23    1
   23    22    24    1
   24    22    25    1
@<TRIPOS>SUBSTRUCTURE
       1 MOL1            1 RESIDUE      1      MOL     
@<SCITEGIC>MOL_PROPERTY
VM2 Rank
SciTegic.value.IntegerValue
138

@<SCITEGIC>MOL_PROPERTY
Conf_Id
SciTegic.value.IntegerValue
1334

@<SCITEGIC>MOL_PROPERTY
Probability
SciTegic.value.DoubleValue
0.00

@<SCITEGIC>MOL_PROPERTY
Sum Probability
SciTegic.value.DoubleValue
99.95

@<SCITEGIC>MOL_PROPERTY
Delta G
SciTegic.value.DoubleValue
5.262

@<SCITEGIC>MOL_PROPERTY
G
SciTegic.value.DoubleValue
-2.700

@<SCITEGIC>MOL_PROPERTY
E
SciTegic.value.DoubleValue
-27.780

@<SCITEGIC>MOL_PROPERTY
-TS
SciTegic.value.DoubleValue
25.080

@<SCITEGIC>MOL_PROPERTY
U+W
SciTegic.value.DoubleValue
-48.348

@<SCITEGIC>MOL_PROPERTY
U
SciTegic.value.DoubleValue
11.345

@<SCITEGIC>MOL_PROPERTY
W
SciTegic.value.DoubleValue
-59.693

@<SCITEGIC>MOL_PROPERTY
W(PB)
SciTegic.value.DoubleValue
-62.127

@<SCITEGIC>MOL_PROPERTY
W(SA)
SciTegic.value.DoubleValue
2.434

@<SCITEGIC>MOL_PROPERTY
Valence
SciTegic.value.DoubleValue
10.839

@<SCITEGIC>MOL_PROPERTY
Coulomb
SciTegic.value.DoubleValue
-0.332

@<SCITEGIC>MOL_PROPERTY
VdW
SciTegic.value.DoubleValue
0.838

@<SCITEGIC>MOL_PROPERTY
VdW6
SciTegic.value.DoubleValue
-10.154

@<SCITEGIC>MOL_PROPERTY
VdW12
SciTegic.value.DoubleValue
10.992

@<SCITEGIC>MOL_PROPERTY
Bond
SciTegic.value.DoubleValue
0.219

@<SCITEGIC>MOL_PROPERTY
Angle
SciTegic.value.DoubleValue
3.144

@<SCITEGIC>MOL_PROPERTY
Pdih
SciTegic.value.DoubleValue
7.476

@<SCITEGIC>MOL_PROPERTY
Idih
SciTegic.value.DoubleValue
0.000

@<SCITEGIC>MOL_PROPERTY
Tether
SciTegic.value.DoubleValue
0.000

@<TRIPOS>MOLECULE
guest-8_vm2.mol2 : vm2 ligand conformer 139
          25          24           1
SMALL
USER_CHARGES
 
@<TRIPOS>ATOM
       1    C1      20.381706   19.264285   27.178230 C.2        1 MOL1         0.6168
       2    O1      21.325698   19.983038   27.441681 O.co2      1 MOL1        -0.6703
       3    O2      19.324525   19.296155   27.776941 O.co2      1 MOL1        -0.6703
       4    C2      20.541796   18.252990   26.046485 C.3        1 MOL1        -0.1963
       5    H1      19.773119   17.478525   26.156641 H          1 MOL1         0.0750
       6    H2      21.511250   17.759833   26.183919 H          1 MOL1         0.0750
       7    C3      20.475128   18.875903   24.627669 C.3        1 MOL1        -0.1860
       8    H3      21.218767   19.680779   24.547345 H          1 MOL1         0.0752
       9    H4      20.754609   18.104937   23.898494 H          1 MOL1         0.0752
      10    C4      19.069761   19.421260   24.282687 C.3        1 MOL1        -0.1858
      11    H5      18.747040   20.113381   25.072425 H          1 MOL1         0.0752
      12    H6      18.346824   18.594165   24.286031 H          1 MOL1         0.0752
      13    C5      18.992068   20.167349   22.926979 C.3        1 MOL1        -0.1858
      14    H7      17.967842   20.549620   22.818980 H          1 MOL1         0.0752
      15    H8      19.640193   21.054130   22.947659 H          1 MOL1         0.0752
      16    C6      19.313963   19.294349   21.687360 C.3        1 MOL1        -0.1858
      17    H9      18.650448   19.597504   20.865910 H          1 MOL1         0.0752
      18    H10     19.079945   18.241484   21.896052 H          1 MOL1         0.0752
      19    C7      20.775275   19.435748   21.202036 C.3        1 MOL1        -0.1834
      20    H11     20.975424   20.483837   20.940067 H          1 MOL1         0.0752
      21    H12     21.475440   19.174254   22.004582 H          1 MOL1         0.0752
      22    C8      21.053079   18.542922   19.975933 C.3        1 MOL1        -0.2849
      23    H13     20.393631   18.807818   19.139114 H          1 MOL1         0.0764
      24    H14     22.091401   18.659950   19.639476 H          1 MOL1         0.0764
      25    H15     20.892409   17.484062   20.217461 H          1 MOL1         0.0764
@<TRIPOS>BOND
    1     1     2    1
    2     1     3    2
    3     1     4    1
    4     4     5    1
    5     4     6    1
    6     4     7    1
    7     7     8    1
    8     7     9    1
    9     7    10    1
   10    10    11    1
   11    10    12    1
   12    10    13    1
   13    13    14    1
   14    13    15    1
   15    13    16    1
   16    16    17    1
   17    16    18    1
   18    16    19    1
   19    19    20    1
   20    19    21    1
   21    19    22    1
   22    22    23    1
   23    22    24    1
   24    22    25    1
@<TRIPOS>SUBSTRUCTURE
       1 MOL1            1 RESIDUE      1      MOL     
@<SCITEGIC>MOL_PROPERTY
VM2 Rank
SciTegic.value.IntegerValue
139

@<SCITEGIC>MOL_PROPERTY
Conf_Id
SciTegic.value.IntegerValue
860

@<SCITEGIC>MOL_PROPERTY
Probability
SciTegic.value.DoubleValue
0.00

@<SCITEGIC>MOL_PROPERTY
Sum Probability
SciTegic.value.DoubleValue
99.95

@<SCITEGIC>MOL_PROPERTY
Delta G
SciTegic.value.DoubleValue
5.291

@<SCITEGIC>MOL_PROPERTY
G
SciTegic.value.DoubleValue
-2.671

@<SCITEGIC>MOL_PROPERTY
E
SciTegic.value.DoubleValue
-27.782

@<SCITEGIC>MOL_PROPERTY
-TS
SciTegic.value.DoubleValue
25.110

@<SCITEGIC>MOL_PROPERTY
U+W
SciTegic.value.DoubleValue
-48.349

@<SCITEGIC>MOL_PROPERTY
U
SciTegic.value.DoubleValue
11.468

@<SCITEGIC>MOL_PROPERTY
W
SciTegic.value.DoubleValue
-59.817

@<SCITEGIC>MOL_PROPERTY
W(PB)
SciTegic.value.DoubleValue
-62.229

@<SCITEGIC>MOL_PROPERTY
W(SA)
SciTegic.value.DoubleValue
2.412

@<SCITEGIC>MOL_PROPERTY
Valence
SciTegic.value.DoubleValue
10.870

@<SCITEGIC>MOL_PROPERTY
Coulomb
SciTegic.value.DoubleValue
-0.266

@<SCITEGIC>MOL_PROPERTY
VdW
SciTegic.value.DoubleValue
0.864

@<SCITEGIC>MOL_PROPERTY
VdW6
SciTegic.value.DoubleValue
-10.146

@<SCITEGIC>MOL_PROPERTY
VdW12
SciTegic.value.DoubleValue
11.010

@<SCITEGIC>MOL_PROPERTY
Bond
SciTegic.value.DoubleValue
0.218

@<SCITEGIC>MOL_PROPERTY
Angle
SciTegic.value.DoubleValue
3.178

@<SCITEGIC>MOL_PROPERTY
Pdih
SciTegic.value.DoubleValue
7.473

@<SCITEGIC>MOL_PROPERTY
Idih
SciTegic.value.DoubleValue
0.001

@<SCITEGIC>MOL_PROPERTY
Tether
SciTegic.value.DoubleValue
0.000

@<TRIPOS>MOLECULE
guest-8_vm2.mol2 : vm2 ligand conformer 140
          25          24           1
SMALL
USER_CHARGES
 
@<TRIPOS>ATOM
       1    C1      19.819578   19.318150   27.105478 C.2        1 MOL1         0.6168
       2    O1      20.607444   19.906307   27.819965 O.co2      1 MOL1        -0.6703
       3    O2      18.644815   19.615153   27.012205 O.co2      1 MOL1        -0.6703
       4    C2      20.331469   18.129024   26.297410 C.3        1 MOL1        -0.1963
       5    H1      19.473431   17.518204   25.991598 H          1 MOL1         0.0750
       6    H2      20.937048   17.511282   26.970909 H          1 MOL1         0.0750
       7    C3      21.175572   18.525125   25.058204 C.3        1 MOL1        -0.1860
       8    H3      22.015118   19.158576   25.376761 H          1 MOL1         0.0752
       9    H4      21.612489   17.617610   24.620016 H          1 MOL1         0.0752
      10    C4      20.343873   19.259337   23.982541 C.3        1 MOL1        -0.1858
      11    H5      19.919715   20.178563   24.409366 H          1 MOL1         0.0752
      12    H6      19.495004   18.630530   23.689108 H          1 MOL1         0.0752
      13    C5      21.200597   19.619320   22.745852 C.3        1 MOL1        -0.1858
      14    H7      22.018744   20.273881   23.076138 H          1 MOL1         0.0752
      15    H8      21.676113   18.718716   22.334098 H          1 MOL1         0.0752
      16    C6      20.402181   20.352132   21.637730 C.3        1 MOL1        -0.1858
      17    H9      21.064617   21.096559   21.175288 H          1 MOL1         0.0752
      18    H10     19.574016   20.923204   22.079217 H          1 MOL1         0.0752
      19    C7      19.872698   19.434483   20.507918 C.3        1 MOL1        -0.1834
      20    H11     19.397505   20.063136   19.742314 H          1 MOL1         0.0752
      21    H12     20.717058   18.934329   20.013828 H          1 MOL1         0.0752
      22    C8      18.854773   18.374971   20.978696 C.3        1 MOL1        -0.2849
      23    H13     18.030908   18.839951   21.535516 H          1 MOL1         0.0764
      24    H14     18.426027   17.845451   20.118158 H          1 MOL1         0.0764
      25    H15     19.332677   17.626180   21.622533 H          1 MOL1         0.0764
@<TRIPOS>BOND
    1     1     2    1
    2     1     3    2
    3     1     4    1
    4     4     5    1
    5     4     6    1
    6     4     7    1
    7     7     8    1
    8     7     9    1
    9     7    10    1
   10    10    11    1
   11    10    12    1
   12    10    13    1
   13    13    14    1
   14    13    15    1
   15    13    16    1
   16    16    17    1
   17    16    18    1
   18    16    19    1
   19    19    20    1
   20    19    21    1
   21    19    22    1
   22    22    23    1
   23    22    24    1
   24    22    25    1
@<TRIPOS>SUBSTRUCTURE
       1 MOL1            1 RESIDUE      1      MOL     
@<SCITEGIC>MOL_PROPERTY
VM2 Rank
SciTegic.value.IntegerValue
140

@<SCITEGIC>MOL_PROPERTY
Conf_Id
SciTegic.value.IntegerValue
135

@<SCITEGIC>MOL_PROPERTY
Probability
SciTegic.value.DoubleValue
0.00

@<SCITEGIC>MOL_PROPERTY
Sum Probability
SciTegic.value.DoubleValue
99.95

@<SCITEGIC>MOL_PROPERTY
Delta G
SciTegic.value.DoubleValue
5.301

@<SCITEGIC>MOL_PROPERTY
G
SciTegic.value.DoubleValue
-2.662

@<SCITEGIC>MOL_PROPERTY
E
SciTegic.value.DoubleValue
-27.708

@<SCITEGIC>MOL_PROPERTY
-TS
SciTegic.value.DoubleValue
25.046

@<SCITEGIC>MOL_PROPERTY
U+W
SciTegic.value.DoubleValue
-48.276

@<SCITEGIC>MOL_PROPERTY
U
SciTegic.value.DoubleValue
11.935

@<SCITEGIC>MOL_PROPERTY
W
SciTegic.value.DoubleValue
-60.211

@<SCITEGIC>MOL_PROPERTY
W(PB)
SciTegic.value.DoubleValue
-62.649

@<SCITEGIC>MOL_PROPERTY
W(SA)
SciTegic.value.DoubleValue
2.438

@<SCITEGIC>MOL_PROPERTY
Valence
SciTegic.value.DoubleValue
10.764

@<SCITEGIC>MOL_PROPERTY
Coulomb
SciTegic.value.DoubleValue
0.351

@<SCITEGIC>MOL_PROPERTY
VdW
SciTegic.value.DoubleValue
0.820

@<SCITEGIC>MOL_PROPERTY
VdW6
SciTegic.value.DoubleValue
-10.096

@<SCITEGIC>MOL_PROPERTY
VdW12
SciTegic.value.DoubleValue
10.916

@<SCITEGIC>MOL_PROPERTY
Bond
SciTegic.value.DoubleValue
0.214

@<SCITEGIC>MOL_PROPERTY
Angle
SciTegic.value.DoubleValue
3.143

@<SCITEGIC>MOL_PROPERTY
Pdih
SciTegic.value.DoubleValue
7.405

@<SCITEGIC>MOL_PROPERTY
Idih
SciTegic.value.DoubleValue
0.001

@<SCITEGIC>MOL_PROPERTY
Tether
SciTegic.value.DoubleValue
0.000

@<TRIPOS>MOLECULE
guest-8_vm2.mol2 : vm2 ligand conformer 141
          25          24           1
SMALL
USER_CHARGES
 
@<TRIPOS>ATOM
       1    C1      20.218924   19.092923   27.203830 C.2        1 MOL1         0.6168
       2    O1      21.384682   19.306851   27.472693 O.co2      1 MOL1        -0.6703
       3    O2      19.288184   19.526758   27.853943 O.co2      1 MOL1        -0.6703
       4    C2      19.904464   18.217050   25.994327 C.3        1 MOL1        -0.1963
       5    H1      19.139719   17.494572   26.302732 H          1 MOL1         0.0750
       6    H2      20.800995   17.640032   25.737272 H          1 MOL1         0.0750
       7    C3      19.402961   19.005609   24.756708 C.3        1 MOL1        -0.1860
       8    H3      19.066081   18.290749   23.997016 H          1 MOL1         0.0752
       9    H4      18.521562   19.598337   25.038104 H          1 MOL1         0.0752
      10    C4      20.489330   19.937652   24.166527 C.3        1 MOL1        -0.1858
      11    H5      21.406454   19.371020   23.955199 H          1 MOL1         0.0752
      12    H6      20.759856   20.679889   24.930130 H          1 MOL1         0.0752
      13    C5      20.024049   20.691432   22.894853 C.3        1 MOL1        -0.1858
      14    H7      18.934508   20.831011   22.911534 H          1 MOL1         0.0752
      15    H8      20.454218   21.701953   22.920226 H          1 MOL1         0.0752
      16    C6      20.456112   20.034869   21.559456 C.3        1 MOL1        -0.1858
      17    H9      21.552713   19.986766   21.514823 H          1 MOL1         0.0752
      18    H10     20.143195   20.691170   20.735936 H          1 MOL1         0.0752
      19    C7      19.871508   18.624805   21.325751 C.3        1 MOL1        -0.1834
      20    H11     20.271075   17.927258   22.073488 H          1 MOL1         0.0752
      21    H12     18.780488   18.649035   21.452691 H          1 MOL1         0.0752
      22    C8      20.212785   18.096053   19.917913 C.3        1 MOL1        -0.2849
      23    H13     19.797583   18.750646   19.140472 H          1 MOL1         0.0764
      24    H14     21.299560   18.038135   19.773326 H          1 MOL1         0.0764
      25    H15     19.797250   17.090633   19.771378 H          1 MOL1         0.0764
@<TRIPOS>BOND
    1     1     2    1
    2     1     3    2
    3     1     4    1
    4     4     5    1
    5     4     6    1
    6     4     7    1
    7     7     8    1
    8     7     9    1
    9     7    10    1
   10    10    11    1
   11    10    12    1
   12    10    13    1
   13    13    14    1
   14    13    15    1
   15    13    16    1
   16    16    17    1
   17    16    18    1
   18    16    19    1
   19    19    20    1
   20    19    21    1
   21    19    22    1
   22    22    23    1
   23    22    24    1
   24    22    25    1
@<TRIPOS>SUBSTRUCTURE
       1 MOL1            1 RESIDUE      1      MOL     
@<SCITEGIC>MOL_PROPERTY
VM2 Rank
SciTegic.value.IntegerValue
141

@<SCITEGIC>MOL_PROPERTY
Conf_Id
SciTegic.value.IntegerValue
1206

@<SCITEGIC>MOL_PROPERTY
Probability
SciTegic.value.DoubleValue
0.00

@<SCITEGIC>MOL_PROPERTY
Sum Probability
SciTegic.value.DoubleValue
99.96

@<SCITEGIC>MOL_PROPERTY
Delta G
SciTegic.value.DoubleValue
5.318

@<SCITEGIC>MOL_PROPERTY
G
SciTegic.value.DoubleValue
-2.644

@<SCITEGIC>MOL_PROPERTY
E
SciTegic.value.DoubleValue
-27.725

@<SCITEGIC>MOL_PROPERTY
-TS
SciTegic.value.DoubleValue
25.080

@<SCITEGIC>MOL_PROPERTY
U+W
SciTegic.value.DoubleValue
-48.292

@<SCITEGIC>MOL_PROPERTY
U
SciTegic.value.DoubleValue
11.345

@<SCITEGIC>MOL_PROPERTY
W
SciTegic.value.DoubleValue
-59.637

@<SCITEGIC>MOL_PROPERTY
W(PB)
SciTegic.value.DoubleValue
-62.099

@<SCITEGIC>MOL_PROPERTY
W(SA)
SciTegic.value.DoubleValue
2.462

@<SCITEGIC>MOL_PROPERTY
Valence
SciTegic.value.DoubleValue
10.839

@<SCITEGIC>MOL_PROPERTY
Coulomb
SciTegic.value.DoubleValue
-0.332

@<SCITEGIC>MOL_PROPERTY
VdW
SciTegic.value.DoubleValue
0.838

@<SCITEGIC>MOL_PROPERTY
VdW6
SciTegic.value.DoubleValue
-10.154

@<SCITEGIC>MOL_PROPERTY
VdW12
SciTegic.value.DoubleValue
10.992

@<SCITEGIC>MOL_PROPERTY
Bond
SciTegic.value.DoubleValue
0.219

@<SCITEGIC>MOL_PROPERTY
Angle
SciTegic.value.DoubleValue
3.144

@<SCITEGIC>MOL_PROPERTY
Pdih
SciTegic.value.DoubleValue
7.477

@<SCITEGIC>MOL_PROPERTY
Idih
SciTegic.value.DoubleValue
0.000

@<SCITEGIC>MOL_PROPERTY
Tether
SciTegic.value.DoubleValue
0.000

@<TRIPOS>MOLECULE
guest-8_vm2.mol2 : vm2 ligand conformer 142
          25          24           1
SMALL
USER_CHARGES
 
@<TRIPOS>ATOM
       1    C1      20.558492   19.251609   26.963121 C.2        1 MOL1         0.6168
       2    O1      21.767771   19.141180   26.912781 O.co2      1 MOL1        -0.6703
       3    O2      19.842213   18.515387   27.612766 O.co2      1 MOL1        -0.6703
       4    C2      19.907644   20.391107   26.184079 C.3        1 MOL1        -0.1963
       5    H1      20.505792   21.292936   26.359791 H          1 MOL1         0.0750
       6    H2      18.914132   20.581789   26.607514 H          1 MOL1         0.0750
       7    C3      19.800236   20.129815   24.659261 C.3        1 MOL1        -0.1860
       8    H3      19.441374   21.042157   24.164350 H          1 MOL1         0.0752
       9    H4      20.803499   19.921428   24.264682 H          1 MOL1         0.0752
      10    C4      18.849238   18.957537   24.324593 C.3        1 MOL1        -0.1858
      11    H5      17.890845   19.118292   24.836898 H          1 MOL1         0.0752
      12    H6      19.260741   18.023279   24.730918 H          1 MOL1         0.0752
      13    C5      18.568704   18.777787   22.811513 C.3        1 MOL1        -0.1858
      14    H7      17.844765   17.958352   22.705358 H          1 MOL1         0.0752
      15    H8      18.068908   19.670557   22.411549 H          1 MOL1         0.0752
      16    C6      19.816254   18.431960   21.959241 C.3        1 MOL1        -0.1858
      17    H9      19.516742   17.723014   21.175275 H          1 MOL1         0.0752
      18    H10     20.560876   17.909567   22.575424 H          1 MOL1         0.0752
      19    C7      20.452366   19.664335   21.275493 C.3        1 MOL1        -0.1834
      20    H11     19.712043   20.144287   20.620726 H          1 MOL1         0.0752
      21    H12     20.742579   20.412902   22.022481 H          1 MOL1         0.0752
      22    C8      21.690083   19.273282   20.443152 C.3        1 MOL1        -0.2849
      23    H13     21.424603   18.553164   19.658138 H          1 MOL1         0.0764
      24    H14     22.125834   20.157004   19.959251 H          1 MOL1         0.0764
      25    H15     22.462101   18.819414   21.078255 H          1 MOL1         0.0764
@<TRIPOS>BOND
    1     1     2    1
    2     1     3    2
    3     1     4    1
    4     4     5    1
    5     4     6    1
    6     4     7    1
    7     7     8    1
    8     7     9    1
    9     7    10    1
   10    10    11    1
   11    10    12    1
   12    10    13    1
   13    13    14    1
   14    13    15    1
   15    13    16    1
   16    16    17    1
   17    16    18    1
   18    16    19    1
   19    19    20    1
   20    19    21    1
   21    19    22    1
   22    22    23    1
   23    22    24    1
   24    22    25    1
@<TRIPOS>SUBSTRUCTURE
       1 MOL1            1 RESIDUE      1      MOL     
@<SCITEGIC>MOL_PROPERTY
VM2 Rank
SciTegic.value.IntegerValue
142

@<SCITEGIC>MOL_PROPERTY
Conf_Id
SciTegic.value.IntegerValue
729

@<SCITEGIC>MOL_PROPERTY
Probability
SciTegic.value.DoubleValue
0.00

@<SCITEGIC>MOL_PROPERTY
Sum Probability
SciTegic.value.DoubleValue
99.96

@<SCITEGIC>MOL_PROPERTY
Delta G
SciTegic.value.DoubleValue
5.327

@<SCITEGIC>MOL_PROPERTY
G
SciTegic.value.DoubleValue
-2.635

@<SCITEGIC>MOL_PROPERTY
E
SciTegic.value.DoubleValue
-27.713

@<SCITEGIC>MOL_PROPERTY
-TS
SciTegic.value.DoubleValue
25.078

@<SCITEGIC>MOL_PROPERTY
U+W
SciTegic.value.DoubleValue
-48.281

@<SCITEGIC>MOL_PROPERTY
U
SciTegic.value.DoubleValue
12.004

@<SCITEGIC>MOL_PROPERTY
W
SciTegic.value.DoubleValue
-60.284

@<SCITEGIC>MOL_PROPERTY
W(PB)
SciTegic.value.DoubleValue
-62.707

@<SCITEGIC>MOL_PROPERTY
W(SA)
SciTegic.value.DoubleValue
2.423

@<SCITEGIC>MOL_PROPERTY
Valence
SciTegic.value.DoubleValue
10.797

@<SCITEGIC>MOL_PROPERTY
Coulomb
SciTegic.value.DoubleValue
0.449

@<SCITEGIC>MOL_PROPERTY
VdW
SciTegic.value.DoubleValue
0.758

@<SCITEGIC>MOL_PROPERTY
VdW6
SciTegic.value.DoubleValue
-10.233

@<SCITEGIC>MOL_PROPERTY
VdW12
SciTegic.value.DoubleValue
10.991

@<SCITEGIC>MOL_PROPERTY
Bond
SciTegic.value.DoubleValue
0.215

@<SCITEGIC>MOL_PROPERTY
Angle
SciTegic.value.DoubleValue
3.136

@<SCITEGIC>MOL_PROPERTY
Pdih
SciTegic.value.DoubleValue
7.446

@<SCITEGIC>MOL_PROPERTY
Idih
SciTegic.value.DoubleValue
0.001

@<SCITEGIC>MOL_PROPERTY
Tether
SciTegic.value.DoubleValue
0.000

@<TRIPOS>MOLECULE
guest-8_vm2.mol2 : vm2 ligand conformer 143
          25          24           1
SMALL
USER_CHARGES
 
@<TRIPOS>ATOM
       1    C1      19.935476   19.235928   27.183331 C.2        1 MOL1         0.6168
       2    O1      20.993431   19.403046   27.757707 O.co2      1 MOL1        -0.6703
       3    O2      18.913979   19.829164   27.469252 O.co2      1 MOL1        -0.6703
       4    C2      19.879522   18.210643   26.054237 C.3        1 MOL1        -0.1963
       5    H1      18.984105   17.598359   26.213203 H          1 MOL1         0.0750
       6    H2      20.742820   17.540463   26.145739 H          1 MOL1         0.0750
       7    C3      19.833873   18.834689   24.635090 C.3        1 MOL1        -0.1860
       8    H3      19.637973   18.033290   23.911501 H          1 MOL1         0.0752
       9    H4      18.992318   19.538393   24.572958 H          1 MOL1         0.0752
      10    C4      21.150226   19.553683   24.258606 C.3        1 MOL1        -0.1858
      11    H5      21.972262   18.825136   24.243977 H          1 MOL1         0.0752
      12    H6      21.400559   20.282296   25.041756 H          1 MOL1         0.0752
      13    C5      21.101174   20.301715   22.902631 C.3        1 MOL1        -0.1858
      14    H7      20.346352   21.099051   22.939691 H          1 MOL1         0.0752
      15    H8      22.065796   20.810797   22.771576 H          1 MOL1         0.0752
      16    C6      20.864127   19.393216   21.669405 C.3        1 MOL1        -0.1858
      17    H9      21.234814   18.378904   21.870911 H          1 MOL1         0.0752
      18    H10     21.464497   19.777124   20.833281 H          1 MOL1         0.0752
      19    C7      19.385825   19.347132   21.218329 C.3        1 MOL1        -0.1834
      20    H11     18.743397   18.999709   22.036419 H          1 MOL1         0.0752
      21    H12     19.048048   20.360963   20.962925 H          1 MOL1         0.0752
      22    C8      19.195365   18.424783   19.997410 C.3        1 MOL1        -0.2849
      23    H13     18.143056   18.408465   19.685335 H          1 MOL1         0.0764
      24    H14     19.796164   18.770380   19.145994 H          1 MOL1         0.0764
      25    H15     19.494904   17.395227   20.233255 H          1 MOL1         0.0764
@<TRIPOS>BOND
    1     1     2    1
    2     1     3    2
    3     1     4    1
    4     4     5    1
    5     4     6    1
    6     4     7    1
    7     7     8    1
    8     7     9    1
    9     7    10    1
   10    10    11    1
   11    10    12    1
   12    10    13    1
   13    13    14    1
   14    13    15    1
   15    13    16    1
   16    16    17    1
   17    16    18    1
   18    16    19    1
   19    19    20    1
   20    19    21    1
   21    19    22    1
   22    22    23    1
   23    22    24    1
   24    22    25    1
@<TRIPOS>SUBSTRUCTURE
       1 MOL1            1 RESIDUE      1      MOL     
@<SCITEGIC>MOL_PROPERTY
VM2 Rank
SciTegic.value.IntegerValue
143

@<SCITEGIC>MOL_PROPERTY
Conf_Id
SciTegic.value.IntegerValue
855

@<SCITEGIC>MOL_PROPERTY
Probability
SciTegic.value.DoubleValue
0.00

@<SCITEGIC>MOL_PROPERTY
Sum Probability
SciTegic.value.DoubleValue
99.96

@<SCITEGIC>MOL_PROPERTY
Delta G
SciTegic.value.DoubleValue
5.352

@<SCITEGIC>MOL_PROPERTY
G
SciTegic.value.DoubleValue
-2.610

@<SCITEGIC>MOL_PROPERTY
E
SciTegic.value.DoubleValue
-27.721

@<SCITEGIC>MOL_PROPERTY
-TS
SciTegic.value.DoubleValue
25.111

@<SCITEGIC>MOL_PROPERTY
U+W
SciTegic.value.DoubleValue
-48.289

@<SCITEGIC>MOL_PROPERTY
U
SciTegic.value.DoubleValue
11.468

@<SCITEGIC>MOL_PROPERTY
W
SciTegic.value.DoubleValue
-59.757

@<SCITEGIC>MOL_PROPERTY
W(PB)
SciTegic.value.DoubleValue
-62.183

@<SCITEGIC>MOL_PROPERTY
W(SA)
SciTegic.value.DoubleValue
2.426

@<SCITEGIC>MOL_PROPERTY
Valence
SciTegic.value.DoubleValue
10.870

@<SCITEGIC>MOL_PROPERTY
Coulomb
SciTegic.value.DoubleValue
-0.266

@<SCITEGIC>MOL_PROPERTY
VdW
SciTegic.value.DoubleValue
0.864

@<SCITEGIC>MOL_PROPERTY
VdW6
SciTegic.value.DoubleValue
-10.146

@<SCITEGIC>MOL_PROPERTY
VdW12
SciTegic.value.DoubleValue
11.010

@<SCITEGIC>MOL_PROPERTY
Bond
SciTegic.value.DoubleValue
0.218

@<SCITEGIC>MOL_PROPERTY
Angle
SciTegic.value.DoubleValue
3.178

@<SCITEGIC>MOL_PROPERTY
Pdih
SciTegic.value.DoubleValue
7.473

@<SCITEGIC>MOL_PROPERTY
Idih
SciTegic.value.DoubleValue
0.001

@<SCITEGIC>MOL_PROPERTY
Tether
SciTegic.value.DoubleValue
0.000

@<TRIPOS>MOLECULE
guest-8_vm2.mol2 : vm2 ligand conformer 144
          25          24           1
SMALL
USER_CHARGES
 
@<TRIPOS>ATOM
       1    C1      20.019042   19.337943   26.963312 C.2        1 MOL1         0.6168
       2    O1      20.842277   18.922437   27.755311 O.co2      1 MOL1        -0.6703
       3    O2      18.832004   19.086802   27.034246 O.co2      1 MOL1        -0.6703
       4    C2      20.500786   20.248438   25.837309 C.3        1 MOL1        -0.1963
       5    H1      21.119416   21.030631   26.292235 H          1 MOL1         0.0750
       6    H2      19.632814   20.754110   25.399143 H          1 MOL1         0.0750
       7    C3      21.320510   19.518530   24.738492 C.3        1 MOL1        -0.1860
       8    H3      21.690763   20.255529   24.014256 H          1 MOL1         0.0752
       9    H4      22.212927   19.075022   25.200987 H          1 MOL1         0.0752
      10    C4      20.541201   18.403700   23.994226 C.3        1 MOL1        -0.1858
      11    H5      20.272792   17.615727   24.711025 H          1 MOL1         0.0752
      12    H6      21.211193   17.926135   23.267375 H          1 MOL1         0.0752
      13    C5      19.251865   18.872067   23.270188 C.3        1 MOL1        -0.1858
      14    H7      18.788691   18.006005   22.779993 H          1 MOL1         0.0752
      15    H8      18.520317   19.206453   24.017761 H          1 MOL1         0.0752
      16    C6      19.454077   20.002363   22.226802 C.3        1 MOL1        -0.1858
      17    H9      19.782053   20.915377   22.740609 H          1 MOL1         0.0752
      18    H10     18.480302   20.245850   21.780911 H          1 MOL1         0.0752
      19    C7      20.455868   19.677825   21.091305 C.3        1 MOL1        -0.1834
      20    H11     20.542933   20.557554   20.439109 H          1 MOL1         0.0752
      21    H12     21.457375   19.507757   21.508013 H          1 MOL1         0.0752
      22    C8      20.035370   18.463895   20.234810 C.3        1 MOL1        -0.2849
      23    H13     20.040579   17.538948   20.825017 H          1 MOL1         0.0764
      24    H14     19.027787   18.604250   19.822497 H          1 MOL1         0.0764
      25    H15     20.729031   18.327110   19.395266 H          1 MOL1         0.0764
@<TRIPOS>BOND
    1     1     2    1
    2     1     3    2
    3     1     4    1
    4     4     5    1
    5     4     6    1
    6     4     7    1
    7     7     8    1
    8     7     9    1
    9     7    10    1
   10    10    11    1
   11    10    12    1
   12    10    13    1
   13    13    14    1
   14    13    15    1
   15    13    16    1
   16    16    17    1
   17    16    18    1
   18    16    19    1
   19    19    20    1
   20    19    21    1
   21    19    22    1
   22    22    23    1
   23    22    24    1
   24    22    25    1
@<TRIPOS>SUBSTRUCTURE
       1 MOL1            1 RESIDUE      1      MOL     
@<SCITEGIC>MOL_PROPERTY
VM2 Rank
SciTegic.value.IntegerValue
144

@<SCITEGIC>MOL_PROPERTY
Conf_Id
SciTegic.value.IntegerValue
224

@<SCITEGIC>MOL_PROPERTY
Probability
SciTegic.value.DoubleValue
0.00

@<SCITEGIC>MOL_PROPERTY
Sum Probability
SciTegic.value.DoubleValue
99.96

@<SCITEGIC>MOL_PROPERTY
Delta G
SciTegic.value.DoubleValue
5.392

@<SCITEGIC>MOL_PROPERTY
G
SciTegic.value.DoubleValue
-2.570

@<SCITEGIC>MOL_PROPERTY
E
SciTegic.value.DoubleValue
-28.402

@<SCITEGIC>MOL_PROPERTY
-TS
SciTegic.value.DoubleValue
25.832

@<SCITEGIC>MOL_PROPERTY
U+W
SciTegic.value.DoubleValue
-48.970

@<SCITEGIC>MOL_PROPERTY
U
SciTegic.value.DoubleValue
11.079

@<SCITEGIC>MOL_PROPERTY
W
SciTegic.value.DoubleValue
-60.049

@<SCITEGIC>MOL_PROPERTY
W(PB)
SciTegic.value.DoubleValue
-62.388

@<SCITEGIC>MOL_PROPERTY
W(SA)
SciTegic.value.DoubleValue
2.339

@<SCITEGIC>MOL_PROPERTY
Valence
SciTegic.value.DoubleValue
9.623

@<SCITEGIC>MOL_PROPERTY
Coulomb
SciTegic.value.DoubleValue
0.950

@<SCITEGIC>MOL_PROPERTY
VdW
SciTegic.value.DoubleValue
0.506

@<SCITEGIC>MOL_PROPERTY
VdW6
SciTegic.value.DoubleValue
-12.338

@<SCITEGIC>MOL_PROPERTY
VdW12
SciTegic.value.DoubleValue
12.844

@<SCITEGIC>MOL_PROPERTY
Bond
SciTegic.value.DoubleValue
0.307

@<SCITEGIC>MOL_PROPERTY
Angle
SciTegic.value.DoubleValue
3.790

@<SCITEGIC>MOL_PROPERTY
Pdih
SciTegic.value.DoubleValue
5.524

@<SCITEGIC>MOL_PROPERTY
Idih
SciTegic.value.DoubleValue
0.001

@<SCITEGIC>MOL_PROPERTY
Tether
SciTegic.value.DoubleValue
0.000

@<TRIPOS>MOLECULE
guest-8_vm2.mol2 : vm2 ligand conformer 145
          25          24           1
SMALL
USER_CHARGES
 
@<TRIPOS>ATOM
       1    C1      20.484511   19.360638   27.097764 C.2        1 MOL1         0.6168
       2    O1      21.609492   19.804510   26.977867 O.co2      1 MOL1        -0.6703
       3    O2      19.644905   19.844892   27.831053 O.co2      1 MOL1        -0.6703
       4    C2      20.109549   18.114849   26.299996 C.3        1 MOL1        -0.1963
       5    H1      19.603154   17.426103   26.986381 H          1 MOL1         0.0750
       6    H2      21.031039   17.617681   25.973601 H          1 MOL1         0.0750
       7    C3      19.193584   18.398494   25.081148 C.3        1 MOL1        -0.1860
       8    H3      18.865721   17.442117   24.651807 H          1 MOL1         0.0752
       9    H4      18.287818   18.920436   25.419884 H          1 MOL1         0.0752
      10    C4      19.900099   19.230986   23.987700 C.3        1 MOL1        -0.1858
      11    H5      20.815142   18.714922   23.673926 H          1 MOL1         0.0752
      12    H6      20.213478   20.197374   24.405974 H          1 MOL1         0.0752
      13    C5      18.976314   19.477102   22.771558 C.3        1 MOL1        -0.1858
      14    H7      18.610026   18.522663   22.369528 H          1 MOL1         0.0752
      15    H8      18.089275   20.022628   23.121511 H          1 MOL1         0.0752
      16    C6      19.649235   20.303980   21.646454 C.3        1 MOL1        -0.1858
      17    H9      20.407906   20.976470   22.069620 H          1 MOL1         0.0752
      18    H10     18.886960   20.957351   21.200487 H          1 MOL1         0.0752
      19    C7      20.265092   19.459557   20.503399 C.3        1 MOL1        -0.1834
      20    H11     19.480138   18.855228   20.028153 H          1 MOL1         0.0752
      21    H12     20.638606   20.142472   19.727981 H          1 MOL1         0.0752
      22    C8      21.420219   18.538992   20.949060 C.3        1 MOL1        -0.2849
      23    H13     21.056522   17.736430   21.602686 H          1 MOL1         0.0764
      24    H14     21.892936   18.067058   20.078107 H          1 MOL1         0.0764
      25    H15     22.190795   19.105937   21.487386 H          1 MOL1         0.0764
@<TRIPOS>BOND
    1     1     2    1
    2     1     3    2
    3     1     4    1
    4     4     5    1
    5     4     6    1
    6     4     7    1
    7     7     8    1
    8     7     9    1
    9     7    10    1
   10    10    11    1
   11    10    12    1
   12    10    13    1
   13    13    14    1
   14    13    15    1
   15    13    16    1
   16    16    17    1
   17    16    18    1
   18    16    19    1
   19    19    20    1
   20    19    21    1
   21    19    22    1
   22    22    23    1
   23    22    24    1
   24    22    25    1
@<TRIPOS>SUBSTRUCTURE
       1 MOL1            1 RESIDUE      1      MOL     
@<SCITEGIC>MOL_PROPERTY
VM2 Rank
SciTegic.value.IntegerValue
145

@<SCITEGIC>MOL_PROPERTY
Conf_Id
SciTegic.value.IntegerValue
1230

@<SCITEGIC>MOL_PROPERTY
Probability
SciTegic.value.DoubleValue
0.00

@<SCITEGIC>MOL_PROPERTY
Sum Probability
SciTegic.value.DoubleValue
99.97

@<SCITEGIC>MOL_PROPERTY
Delta G
SciTegic.value.DoubleValue
5.409

@<SCITEGIC>MOL_PROPERTY
G
SciTegic.value.DoubleValue
-2.553

@<SCITEGIC>MOL_PROPERTY
E
SciTegic.value.DoubleValue
-27.600

@<SCITEGIC>MOL_PROPERTY
-TS
SciTegic.value.DoubleValue
25.047

@<SCITEGIC>MOL_PROPERTY
U+W
SciTegic.value.DoubleValue
-48.168

@<SCITEGIC>MOL_PROPERTY
U
SciTegic.value.DoubleValue
11.935

@<SCITEGIC>MOL_PROPERTY
W
SciTegic.value.DoubleValue
-60.103

@<SCITEGIC>MOL_PROPERTY
W(PB)
SciTegic.value.DoubleValue
-62.535

@<SCITEGIC>MOL_PROPERTY
W(SA)
SciTegic.value.DoubleValue
2.432

@<SCITEGIC>MOL_PROPERTY
Valence
SciTegic.value.DoubleValue
10.764

@<SCITEGIC>MOL_PROPERTY
Coulomb
SciTegic.value.DoubleValue
0.351

@<SCITEGIC>MOL_PROPERTY
VdW
SciTegic.value.DoubleValue
0.820

@<SCITEGIC>MOL_PROPERTY
VdW6
SciTegic.value.DoubleValue
-10.096

@<SCITEGIC>MOL_PROPERTY
VdW12
SciTegic.value.DoubleValue
10.916

@<SCITEGIC>MOL_PROPERTY
Bond
SciTegic.value.DoubleValue
0.214

@<SCITEGIC>MOL_PROPERTY
Angle
SciTegic.value.DoubleValue
3.143

@<SCITEGIC>MOL_PROPERTY
Pdih
SciTegic.value.DoubleValue
7.406

@<SCITEGIC>MOL_PROPERTY
Idih
SciTegic.value.DoubleValue
0.001

@<SCITEGIC>MOL_PROPERTY
Tether
SciTegic.value.DoubleValue
0.000

@<TRIPOS>MOLECULE
guest-8_vm2.mol2 : vm2 ligand conformer 146
          25          24           1
SMALL
USER_CHARGES
 
@<TRIPOS>ATOM
       1    C1      20.539916   19.000150   26.932027 C.2        1 MOL1         0.6168
       2    O1      21.609994   18.487876   26.668479 O.co2      1 MOL1        -0.6703
       3    O2      19.705677   18.484434   27.649858 O.co2      1 MOL1        -0.6703
       4    C2      20.233371   20.376322   26.347812 C.3        1 MOL1        -0.1963
       5    H1      21.174745   20.836438   26.023842 H          1 MOL1         0.0750
       6    H2      19.839547   20.997487   27.160814 H          1 MOL1         0.0750
       7    C3      19.218242   20.351907   25.175664 C.3        1 MOL1        -0.1860
       8    H3      18.289891   19.867259   25.508608 H          1 MOL1         0.0752
       9    H4      18.957644   21.384798   24.907846 H          1 MOL1         0.0752
      10    C4      19.770016   19.626146   23.927969 C.3        1 MOL1        -0.1858
      11    H5      20.008575   18.583816   24.180387 H          1 MOL1         0.0752
      12    H6      20.706893   20.107848   23.620116 H          1 MOL1         0.0752
      13    C5      18.762473   19.655369   22.757289 C.3        1 MOL1        -0.1858
      14    H7      17.791036   19.286812   23.114062 H          1 MOL1         0.0752
      15    H8      18.600456   20.694836   22.441033 H          1 MOL1         0.0752
      16    C6      19.183762   18.804549   21.532681 C.3        1 MOL1        -0.1858
      17    H9      18.370374   18.860643   20.796410 H          1 MOL1         0.0752
      18    H10     19.256288   17.745788   21.816724 H          1 MOL1         0.0752
      19    C7      20.491690   19.265063   20.841738 C.3        1 MOL1        -0.1834
      20    H11     20.387311   19.116595   19.758067 H          1 MOL1         0.0752
      21    H12     20.641069   20.343573   20.989126 H          1 MOL1         0.0752
      22    C8      21.737859   18.482184   21.312483 C.3        1 MOL1        -0.2849
      23    H13     22.634423   18.835762   20.787203 H          1 MOL1         0.0764
      24    H14     21.912275   18.599741   22.388132 H          1 MOL1         0.0764
      25    H15     21.627202   17.410282   21.103184 H          1 MOL1         0.0764
@<TRIPOS>BOND
    1     1     2    1
    2     1     3    2
    3     1     4    1
    4     4     5    1
    5     4     6    1
    6     4     7    1
    7     7     8    1
    8     7     9    1
    9     7    10    1
   10    10    11    1
   11    10    12    1
   12    10    13    1
   13    13    14    1
   14    13    15    1
   15    13    16    1
   16    16    17    1
   17    16    18    1
   18    16    19    1
   19    19    20    1
   20    19    21    1
   21    19    22    1
   22    22    23    1
   23    22    24    1
   24    22    25    1
@<TRIPOS>SUBSTRUCTURE
       1 MOL1            1 RESIDUE      1      MOL     
@<SCITEGIC>MOL_PROPERTY
VM2 Rank
SciTegic.value.IntegerValue
146

@<SCITEGIC>MOL_PROPERTY
Conf_Id
SciTegic.value.IntegerValue
1338

@<SCITEGIC>MOL_PROPERTY
Probability
SciTegic.value.DoubleValue
0.00

@<SCITEGIC>MOL_PROPERTY
Sum Probability
SciTegic.value.DoubleValue
99.97

@<SCITEGIC>MOL_PROPERTY
Delta G
SciTegic.value.DoubleValue
5.458

@<SCITEGIC>MOL_PROPERTY
G
SciTegic.value.DoubleValue
-2.505

@<SCITEGIC>MOL_PROPERTY
E
SciTegic.value.DoubleValue
-27.559

@<SCITEGIC>MOL_PROPERTY
-TS
SciTegic.value.DoubleValue
25.054

@<SCITEGIC>MOL_PROPERTY
U+W
SciTegic.value.DoubleValue
-48.126

@<SCITEGIC>MOL_PROPERTY
U
SciTegic.value.DoubleValue
12.392

@<SCITEGIC>MOL_PROPERTY
W
SciTegic.value.DoubleValue
-60.518

@<SCITEGIC>MOL_PROPERTY
W(PB)
SciTegic.value.DoubleValue
-62.940

@<SCITEGIC>MOL_PROPERTY
W(SA)
SciTegic.value.DoubleValue
2.423

@<SCITEGIC>MOL_PROPERTY
Valence
SciTegic.value.DoubleValue
10.774

@<SCITEGIC>MOL_PROPERTY
Coulomb
SciTegic.value.DoubleValue
0.821

@<SCITEGIC>MOL_PROPERTY
VdW
SciTegic.value.DoubleValue
0.796

@<SCITEGIC>MOL_PROPERTY
VdW6
SciTegic.value.DoubleValue
-10.157

@<SCITEGIC>MOL_PROPERTY
VdW12
SciTegic.value.DoubleValue
10.953

@<SCITEGIC>MOL_PROPERTY
Bond
SciTegic.value.DoubleValue
0.213

@<SCITEGIC>MOL_PROPERTY
Angle
SciTegic.value.DoubleValue
3.162

@<SCITEGIC>MOL_PROPERTY
Pdih
SciTegic.value.DoubleValue
7.399

@<SCITEGIC>MOL_PROPERTY
Idih
SciTegic.value.DoubleValue
0.001

@<SCITEGIC>MOL_PROPERTY
Tether
SciTegic.value.DoubleValue
0.000

@<TRIPOS>MOLECULE
guest-8_vm2.mol2 : vm2 ligand conformer 147
          25          24           1
SMALL
USER_CHARGES
 
@<TRIPOS>ATOM
       1    C1      20.412740   18.778970   26.846125 C.2        1 MOL1         0.6168
       2    O1      21.582869   18.920331   27.142702 O.co2      1 MOL1        -0.6703
       3    O2      19.862007   17.697857   26.776495 O.co2      1 MOL1        -0.6703
       4    C2      19.585293   20.031166   26.569186 C.3        1 MOL1        -0.1963
       5    H1      19.802092   20.750423   27.367680 H          1 MOL1         0.0750
       6    H2      18.522400   19.774165   26.653031 H          1 MOL1         0.0750
       7    C3      19.871395   20.684097   25.191949 C.3        1 MOL1        -0.1860
       8    H3      19.341580   21.644594   25.135441 H          1 MOL1         0.0752
       9    H4      20.944059   20.909126   25.112046 H          1 MOL1         0.0752
      10    C4      19.435688   19.790756   24.008800 C.3        1 MOL1        -0.1858
      11    H5      18.365418   19.560808   24.099923 H          1 MOL1         0.0752
      12    H6      19.966508   18.832559   24.059546 H          1 MOL1         0.0752
      13    C5      19.699392   20.477333   22.647923 C.3        1 MOL1        -0.1858
      14    H7      19.123204   21.412220   22.618886 H          1 MOL1         0.0752
      15    H8      20.756002   20.766004   22.563960 H          1 MOL1         0.0752
      16    C6      19.288060   19.608682   21.431934 C.3        1 MOL1        -0.1858
      17    H9      18.886259   20.275107   20.656514 H          1 MOL1         0.0752
      18    H10     18.462691   18.937155   21.705204 H          1 MOL1         0.0752
      19    C7      20.444630   18.798294   20.795858 C.3        1 MOL1        -0.1834
      20    H11     20.061798   18.287783   19.901449 H          1 MOL1         0.0752
      21    H12     21.226836   19.485925   20.445812 H          1 MOL1         0.0752
      22    C8      21.070926   17.746514   21.735028 C.3        1 MOL1        -0.2849
      23    H13     21.792864   17.125551   21.189213 H          1 MOL1         0.0764
      24    H14     21.607264   18.225367   22.563832 H          1 MOL1         0.0764
      25    H15     20.302141   17.084126   22.153686 H          1 MOL1         0.0764
@<TRIPOS>BOND
    1     1     2    1
    2     1     3    2
    3     1     4    1
    4     4     5    1
    5     4     6    1
    6     4     7    1
    7     7     8    1
    8     7     9    1
    9     7    10    1
   10    10    11    1
   11    10    12    1
   12    10    13    1
   13    13    14    1
   14    13    15    1
   15    13    16    1
   16    16    17    1
   17    16    18    1
   18    16    19    1
   19    19    20    1
   20    19    21    1
   21    19    22    1
   22    22    23    1
   23    22    24    1
   24    22    25    1
@<TRIPOS>SUBSTRUCTURE
       1 MOL1            1 RESIDUE      1      MOL     
@<SCITEGIC>MOL_PROPERTY
VM2 Rank
SciTegic.value.IntegerValue
147

@<SCITEGIC>MOL_PROPERTY
Conf_Id
SciTegic.value.IntegerValue
551

@<SCITEGIC>MOL_PROPERTY
Probability
SciTegic.value.DoubleValue
0.00

@<SCITEGIC>MOL_PROPERTY
Sum Probability
SciTegic.value.DoubleValue
99.97

@<SCITEGIC>MOL_PROPERTY
Delta G
SciTegic.value.DoubleValue
5.486

@<SCITEGIC>MOL_PROPERTY
G
SciTegic.value.DoubleValue
-2.477

@<SCITEGIC>MOL_PROPERTY
E
SciTegic.value.DoubleValue
-27.537

@<SCITEGIC>MOL_PROPERTY
-TS
SciTegic.value.DoubleValue
25.061

@<SCITEGIC>MOL_PROPERTY
U+W
SciTegic.value.DoubleValue
-48.105

@<SCITEGIC>MOL_PROPERTY
U
SciTegic.value.DoubleValue
12.641

@<SCITEGIC>MOL_PROPERTY
W
SciTegic.value.DoubleValue
-60.746

@<SCITEGIC>MOL_PROPERTY
W(PB)
SciTegic.value.DoubleValue
-63.149

@<SCITEGIC>MOL_PROPERTY
W(SA)
SciTegic.value.DoubleValue
2.403

@<SCITEGIC>MOL_PROPERTY
Valence
SciTegic.value.DoubleValue
10.756

@<SCITEGIC>MOL_PROPERTY
Coulomb
SciTegic.value.DoubleValue
1.147

@<SCITEGIC>MOL_PROPERTY
VdW
SciTegic.value.DoubleValue
0.738

@<SCITEGIC>MOL_PROPERTY
VdW6
SciTegic.value.DoubleValue
-10.212

@<SCITEGIC>MOL_PROPERTY
VdW12
SciTegic.value.DoubleValue
10.950

@<SCITEGIC>MOL_PROPERTY
Bond
SciTegic.value.DoubleValue
0.214

@<SCITEGIC>MOL_PROPERTY
Angle
SciTegic.value.DoubleValue
3.128

@<SCITEGIC>MOL_PROPERTY
Pdih
SciTegic.value.DoubleValue
7.413

@<SCITEGIC>MOL_PROPERTY
Idih
SciTegic.value.DoubleValue
0.001

@<SCITEGIC>MOL_PROPERTY
Tether
SciTegic.value.DoubleValue
0.000

@<TRIPOS>MOLECULE
guest-8_vm2.mol2 : vm2 ligand conformer 148
          25          24           1
SMALL
USER_CHARGES
 
@<TRIPOS>ATOM
       1    C1      19.774039   19.696242   26.828534 C.2        1 MOL1         0.6168
       2    O1      20.573154   20.449543   27.349262 O.co2      1 MOL1        -0.6703
       3    O2      18.624777   20.002364   26.578689 O.co2      1 MOL1        -0.6703
       4    C2      20.235006   18.280857   26.491646 C.3        1 MOL1        -0.1963
       5    H1      19.349865   17.648238   26.353232 H          1 MOL1         0.0750
       6    H2      20.768955   17.892904   27.367035 H          1 MOL1         0.0750
       7    C3      21.153408   18.196358   25.244861 C.3        1 MOL1        -0.1860
       8    H3      22.021841   18.854625   25.386739 H          1 MOL1         0.0752
       9    H4      21.542765   17.172957   25.158345 H          1 MOL1         0.0752
      10    C4      20.418088   18.575142   23.939550 C.3        1 MOL1        -0.1858
      11    H5      20.044097   19.603746   24.023162 H          1 MOL1         0.0752
      12    H6      19.545078   17.921972   23.806043 H          1 MOL1         0.0752
      13    C5      21.343744   18.462066   22.707949 C.3        1 MOL1        -0.1858
      14    H7      22.164092   19.186775   22.800834 H          1 MOL1         0.0752
      15    H8      21.810355   17.467585   22.702299 H          1 MOL1         0.0752
      16    C6      20.625876   18.667963   21.350239 C.3        1 MOL1        -0.1858
      17    H9      19.863237   17.890592   21.205526 H          1 MOL1         0.0752
      18    H10     21.368777   18.507979   20.556924 H          1 MOL1         0.0752
      19    C7      20.004037   20.072918   21.151090 C.3        1 MOL1        -0.1834
      20    H11     20.560556   20.821645   21.731581 H          1 MOL1         0.0752
      21    H12     20.115667   20.359592   20.096278 H          1 MOL1         0.0752
      22    C8      18.500872   20.130548   21.504180 C.3        1 MOL1        -0.2849
      23    H13     18.317635   19.877022   22.554646 H          1 MOL1         0.0764
      24    H14     18.104241   21.139022   21.329756 H          1 MOL1         0.0764
      25    H15     17.926577   19.431883   20.882049 H          1 MOL1         0.0764
@<TRIPOS>BOND
    1     1     2    1
    2     1     3    2
    3     1     4    1
    4     4     5    1
    5     4     6    1
    6     4     7    1
    7     7     8    1
    8     7     9    1
    9     7    10    1
   10    10    11    1
   11    10    12    1
   12    10    13    1
   13    13    14    1
   14    13    15    1
   15    13    16    1
   16    16    17    1
   17    16    18    1
   18    16    19    1
   19    19    20    1
   20    19    21    1
   21    19    22    1
   22    22    23    1
   23    22    24    1
   24    22    25    1
@<TRIPOS>SUBSTRUCTURE
       1 MOL1            1 RESIDUE      1      MOL     
@<SCITEGIC>MOL_PROPERTY
VM2 Rank
SciTegic.value.IntegerValue
148

@<SCITEGIC>MOL_PROPERTY
Conf_Id
SciTegic.value.IntegerValue
1246

@<SCITEGIC>MOL_PROPERTY
Probability
SciTegic.value.DoubleValue
0.00

@<SCITEGIC>MOL_PROPERTY
Sum Probability
SciTegic.value.DoubleValue
99.97

@<SCITEGIC>MOL_PROPERTY
Delta G
SciTegic.value.DoubleValue
5.493

@<SCITEGIC>MOL_PROPERTY
G
SciTegic.value.DoubleValue
-2.469

@<SCITEGIC>MOL_PROPERTY
E
SciTegic.value.DoubleValue
-27.528

@<SCITEGIC>MOL_PROPERTY
-TS
SciTegic.value.DoubleValue
25.059

@<SCITEGIC>MOL_PROPERTY
U+W
SciTegic.value.DoubleValue
-48.096

@<SCITEGIC>MOL_PROPERTY
U
SciTegic.value.DoubleValue
12.669

@<SCITEGIC>MOL_PROPERTY
W
SciTegic.value.DoubleValue
-60.765

@<SCITEGIC>MOL_PROPERTY
W(PB)
SciTegic.value.DoubleValue
-63.199

@<SCITEGIC>MOL_PROPERTY
W(SA)
SciTegic.value.DoubleValue
2.434

@<SCITEGIC>MOL_PROPERTY
Valence
SciTegic.value.DoubleValue
10.772

@<SCITEGIC>MOL_PROPERTY
Coulomb
SciTegic.value.DoubleValue
1.133

@<SCITEGIC>MOL_PROPERTY
VdW
SciTegic.value.DoubleValue
0.765

@<SCITEGIC>MOL_PROPERTY
VdW6
SciTegic.value.DoubleValue
-10.207

@<SCITEGIC>MOL_PROPERTY
VdW12
SciTegic.value.DoubleValue
10.972

@<SCITEGIC>MOL_PROPERTY
Bond
SciTegic.value.DoubleValue
0.213

@<SCITEGIC>MOL_PROPERTY
Angle
SciTegic.value.DoubleValue
3.169

@<SCITEGIC>MOL_PROPERTY
Pdih
SciTegic.value.DoubleValue
7.388

@<SCITEGIC>MOL_PROPERTY
Idih
SciTegic.value.DoubleValue
0.001

@<SCITEGIC>MOL_PROPERTY
Tether
SciTegic.value.DoubleValue
0.000

@<TRIPOS>MOLECULE
guest-8_vm2.mol2 : vm2 ligand conformer 149
          25          24           1
SMALL
USER_CHARGES
 
@<TRIPOS>ATOM
       1    C1      19.955047   19.795429   26.843118 C.2        1 MOL1         0.6168
       2    O1      20.835944   20.578941   27.138534 O.co2      1 MOL1        -0.6703
       3    O2      18.780758   20.099642   26.769232 O.co2      1 MOL1        -0.6703
       4    C2      20.344438   18.344457   26.574038 C.3        1 MOL1        -0.1963
       5    H1      19.447107   17.719600   26.658720 H          1 MOL1         0.0750
       6    H2      21.024701   18.033669   27.375647 H          1 MOL1         0.0750
       7    C3      21.026191   18.119155   25.199481 C.3        1 MOL1        -0.1860
       8    H3      21.905971   18.772652   25.118498 H          1 MOL1         0.0752
       9    H4      21.394173   17.085485   25.148834 H          1 MOL1         0.0752
      10    C4      20.071308   18.379453   24.012812 C.3        1 MOL1        -0.1858
      11    H5      19.705646   19.412289   24.057760 H          1 MOL1         0.0752
      12    H6      19.189460   17.730988   24.104959 H          1 MOL1         0.0752
      13    C5      20.763375   18.115268   22.654812 C.3        1 MOL1        -0.1858
      14    H7      21.680003   18.714777   22.570043 H          1 MOL1         0.0752
      15    H8      21.081652   17.064072   22.631651 H          1 MOL1         0.0752
      16    C6      19.843114   18.376960   21.435381 C.3        1 MOL1        -0.1858
      17    H9      18.792627   18.205007   21.706982 H          1 MOL1         0.0752
      18    H10     20.077868   17.630768   20.664063 H          1 MOL1         0.0752
      19    C7      20.003974   19.777111   20.792980 C.3        1 MOL1        -0.1834
      20    H11     21.038118   19.905724   20.444813 H          1 MOL1         0.0752
      21    H12     19.370116   19.824300   19.896795 H          1 MOL1         0.0752
      22    C8      19.628850   20.947583   21.725612 C.3        1 MOL1        -0.2849
      23    H13     20.340970   21.036177   22.555619 H          1 MOL1         0.0764
      24    H14     19.643196   21.897078   21.175199 H          1 MOL1         0.0764
      25    H15     18.622411   20.812538   22.142634 H          1 MOL1         0.0764
@<TRIPOS>BOND
    1     1     2    1
    2     1     3    2
    3     1     4    1
    4     4     5    1
    5     4     6    1
    6     4     7    1
    7     7     8    1
    8     7     9    1
    9     7    10    1
   10    10    11    1
   11    10    12    1
   12    10    13    1
   13    13    14    1
   14    13    15    1
   15    13    16    1
   16    16    17    1
   17    16    18    1
   18    16    19    1
   19    19    20    1
   20    19    21    1
   21    19    22    1
   22    22    23    1
   23    22    24    1
   24    22    25    1
@<TRIPOS>SUBSTRUCTURE
       1 MOL1            1 RESIDUE      1      MOL     
@<SCITEGIC>MOL_PROPERTY
VM2 Rank
SciTegic.value.IntegerValue
149

@<SCITEGIC>MOL_PROPERTY
Conf_Id
SciTegic.value.IntegerValue
249

@<SCITEGIC>MOL_PROPERTY
Probability
SciTegic.value.DoubleValue
0.00

@<SCITEGIC>MOL_PROPERTY
Sum Probability
SciTegic.value.DoubleValue
99.98

@<SCITEGIC>MOL_PROPERTY
Delta G
SciTegic.value.DoubleValue
5.502

@<SCITEGIC>MOL_PROPERTY
G
SciTegic.value.DoubleValue
-2.461

@<SCITEGIC>MOL_PROPERTY
E
SciTegic.value.DoubleValue
-27.521

@<SCITEGIC>MOL_PROPERTY
-TS
SciTegic.value.DoubleValue
25.061

@<SCITEGIC>MOL_PROPERTY
U+W
SciTegic.value.DoubleValue
-48.089

@<SCITEGIC>MOL_PROPERTY
U
SciTegic.value.DoubleValue
12.640

@<SCITEGIC>MOL_PROPERTY
W
SciTegic.value.DoubleValue
-60.729

@<SCITEGIC>MOL_PROPERTY
W(PB)
SciTegic.value.DoubleValue
-63.138

@<SCITEGIC>MOL_PROPERTY
W(SA)
SciTegic.value.DoubleValue
2.409

@<SCITEGIC>MOL_PROPERTY
Valence
SciTegic.value.DoubleValue
10.756

@<SCITEGIC>MOL_PROPERTY
Coulomb
SciTegic.value.DoubleValue
1.146

@<SCITEGIC>MOL_PROPERTY
VdW
SciTegic.value.DoubleValue
0.738

@<SCITEGIC>MOL_PROPERTY
VdW6
SciTegic.value.DoubleValue
-10.212

@<SCITEGIC>MOL_PROPERTY
VdW12
SciTegic.value.DoubleValue
10.950

@<SCITEGIC>MOL_PROPERTY
Bond
SciTegic.value.DoubleValue
0.214

@<SCITEGIC>MOL_PROPERTY
Angle
SciTegic.value.DoubleValue
3.129

@<SCITEGIC>MOL_PROPERTY
Pdih
SciTegic.value.DoubleValue
7.412

@<SCITEGIC>MOL_PROPERTY
Idih
SciTegic.value.DoubleValue
0.001

@<SCITEGIC>MOL_PROPERTY
Tether
SciTegic.value.DoubleValue
0.000

@<TRIPOS>MOLECULE
guest-8_vm2.mol2 : vm2 ligand conformer 150
          25          24           1
SMALL
USER_CHARGES
 
@<TRIPOS>ATOM
       1    C1      19.676534   18.964789   26.697866 C.2        1 MOL1         0.6168
       2    O1      20.317612   18.013326   27.098954 O.co2      1 MOL1        -0.6703
       3    O2      18.471127   18.947445   26.543737 O.co2      1 MOL1        -0.6703
       4    C2      20.421463   20.261509   26.392978 C.3        1 MOL1        -0.1963
       5    H1      21.399681   20.229162   26.887763 H          1 MOL1         0.0750
       6    H2      19.857674   21.079698   26.856249 H          1 MOL1         0.0750
       7    C3      20.594775   20.544324   24.878377 C.3        1 MOL1        -0.1860
       8    H3      19.608279   20.543188   24.399047 H          1 MOL1         0.0752
       9    H4      21.001539   21.556397   24.750021 H          1 MOL1         0.0752
      10    C4      21.539094   19.528556   24.190102 C.3        1 MOL1        -0.1858
      11    H5      21.190073   18.500433   24.358559 H          1 MOL1         0.0752
      12    H6      22.524571   19.597567   24.670617 H          1 MOL1         0.0752
      13    C5      21.710862   19.785530   22.671543 C.3        1 MOL1        -0.1858
      14    H7      21.569315   20.851422   22.446497 H          1 MOL1         0.0752
      15    H8      22.751428   19.559297   22.401643 H          1 MOL1         0.0752
      16    C6      20.796109   18.924595   21.764257 C.3        1 MOL1        -0.1858
      17    H9      21.019984   17.861249   21.925577 H          1 MOL1         0.0752
      18    H10     21.050559   19.137355   20.716981 H          1 MOL1         0.0752
      19    C7      19.285015   19.166105   21.972390 C.3        1 MOL1        -0.1834
      20    H11     18.991049   18.842944   22.980128 H          1 MOL1         0.0752
      21    H12     19.066516   20.240211   21.898277 H          1 MOL1         0.0752
      22    C8      18.440409   18.397822   20.935796 C.3        1 MOL1        -0.2849
      23    H13     18.621371   17.317231   21.005755 H          1 MOL1         0.0764
      24    H14     17.369841   18.573691   21.103009 H          1 MOL1         0.0764
      25    H15     18.681338   18.720875   19.914593 H          1 MOL1         0.0764
@<TRIPOS>BOND
    1     1     2    1
    2     1     3    2
    3     1     4    1
    4     4     5    1
    5     4     6    1
    6     4     7    1
    7     7     8    1
    8     7     9    1
    9     7    10    1
   10    10    11    1
   11    10    12    1
   12    10    13    1
   13    13    14    1
   14    13    15    1
   15    13    16    1
   16    16    17    1
   17    16    18    1
   18    16    19    1
   19    19    20    1
   20    19    21    1
   21    19    22    1
   22    22    23    1
   23    22    24    1
   24    22    25    1
@<TRIPOS>SUBSTRUCTURE
       1 MOL1            1 RESIDUE      1      MOL     
@<SCITEGIC>MOL_PROPERTY
VM2 Rank
SciTegic.value.IntegerValue
150

@<SCITEGIC>MOL_PROPERTY
Conf_Id
SciTegic.value.IntegerValue
554

@<SCITEGIC>MOL_PROPERTY
Probability
SciTegic.value.DoubleValue
0.00

@<SCITEGIC>MOL_PROPERTY
Sum Probability
SciTegic.value.DoubleValue
99.98

@<SCITEGIC>MOL_PROPERTY
Delta G
SciTegic.value.DoubleValue
5.581

@<SCITEGIC>MOL_PROPERTY
G
SciTegic.value.DoubleValue
-2.381

@<SCITEGIC>MOL_PROPERTY
E
SciTegic.value.DoubleValue
-27.507

@<SCITEGIC>MOL_PROPERTY
-TS
SciTegic.value.DoubleValue
25.126

@<SCITEGIC>MOL_PROPERTY
U+W
SciTegic.value.DoubleValue
-48.075

@<SCITEGIC>MOL_PROPERTY
U
SciTegic.value.DoubleValue
12.689

@<SCITEGIC>MOL_PROPERTY
W
SciTegic.value.DoubleValue
-60.763

@<SCITEGIC>MOL_PROPERTY
W(PB)
SciTegic.value.DoubleValue
-63.197

@<SCITEGIC>MOL_PROPERTY
W(SA)
SciTegic.value.DoubleValue
2.433

@<SCITEGIC>MOL_PROPERTY
Valence
SciTegic.value.DoubleValue
10.791

@<SCITEGIC>MOL_PROPERTY
Coulomb
SciTegic.value.DoubleValue
1.261

@<SCITEGIC>MOL_PROPERTY
VdW
SciTegic.value.DoubleValue
0.637

@<SCITEGIC>MOL_PROPERTY
VdW6
SciTegic.value.DoubleValue
-10.463

@<SCITEGIC>MOL_PROPERTY
VdW12
SciTegic.value.DoubleValue
11.100

@<SCITEGIC>MOL_PROPERTY
Bond
SciTegic.value.DoubleValue
0.216

@<SCITEGIC>MOL_PROPERTY
Angle
SciTegic.value.DoubleValue
3.125

@<SCITEGIC>MOL_PROPERTY
Pdih
SciTegic.value.DoubleValue
7.450

@<SCITEGIC>MOL_PROPERTY
Idih
SciTegic.value.DoubleValue
0.001

@<SCITEGIC>MOL_PROPERTY
Tether
SciTegic.value.DoubleValue
0.000

@<TRIPOS>MOLECULE
guest-8_vm2.mol2 : vm2 ligand conformer 151
          25          24           1
SMALL
USER_CHARGES
 
@<TRIPOS>ATOM
       1    C1      19.929050   19.521586   27.133505 C.2        1 MOL1         0.6168
       2    O1      20.757316   19.509755   28.022731 O.co2      1 MOL1        -0.6703
       3    O2      18.896141   20.159767   27.184499 O.co2      1 MOL1        -0.6703
       4    C2      20.211475   18.707035   25.876261 C.3        1 MOL1        -0.1963
       5    H1      19.250575   18.351558   25.487093 H          1 MOL1         0.0750
       6    H2      20.794230   17.824395   26.165299 H          1 MOL1         0.0750
       7    C3      20.969377   19.518217   24.793693 C.3        1 MOL1        -0.1860
       8    H3      20.359047   20.375966   24.483056 H          1 MOL1         0.0752
       9    H4      21.876536   19.944146   25.244076 H          1 MOL1         0.0752
      10    C4      21.384232   18.677615   23.558852 C.3        1 MOL1        -0.1858
      11    H5      22.118286   17.926889   23.881461 H          1 MOL1         0.0752
      12    H6      21.919413   19.328068   22.858527 H          1 MOL1         0.0752
      13    C5      20.230065   17.941047   22.824365 C.3        1 MOL1        -0.1858
      14    H7      20.648391   17.344692   22.002379 H          1 MOL1         0.0752
      15    H8      19.792825   17.209336   23.515965 H          1 MOL1         0.0752
      16    C6      19.089005   18.839147   22.273966 C.3        1 MOL1        -0.1858
      17    H9      18.889500   19.681298   22.946991 H          1 MOL1         0.0752
      18    H10     18.166845   18.242335   22.276884 H          1 MOL1         0.0752
      19    C7      19.293374   19.353188   20.827034 C.3        1 MOL1        -0.1834
      20    H11     19.400449   18.500577   20.142433 H          1 MOL1         0.0752
      21    H12     18.380754   19.881091   20.517851 H          1 MOL1         0.0752
      22    C8      20.492965   20.306644   20.651094 C.3        1 MOL1        -0.2849
      23    H13     21.442571   19.763604   20.724538 H          1 MOL1         0.0764
      24    H14     20.463266   20.781115   19.661794 H          1 MOL1         0.0764
      25    H15     20.481784   21.100564   21.409167 H          1 MOL1         0.0764
@<TRIPOS>BOND
    1     1     2    1
    2     1     3    2
    3     1     4    1
    4     4     5    1
    5     4     6    1
    6     4     7    1
    7     7     8    1
    8     7     9    1
    9     7    10    1
   10    10    11    1
   11    10    12    1
   12    10    13    1
   13    13    14    1
   14    13    15    1
   15    13    16    1
   16    16    17    1
   17    16    18    1
   18    16    19    1
   19    19    20    1
   20    19    21    1
   21    19    22    1
   22    22    23    1
   23    22    24    1
   24    22    25    1
@<TRIPOS>SUBSTRUCTURE
       1 MOL1            1 RESIDUE      1      MOL     
@<SCITEGIC>MOL_PROPERTY
VM2 Rank
SciTegic.value.IntegerValue
151

@<SCITEGIC>MOL_PROPERTY
Conf_Id
SciTegic.value.IntegerValue
1296

@<SCITEGIC>MOL_PROPERTY
Probability
SciTegic.value.DoubleValue
0.00

@<SCITEGIC>MOL_PROPERTY
Sum Probability
SciTegic.value.DoubleValue
99.98

@<SCITEGIC>MOL_PROPERTY
Delta G
SciTegic.value.DoubleValue
5.642

@<SCITEGIC>MOL_PROPERTY
G
SciTegic.value.DoubleValue
-2.320

@<SCITEGIC>MOL_PROPERTY
E
SciTegic.value.DoubleValue
-26.924

@<SCITEGIC>MOL_PROPERTY
-TS
SciTegic.value.DoubleValue
24.604

@<SCITEGIC>MOL_PROPERTY
U+W
SciTegic.value.DoubleValue
-47.492

@<SCITEGIC>MOL_PROPERTY
U
SciTegic.value.DoubleValue
12.173

@<SCITEGIC>MOL_PROPERTY
W
SciTegic.value.DoubleValue
-59.665

@<SCITEGIC>MOL_PROPERTY
W(PB)
SciTegic.value.DoubleValue
-62.043

@<SCITEGIC>MOL_PROPERTY
W(SA)
SciTegic.value.DoubleValue
2.378

@<SCITEGIC>MOL_PROPERTY
Valence
SciTegic.value.DoubleValue
11.759

@<SCITEGIC>MOL_PROPERTY
Coulomb
SciTegic.value.DoubleValue
-0.600

@<SCITEGIC>MOL_PROPERTY
VdW
SciTegic.value.DoubleValue
1.015

@<SCITEGIC>MOL_PROPERTY
VdW6
SciTegic.value.DoubleValue
-10.890

@<SCITEGIC>MOL_PROPERTY
VdW12
SciTegic.value.DoubleValue
11.905

@<SCITEGIC>MOL_PROPERTY
Bond
SciTegic.value.DoubleValue
0.319

@<SCITEGIC>MOL_PROPERTY
Angle
SciTegic.value.DoubleValue
4.233

@<SCITEGIC>MOL_PROPERTY
Pdih
SciTegic.value.DoubleValue
7.206

@<SCITEGIC>MOL_PROPERTY
Idih
SciTegic.value.DoubleValue
0.001

@<SCITEGIC>MOL_PROPERTY
Tether
SciTegic.value.DoubleValue
0.000

@<TRIPOS>MOLECULE
guest-8_vm2.mol2 : vm2 ligand conformer 152
          25          24           1
SMALL
USER_CHARGES
 
@<TRIPOS>ATOM
       1    C1      20.142408   18.899812   26.786484 C.2        1 MOL1         0.6168
       2    O1      21.197478   18.320398   26.955055 O.co2      1 MOL1        -0.6703
       3    O2      19.057235   18.382495   26.966548 O.co2      1 MOL1        -0.6703
       4    C2      20.186178   20.375072   26.392833 C.3        1 MOL1        -0.1963
       5    H1      21.232765   20.695948   26.326147 H          1 MOL1         0.0750
       6    H2      19.741199   20.928940   27.227511 H          1 MOL1         0.0750
       7    C3      19.426856   20.736194   25.084940 C.3        1 MOL1        -0.1860
       8    H3      18.457064   20.220061   25.058911 H          1 MOL1         0.0752
       9    H4      19.196121   21.809649   25.114006 H          1 MOL1         0.0752
      10    C4      20.210718   20.459741   23.777659 C.3        1 MOL1        -0.1858
      11    H5      21.179079   20.977076   23.809947 H          1 MOL1         0.0752
      12    H6      19.646171   20.909648   22.951341 H          1 MOL1         0.0752
      13    C5      20.432480   18.956770   23.481468 C.3        1 MOL1        -0.1858
      14    H7      21.040694   18.516396   24.280614 H          1 MOL1         0.0752
      15    H8      19.471502   18.426512   23.501991 H          1 MOL1         0.0752
      16    C6      21.159822   18.689014   22.138960 C.3        1 MOL1        -0.1858
      17    H9      21.341303   17.609302   22.049903 H          1 MOL1         0.0752
      18    H10     22.151520   19.160261   22.171953 H          1 MOL1         0.0752
      19    C7      20.418753   19.173585   20.867769 C.3        1 MOL1        -0.1834
      20    H11     20.332200   20.267948   20.871619 H          1 MOL1         0.0752
      21    H12     21.030933   18.922756   19.990644 H          1 MOL1         0.0752
      22    C8      19.021072   18.540918   20.694285 C.3        1 MOL1        -0.2849
      23    H13     18.337069   18.862226   21.489923 H          1 MOL1         0.0764
      24    H14     18.579725   18.840820   19.735107 H          1 MOL1         0.0764
      25    H15     19.080861   17.444979   20.712041 H          1 MOL1         0.0764
@<TRIPOS>BOND
    1     1     2    1
    2     1     3    2
    3     1     4    1
    4     4     5    1
    5     4     6    1
    6     4     7    1
    7     7     8    1
    8     7     9    1
    9     7    10    1
   10    10    11    1
   11    10    12    1
   12    10    13    1
   13    13    14    1
   14    13    15    1
   15    13    16    1
   16    16    17    1
   17    16    18    1
   18    16    19    1
   19    19    20    1
   20    19    21    1
   21    19    22    1
   22    22    23    1
   23    22    24    1
   24    22    25    1
@<TRIPOS>SUBSTRUCTURE
       1 MOL1            1 RESIDUE      1      MOL     
@<SCITEGIC>MOL_PROPERTY
VM2 Rank
SciTegic.value.IntegerValue
152

@<SCITEGIC>MOL_PROPERTY
Conf_Id
SciTegic.value.IntegerValue
837

@<SCITEGIC>MOL_PROPERTY
Probability
SciTegic.value.DoubleValue
0.00

@<SCITEGIC>MOL_PROPERTY
Sum Probability
SciTegic.value.DoubleValue
99.98

@<SCITEGIC>MOL_PROPERTY
Delta G
SciTegic.value.DoubleValue
5.677

@<SCITEGIC>MOL_PROPERTY
G
SciTegic.value.DoubleValue
-2.286

@<SCITEGIC>MOL_PROPERTY
E
SciTegic.value.DoubleValue
-27.600

@<SCITEGIC>MOL_PROPERTY
-TS
SciTegic.value.DoubleValue
25.314

@<SCITEGIC>MOL_PROPERTY
U+W
SciTegic.value.DoubleValue
-48.168

@<SCITEGIC>MOL_PROPERTY
U
SciTegic.value.DoubleValue
12.473

@<SCITEGIC>MOL_PROPERTY
W
SciTegic.value.DoubleValue
-60.640

@<SCITEGIC>MOL_PROPERTY
W(PB)
SciTegic.value.DoubleValue
-63.031

@<SCITEGIC>MOL_PROPERTY
W(SA)
SciTegic.value.DoubleValue
2.391

@<SCITEGIC>MOL_PROPERTY
Valence
SciTegic.value.DoubleValue
10.551

@<SCITEGIC>MOL_PROPERTY
Coulomb
SciTegic.value.DoubleValue
1.040

@<SCITEGIC>MOL_PROPERTY
VdW
SciTegic.value.DoubleValue
0.881

@<SCITEGIC>MOL_PROPERTY
VdW6
SciTegic.value.DoubleValue
-11.389

@<SCITEGIC>MOL_PROPERTY
VdW12
SciTegic.value.DoubleValue
12.271

@<SCITEGIC>MOL_PROPERTY
Bond
SciTegic.value.DoubleValue
0.286

@<SCITEGIC>MOL_PROPERTY
Angle
SciTegic.value.DoubleValue
3.973

@<SCITEGIC>MOL_PROPERTY
Pdih
SciTegic.value.DoubleValue
6.285

@<SCITEGIC>MOL_PROPERTY
Idih
SciTegic.value.DoubleValue
0.006

@<SCITEGIC>MOL_PROPERTY
Tether
SciTegic.value.DoubleValue
0.000

@<TRIPOS>MOLECULE
guest-8_vm2.mol2 : vm2 ligand conformer 153
          25          24           1
SMALL
USER_CHARGES
 
@<TRIPOS>ATOM
       1    C1      20.350998   19.548653   27.128059 C.2        1 MOL1         0.6168
       2    O1      21.295627   20.312642   27.155835 O.co2      1 MOL1        -0.6703
       3    O2      19.551810   19.433443   28.036305 O.co2      1 MOL1        -0.6703
       4    C2      20.144911   18.702803   25.876666 C.3        1 MOL1        -0.1963
       5    H1      19.685500   17.753949   26.178023 H          1 MOL1         0.0750
       6    H2      21.133802   18.471232   25.464821 H          1 MOL1         0.0750
       7    C3      19.265459   19.409667   24.813044 C.3        1 MOL1        -0.1860
       8    H3      18.322351   19.718028   25.284912 H          1 MOL1         0.0752
       9    H4      19.754865   20.337289   24.489411 H          1 MOL1         0.0752
      10    C4      18.931905   18.521239   23.587085 C.3        1 MOL1        -0.1858
      11    H5      18.302662   19.097539   22.900150 H          1 MOL1         0.0752
      12    H6      18.306400   17.684206   23.925641 H          1 MOL1         0.0752
      13    C5      20.152725   17.935388   22.825189 C.3        1 MOL1        -0.1858
      14    H7      20.694523   17.265612   23.505448 H          1 MOL1         0.0752
      15    H8      19.794358   17.289956   22.011992 H          1 MOL1         0.0752
      16    C6      21.158463   18.969620   22.250380 C.3        1 MOL1        -0.1858
      17    H9      22.148229   18.493657   22.230580 H          1 MOL1         0.0752
      18    H10     21.266025   19.830670   22.920458 H          1 MOL1         0.0752
      19    C7      20.857391   19.452786   20.809709 C.3        1 MOL1        -0.1834
      20    H11     21.688959   20.091007   20.480585 H          1 MOL1         0.0752
      21    H12     20.842423   18.592970   20.125910 H          1 MOL1         0.0752
      22    C8      19.543711   20.247761   20.663728 C.3        1 MOL1        -0.2849
      23    H13     19.490702   20.721821   19.675206 H          1 MOL1         0.0764
      24    H14     18.671865   19.589643   20.757520 H          1 MOL1         0.0764
      25    H15     19.472454   21.037075   21.423343 H          1 MOL1         0.0764
@<TRIPOS>BOND
    1     1     2    1
    2     1     3    2
    3     1     4    1
    4     4     5    1
    5     4     6    1
    6     4     7    1
    7     7     8    1
    8     7     9    1
    9     7    10    1
   10    10    11    1
   11    10    12    1
   12    10    13    1
   13    13    14    1
   14    13    15    1
   15    13    16    1
   16    16    17    1
   17    16    18    1
   18    16    19    1
   19    19    20    1
   20    19    21    1
   21    19    22    1
   22    22    23    1
   23    22    24    1
   24    22    25    1
@<TRIPOS>SUBSTRUCTURE
       1 MOL1            1 RESIDUE      1      MOL     
@<SCITEGIC>MOL_PROPERTY
VM2 Rank
SciTegic.value.IntegerValue
153

@<SCITEGIC>MOL_PROPERTY
Conf_Id
SciTegic.value.IntegerValue
1364

@<SCITEGIC>MOL_PROPERTY
Probability
SciTegic.value.DoubleValue
0.00

@<SCITEGIC>MOL_PROPERTY
Sum Probability
SciTegic.value.DoubleValue
99.98

@<SCITEGIC>MOL_PROPERTY
Delta G
SciTegic.value.DoubleValue
5.686

@<SCITEGIC>MOL_PROPERTY
G
SciTegic.value.DoubleValue
-2.277

@<SCITEGIC>MOL_PROPERTY
E
SciTegic.value.DoubleValue
-26.879

@<SCITEGIC>MOL_PROPERTY
-TS
SciTegic.value.DoubleValue
24.602

@<SCITEGIC>MOL_PROPERTY
U+W
SciTegic.value.DoubleValue
-47.446

@<SCITEGIC>MOL_PROPERTY
U
SciTegic.value.DoubleValue
12.175

@<SCITEGIC>MOL_PROPERTY
W
SciTegic.value.DoubleValue
-59.621

@<SCITEGIC>MOL_PROPERTY
W(PB)
SciTegic.value.DoubleValue
-62.021

@<SCITEGIC>MOL_PROPERTY
W(SA)
SciTegic.value.DoubleValue
2.400

@<SCITEGIC>MOL_PROPERTY
Valence
SciTegic.value.DoubleValue
11.759

@<SCITEGIC>MOL_PROPERTY
Coulomb
SciTegic.value.DoubleValue
-0.598

@<SCITEGIC>MOL_PROPERTY
VdW
SciTegic.value.DoubleValue
1.014

@<SCITEGIC>MOL_PROPERTY
VdW6
SciTegic.value.DoubleValue
-10.892

@<SCITEGIC>MOL_PROPERTY
VdW12
SciTegic.value.DoubleValue
11.906

@<SCITEGIC>MOL_PROPERTY
Bond
SciTegic.value.DoubleValue
0.319

@<SCITEGIC>MOL_PROPERTY
Angle
SciTegic.value.DoubleValue
4.235

@<SCITEGIC>MOL_PROPERTY
Pdih
SciTegic.value.DoubleValue
7.204

@<SCITEGIC>MOL_PROPERTY
Idih
SciTegic.value.DoubleValue
0.001

@<SCITEGIC>MOL_PROPERTY
Tether
SciTegic.value.DoubleValue
0.000

@<TRIPOS>MOLECULE
guest-8_vm2.mol2 : vm2 ligand conformer 154
          25          24           1
SMALL
USER_CHARGES
 
@<TRIPOS>ATOM
       1    C1      20.136302   19.690223   26.772880 C.2        1 MOL1         0.6168
       2    O1      21.182345   20.290998   26.921794 O.co2      1 MOL1        -0.6703
       3    O2      19.043302   20.196623   26.935816 O.co2      1 MOL1        -0.6703
       4    C2      20.202730   18.203345   26.429285 C.3        1 MOL1        -0.1963
       5    H1      19.766082   17.671250   27.282324 H          1 MOL1         0.0750
       6    H2      21.254116   17.896443   26.373161 H          1 MOL1         0.0750
       7    C3      19.449297   17.786703   25.134564 C.3        1 MOL1        -0.1860
       8    H3      19.234833   16.711475   25.199982 H          1 MOL1         0.0752
       9    H4      18.471808   18.286916   25.091353 H          1 MOL1         0.0752
      10    C4      20.229182   18.030622   23.818460 C.3        1 MOL1        -0.1858
      11    H5      19.671397   17.545024   23.007906 H          1 MOL1         0.0752
      12    H6      21.205016   17.528904   23.867736 H          1 MOL1         0.0752
      13    C5      20.428977   19.525900   23.471973 C.3        1 MOL1        -0.1858
      14    H7      19.460397   20.042537   23.475406 H          1 MOL1         0.0752
      15    H8      21.030889   20.001550   24.255523 H          1 MOL1         0.0752
      16    C6      21.152092   19.759098   22.120763 C.3        1 MOL1        -0.1858
      17    H9      22.150416   19.303384   22.168716 H          1 MOL1         0.0752
      18    H10     21.318135   20.837718   21.995642 H          1 MOL1         0.0752
      19    C7      20.417672   19.221928   20.866972 C.3        1 MOL1        -0.1834
      20    H11     21.026012   19.452024   19.981530 H          1 MOL1         0.0752
      21    H12     20.346669   18.127186   20.907368 H          1 MOL1         0.0752
      22    C8      19.011102   19.828561   20.673492 C.3        1 MOL1        -0.2849
      23    H13     19.055300   20.925223   20.654776 H          1 MOL1         0.0764
      24    H14     18.573873   19.490699   19.725111 H          1 MOL1         0.0764
      25    H15     18.331895   19.524193   21.479828 H          1 MOL1         0.0764
@<TRIPOS>BOND
    1     1     2    1
    2     1     3    2
    3     1     4    1
    4     4     5    1
    5     4     6    1
    6     4     7    1
    7     7     8    1
    8     7     9    1
    9     7    10    1
   10    10    11    1
   11    10    12    1
   12    10    13    1
   13    13    14    1
   14    13    15    1
   15    13    16    1
   16    16    17    1
   17    16    18    1
   18    16    19    1
   19    19    20    1
   20    19    21    1
   21    19    22    1
   22    22    23    1
   23    22    24    1
   24    22    25    1
@<TRIPOS>SUBSTRUCTURE
       1 MOL1            1 RESIDUE      1      MOL     
@<SCITEGIC>MOL_PROPERTY
VM2 Rank
SciTegic.value.IntegerValue
154

@<SCITEGIC>MOL_PROPERTY
Conf_Id
SciTegic.value.IntegerValue
1353

@<SCITEGIC>MOL_PROPERTY
Probability
SciTegic.value.DoubleValue
0.00

@<SCITEGIC>MOL_PROPERTY
Sum Probability
SciTegic.value.DoubleValue
99.99

@<SCITEGIC>MOL_PROPERTY
Delta G
SciTegic.value.DoubleValue
5.721

@<SCITEGIC>MOL_PROPERTY
G
SciTegic.value.DoubleValue
-2.241

@<SCITEGIC>MOL_PROPERTY
E
SciTegic.value.DoubleValue
-27.556

@<SCITEGIC>MOL_PROPERTY
-TS
SciTegic.value.DoubleValue
25.314

@<SCITEGIC>MOL_PROPERTY
U+W
SciTegic.value.DoubleValue
-48.123

@<SCITEGIC>MOL_PROPERTY
U
SciTegic.value.DoubleValue
12.472

@<SCITEGIC>MOL_PROPERTY
W
SciTegic.value.DoubleValue
-60.595

@<SCITEGIC>MOL_PROPERTY
W(PB)
SciTegic.value.DoubleValue
-62.983

@<SCITEGIC>MOL_PROPERTY
W(SA)
SciTegic.value.DoubleValue
2.387

@<SCITEGIC>MOL_PROPERTY
Valence
SciTegic.value.DoubleValue
10.551

@<SCITEGIC>MOL_PROPERTY
Coulomb
SciTegic.value.DoubleValue
1.040

@<SCITEGIC>MOL_PROPERTY
VdW
SciTegic.value.DoubleValue
0.882

@<SCITEGIC>MOL_PROPERTY
VdW6
SciTegic.value.DoubleValue
-11.390

@<SCITEGIC>MOL_PROPERTY
VdW12
SciTegic.value.DoubleValue
12.271

@<SCITEGIC>MOL_PROPERTY
Bond
SciTegic.value.DoubleValue
0.286

@<SCITEGIC>MOL_PROPERTY
Angle
SciTegic.value.DoubleValue
3.973

@<SCITEGIC>MOL_PROPERTY
Pdih
SciTegic.value.DoubleValue
6.285

@<SCITEGIC>MOL_PROPERTY
Idih
SciTegic.value.DoubleValue
0.006

@<SCITEGIC>MOL_PROPERTY
Tether
SciTegic.value.DoubleValue
0.000

@<TRIPOS>MOLECULE
guest-8_vm2.mol2 : vm2 ligand conformer 155
          25          24           1
SMALL
USER_CHARGES
 
@<TRIPOS>ATOM
       1    C1      19.734599   19.649551   26.533823 C.2        1 MOL1         0.6168
       2    O1      20.629405   20.219505   27.127357 O.co2      1 MOL1        -0.6703
       3    O2      18.678868   20.177793   26.244688 O.co2      1 MOL1        -0.6703
       4    C2      19.916477   18.171385   26.194484 C.3        1 MOL1        -0.1963
       5    H1      19.004975   17.803361   25.708124 H          1 MOL1         0.0750
       6    H2      19.997126   17.642776   27.151281 H          1 MOL1         0.0750
       7    C3      21.161714   17.838069   25.325357 C.3        1 MOL1        -0.1860
       8    H3      22.041141   18.373817   25.708859 H          1 MOL1         0.0752
       9    H4      21.383008   16.769020   25.445778 H          1 MOL1         0.0752
      10    C4      20.987372   18.116349   23.811759 C.3        1 MOL1        -0.1858
      11    H5      20.107644   17.573155   23.442208 H          1 MOL1         0.0752
      12    H6      21.855051   17.699269   23.282833 H          1 MOL1         0.0752
      13    C5      20.865273   19.618093   23.458816 C.3        1 MOL1        -0.1858
      14    H7      19.920989   20.020563   23.844721 H          1 MOL1         0.0752
      15    H8      21.665289   20.172865   23.967588 H          1 MOL1         0.0752
      16    C6      20.960951   19.900604   21.938214 C.3        1 MOL1        -0.1858
      17    H9      21.951933   19.590216   21.580150 H          1 MOL1         0.0752
      18    H10     20.906895   20.985872   21.777397 H          1 MOL1         0.0752
      19    C7      19.878671   19.211007   21.070940 C.3        1 MOL1        -0.1834
      20    H11     20.061159   19.463417   20.017393 H          1 MOL1         0.0752
      21    H12     19.975101   18.119562   21.142788 H          1 MOL1         0.0752
      22    C8      18.439668   19.631646   21.440562 C.3        1 MOL1        -0.2849
      23    H13     18.174785   19.299784   22.452629 H          1 MOL1         0.0764
      24    H14     18.325426   20.722432   21.395201 H          1 MOL1         0.0764
      25    H15     17.717719   19.185851   20.744335 H          1 MOL1         0.0764
@<TRIPOS>BOND
    1     1     2    1
    2     1     3    2
    3     1     4    1
    4     4     5    1
    5     4     6    1
    6     4     7    1
    7     7     8    1
    8     7     9    1
    9     7    10    1
   10    10    11    1
   11    10    12    1
   12    10    13    1
   13    13    14    1
   14    13    15    1
   15    13    16    1
   16    16    17    1
   17    16    18    1
   18    16    19    1
   19    19    20    1
   20    19    21    1
   21    19    22    1
   22    22    23    1
   23    22    24    1
   24    22    25    1
@<TRIPOS>SUBSTRUCTURE
       1 MOL1            1 RESIDUE      1      MOL     
@<SCITEGIC>MOL_PROPERTY
VM2 Rank
SciTegic.value.IntegerValue
155

@<SCITEGIC>MOL_PROPERTY
Conf_Id
SciTegic.value.IntegerValue
570

@<SCITEGIC>MOL_PROPERTY
Probability
SciTegic.value.DoubleValue
0.00

@<SCITEGIC>MOL_PROPERTY
Sum Probability
SciTegic.value.DoubleValue
99.99

@<SCITEGIC>MOL_PROPERTY
Delta G
SciTegic.value.DoubleValue
5.805

@<SCITEGIC>MOL_PROPERTY
G
SciTegic.value.DoubleValue
-2.158

@<SCITEGIC>MOL_PROPERTY
E
SciTegic.value.DoubleValue
-27.601

@<SCITEGIC>MOL_PROPERTY
-TS
SciTegic.value.DoubleValue
25.443

@<SCITEGIC>MOL_PROPERTY
U+W
SciTegic.value.DoubleValue
-48.168

@<SCITEGIC>MOL_PROPERTY
U
SciTegic.value.DoubleValue
12.721

@<SCITEGIC>MOL_PROPERTY
W
SciTegic.value.DoubleValue
-60.889

@<SCITEGIC>MOL_PROPERTY
W(PB)
SciTegic.value.DoubleValue
-63.243

@<SCITEGIC>MOL_PROPERTY
W(SA)
SciTegic.value.DoubleValue
2.355

@<SCITEGIC>MOL_PROPERTY
Valence
SciTegic.value.DoubleValue
10.325

@<SCITEGIC>MOL_PROPERTY
Coulomb
SciTegic.value.DoubleValue
1.749

@<SCITEGIC>MOL_PROPERTY
VdW
SciTegic.value.DoubleValue
0.646

@<SCITEGIC>MOL_PROPERTY
VdW6
SciTegic.value.DoubleValue
-11.745

@<SCITEGIC>MOL_PROPERTY
VdW12
SciTegic.value.DoubleValue
12.390

@<SCITEGIC>MOL_PROPERTY
Bond
SciTegic.value.DoubleValue
0.275

@<SCITEGIC>MOL_PROPERTY
Angle
SciTegic.value.DoubleValue
3.728

@<SCITEGIC>MOL_PROPERTY
Pdih
SciTegic.value.DoubleValue
6.316

@<SCITEGIC>MOL_PROPERTY
Idih
SciTegic.value.DoubleValue
0.007

@<SCITEGIC>MOL_PROPERTY
Tether
SciTegic.value.DoubleValue
0.000

@<TRIPOS>MOLECULE
guest-8_vm2.mol2 : vm2 ligand conformer 156
          25          24           1
SMALL
USER_CHARGES
 
@<TRIPOS>ATOM
       1    C1      19.667431   19.048008   26.546907 C.2        1 MOL1         0.6168
       2    O1      20.417533   18.320653   27.168282 O.co2      1 MOL1        -0.6703
       3    O2      18.519956   18.753453   26.275351 O.co2      1 MOL1        -0.6703
       4    C2      20.168949   20.433904   26.145670 C.3        1 MOL1        -0.1963
       5    H1      20.368590   20.972094   27.079418 H          1 MOL1         0.0750
       6    H2      19.358662   20.972620   25.639660 H          1 MOL1         0.0750
       7    C3      21.452922   20.447235   25.269120 C.3        1 MOL1        -0.1860
       8    H3      21.904957   21.445359   25.344948 H          1 MOL1         0.0752
       9    H4      22.194445   19.747683   25.679318 H          1 MOL1         0.0752
      10    C4      21.214406   20.149978   23.767931 C.3        1 MOL1        -0.1858
      11    H5      22.150209   20.342508   23.225906 H          1 MOL1         0.0752
      12    H6      20.474398   20.857541   23.371326 H          1 MOL1         0.0752
      13    C5      20.762470   18.698489   23.478719 C.3        1 MOL1        -0.1858
      14    H7      21.422807   18.003151   24.014544 H          1 MOL1         0.0752
      15    H8      19.754490   18.531008   23.876846 H          1 MOL1         0.0752
      16    C6      20.786371   18.337260   21.972019 C.3        1 MOL1        -0.1858
      17    H9      20.493540   17.284791   21.857344 H          1 MOL1         0.0752
      18    H10     21.819721   18.405892   21.605859 H          1 MOL1         0.0752
      19    C7      19.878782   19.210937   21.070904 C.3        1 MOL1        -0.1834
      20    H11     20.213836   20.256302   21.096681 H          1 MOL1         0.0752
      21    H12     19.996226   18.879850   20.029960 H          1 MOL1         0.0752
      22    C8      18.384181   19.134083   21.451099 C.3        1 MOL1        -0.2849
      23    H13     17.775062   19.697991   20.733004 H          1 MOL1         0.0764
      24    H14     18.032034   18.094412   21.451698 H          1 MOL1         0.0764
      25    H15     18.203703   19.559016   22.446807 H          1 MOL1         0.0764
@<TRIPOS>BOND
    1     1     2    1
    2     1     3    2
    3     1     4    1
    4     4     5    1
    5     4     6    1
    6     4     7    1
    7     7     8    1
    8     7     9    1
    9     7    10    1
   10    10    11    1
   11    10    12    1
   12    10    13    1
   13    13    14    1
   14    13    15    1
   15    13    16    1
   16    16    17    1
   17    16    18    1
   18    16    19    1
   19    19    20    1
   20    19    21    1
   21    19    22    1
   22    22    23    1
   23    22    24    1
   24    22    25    1
@<TRIPOS>SUBSTRUCTURE
       1 MOL1            1 RESIDUE      1      MOL     
@<SCITEGIC>MOL_PROPERTY
VM2 Rank
SciTegic.value.IntegerValue
156

@<SCITEGIC>MOL_PROPERTY
Conf_Id
SciTegic.value.IntegerValue
1111

@<SCITEGIC>MOL_PROPERTY
Probability
SciTegic.value.DoubleValue
0.00

@<SCITEGIC>MOL_PROPERTY
Sum Probability
SciTegic.value.DoubleValue
99.99

@<SCITEGIC>MOL_PROPERTY
Delta G
SciTegic.value.DoubleValue
5.811

@<SCITEGIC>MOL_PROPERTY
G
SciTegic.value.DoubleValue
-2.151

@<SCITEGIC>MOL_PROPERTY
E
SciTegic.value.DoubleValue
-27.594

@<SCITEGIC>MOL_PROPERTY
-TS
SciTegic.value.DoubleValue
25.443

@<SCITEGIC>MOL_PROPERTY
U+W
SciTegic.value.DoubleValue
-48.162

@<SCITEGIC>MOL_PROPERTY
U
SciTegic.value.DoubleValue
12.721

@<SCITEGIC>MOL_PROPERTY
W
SciTegic.value.DoubleValue
-60.883

@<SCITEGIC>MOL_PROPERTY
W(PB)
SciTegic.value.DoubleValue
-63.248

@<SCITEGIC>MOL_PROPERTY
W(SA)
SciTegic.value.DoubleValue
2.365

@<SCITEGIC>MOL_PROPERTY
Valence
SciTegic.value.DoubleValue
10.325

@<SCITEGIC>MOL_PROPERTY
Coulomb
SciTegic.value.DoubleValue
1.750

@<SCITEGIC>MOL_PROPERTY
VdW
SciTegic.value.DoubleValue
0.646

@<SCITEGIC>MOL_PROPERTY
VdW6
SciTegic.value.DoubleValue
-11.745

@<SCITEGIC>MOL_PROPERTY
VdW12
SciTegic.value.DoubleValue
12.391

@<SCITEGIC>MOL_PROPERTY
Bond
SciTegic.value.DoubleValue
0.275

@<SCITEGIC>MOL_PROPERTY
Angle
SciTegic.value.DoubleValue
3.728

@<SCITEGIC>MOL_PROPERTY
Pdih
SciTegic.value.DoubleValue
6.316

@<SCITEGIC>MOL_PROPERTY
Idih
SciTegic.value.DoubleValue
0.007

@<SCITEGIC>MOL_PROPERTY
Tether
SciTegic.value.DoubleValue
0.000

@<TRIPOS>MOLECULE
guest-8_vm2.mol2 : vm2 ligand conformer 157
          25          24           1
SMALL
USER_CHARGES
 
@<TRIPOS>ATOM
       1    C1      19.899665   19.622770   26.982894 C.2        1 MOL1         0.6168
       2    O1      20.719922   19.757647   27.869415 O.co2      1 MOL1        -0.6703
       3    O2      18.834345   20.206901   26.957301 O.co2      1 MOL1        -0.6703
       4    C2      20.233941   18.682570   25.830417 C.3        1 MOL1        -0.1963
       5    H1      19.294716   18.244279   25.474414 H          1 MOL1         0.0750
       6    H2      20.847477   17.864074   26.225090 H          1 MOL1         0.0750
       7    C3      20.974838   19.396054   24.670197 C.3        1 MOL1        -0.1860
       8    H3      20.335757   20.190952   24.264692 H          1 MOL1         0.0752
       9    H4      21.864579   19.897648   25.074853 H          1 MOL1         0.0752
      10    C4      21.421071   18.435864   23.538435 C.3        1 MOL1        -0.1858
      11    H5      22.120620   17.700231   23.957894 H          1 MOL1         0.0752
      12    H6      21.998254   18.995413   22.792070 H          1 MOL1         0.0752
      13    C5      20.272614   17.672831   22.830621 C.3        1 MOL1        -0.1858
      14    H7      20.707708   17.020360   22.061618 H          1 MOL1         0.0752
      15    H8      19.798015   16.995335   23.552236 H          1 MOL1         0.0752
      16    C6      19.171199   18.548691   22.176585 C.3        1 MOL1        -0.1858
      17    H9      18.686711   19.189285   22.925096 H          1 MOL1         0.0752
      18    H10     18.385071   17.866854   21.824849 H          1 MOL1         0.0752
      19    C7      19.640064   19.388927   20.961558 C.3        1 MOL1        -0.1834
      20    H11     20.444395   18.867061   20.425236 H          1 MOL1         0.0752
      21    H12     18.803780   19.468841   20.253413 H          1 MOL1         0.0752
      22    C8      20.085342   20.821745   21.328577 C.3        1 MOL1        -0.2849
      23    H13     20.331803   21.389597   20.422221 H          1 MOL1         0.0764
      24    H14     19.284634   21.358422   21.853706 H          1 MOL1         0.0764
      25    H15     20.973055   20.821882   21.969909 H          1 MOL1         0.0764
@<TRIPOS>BOND
    1     1     2    1
    2     1     3    2
    3     1     4    1
    4     4     5    1
    5     4     6    1
    6     4     7    1
    7     7     8    1
    8     7     9    1
    9     7    10    1
   10    10    11    1
   11    10    12    1
   12    10    13    1
   13    13    14    1
   14    13    15    1
   15    13    16    1
   16    16    17    1
   17    16    18    1
   18    16    19    1
   19    19    20    1
   20    19    21    1
   21    19    22    1
   22    22    23    1
   23    22    24    1
   24    22    25    1
@<TRIPOS>SUBSTRUCTURE
       1 MOL1            1 RESIDUE      1      MOL     
@<SCITEGIC>MOL_PROPERTY
VM2 Rank
SciTegic.value.IntegerValue
157

@<SCITEGIC>MOL_PROPERTY
Conf_Id
SciTegic.value.IntegerValue
840

@<SCITEGIC>MOL_PROPERTY
Probability
SciTegic.value.DoubleValue
0.00

@<SCITEGIC>MOL_PROPERTY
Sum Probability
SciTegic.value.DoubleValue
99.99

@<SCITEGIC>MOL_PROPERTY
Delta G
SciTegic.value.DoubleValue
5.988

@<SCITEGIC>MOL_PROPERTY
G
SciTegic.value.DoubleValue
-1.975

@<SCITEGIC>MOL_PROPERTY
E
SciTegic.value.DoubleValue
-27.400

@<SCITEGIC>MOL_PROPERTY
-TS
SciTegic.value.DoubleValue
25.426

@<SCITEGIC>MOL_PROPERTY
U+W
SciTegic.value.DoubleValue
-47.968

@<SCITEGIC>MOL_PROPERTY
U
SciTegic.value.DoubleValue
12.079

@<SCITEGIC>MOL_PROPERTY
W
SciTegic.value.DoubleValue
-60.047

@<SCITEGIC>MOL_PROPERTY
W(PB)
SciTegic.value.DoubleValue
-62.432

@<SCITEGIC>MOL_PROPERTY
W(SA)
SciTegic.value.DoubleValue
2.386

@<SCITEGIC>MOL_PROPERTY
Valence
SciTegic.value.DoubleValue
11.557

@<SCITEGIC>MOL_PROPERTY
Coulomb
SciTegic.value.DoubleValue
-0.145

@<SCITEGIC>MOL_PROPERTY
VdW
SciTegic.value.DoubleValue
0.667

@<SCITEGIC>MOL_PROPERTY
VdW6
SciTegic.value.DoubleValue
-11.343

@<SCITEGIC>MOL_PROPERTY
VdW12
SciTegic.value.DoubleValue
12.010

@<SCITEGIC>MOL_PROPERTY
Bond
SciTegic.value.DoubleValue
0.285

@<SCITEGIC>MOL_PROPERTY
Angle
SciTegic.value.DoubleValue
4.008

@<SCITEGIC>MOL_PROPERTY
Pdih
SciTegic.value.DoubleValue
7.263

@<SCITEGIC>MOL_PROPERTY
Idih
SciTegic.value.DoubleValue
0.001

@<SCITEGIC>MOL_PROPERTY
Tether
SciTegic.value.DoubleValue
0.000

@<TRIPOS>MOLECULE
guest-8_vm2.mol2 : vm2 ligand conformer 158
          25          24           1
SMALL
USER_CHARGES
 
@<TRIPOS>ATOM
       1    C1      19.992408   19.958761   26.167027 C.2        1 MOL1         0.6168
       2    O1      20.948785   20.708892   26.182574 O.co2      1 MOL1        -0.6703
       3    O2      18.850464   20.330314   25.978118 O.co2      1 MOL1        -0.6703
       4    C2      20.223661   18.489492   26.515006 C.3        1 MOL1        -0.1963
       5    H1      19.636468   18.291768   27.419253 H          1 MOL1         0.0750
       6    H2      21.276406   18.348310   26.787843 H          1 MOL1         0.0750
       7    C3      19.809749   17.474425   25.412625 C.3        1 MOL1        -0.1860
       8    H3      19.637545   16.503867   25.897021 H          1 MOL1         0.0752
       9    H4      18.843259   17.762686   24.978353 H          1 MOL1         0.0752
      10    C4      20.868743   17.257460   24.300242 C.3        1 MOL1        -0.1858
      11    H5      20.533220   16.434460   23.654577 H          1 MOL1         0.0752
      12    H6      21.803993   16.913733   24.762642 H          1 MOL1         0.0752
      13    C5      21.176755   18.486366   23.410007 C.3        1 MOL1        -0.1858
      14    H7      21.598829   19.296245   24.018161 H          1 MOL1         0.0752
      15    H8      21.962361   18.205050   22.695744 H          1 MOL1         0.0752
      16    C6      19.949680   19.002727   22.623726 C.3        1 MOL1        -0.1858
      17    H9      19.179714   19.355319   23.322603 H          1 MOL1         0.0752
      18    H10     19.508357   18.178433   22.047367 H          1 MOL1         0.0752
      19    C7      20.328342   20.155710   21.670567 C.3        1 MOL1        -0.1834
      20    H11     20.765185   20.982017   22.248704 H          1 MOL1         0.0752
      21    H12     21.098748   19.816431   20.964454 H          1 MOL1         0.0752
      22    C8      19.104414   20.669853   20.886108 C.3        1 MOL1        -0.2849
      23    H13     18.330875   21.045009   21.569084 H          1 MOL1         0.0764
      24    H14     19.391236   21.489990   20.215233 H          1 MOL1         0.0764
      25    H15     18.664674   19.870113   20.275926 H          1 MOL1         0.0764
@<TRIPOS>BOND
    1     1     2    1
    2     1     3    2
    3     1     4    1
    4     4     5    1
    5     4     6    1
    6     4     7    1
    7     7     8    1
    8     7     9    1
    9     7    10    1
   10    10    11    1
   11    10    12    1
   12    10    13    1
   13    13    14    1
   14    13    15    1
   15    13    16    1
   16    16    17    1
   17    16    18    1
   18    16    19    1
   19    19    20    1
   20    19    21    1
   21    19    22    1
   22    22    23    1
   23    22    24    1
   24    22    25    1
@<TRIPOS>SUBSTRUCTURE
       1 MOL1            1 RESIDUE      1      MOL     
@<SCITEGIC>MOL_PROPERTY
VM2 Rank
SciTegic.value.IntegerValue
158

@<SCITEGIC>MOL_PROPERTY
Conf_Id
SciTegic.value.IntegerValue
1118

@<SCITEGIC>MOL_PROPERTY
Probability
SciTegic.value.DoubleValue
0.00

@<SCITEGIC>MOL_PROPERTY
Sum Probability
SciTegic.value.DoubleValue
99.99

@<SCITEGIC>MOL_PROPERTY
Delta G
SciTegic.value.DoubleValue
6.001

@<SCITEGIC>MOL_PROPERTY
G
SciTegic.value.DoubleValue
-1.961

@<SCITEGIC>MOL_PROPERTY
E
SciTegic.value.DoubleValue
-27.678

@<SCITEGIC>MOL_PROPERTY
-TS
SciTegic.value.DoubleValue
25.716

@<SCITEGIC>MOL_PROPERTY
U+W
SciTegic.value.DoubleValue
-48.245

@<SCITEGIC>MOL_PROPERTY
U
SciTegic.value.DoubleValue
13.046

@<SCITEGIC>MOL_PROPERTY
W
SciTegic.value.DoubleValue
-61.291

@<SCITEGIC>MOL_PROPERTY
W(PB)
SciTegic.value.DoubleValue
-63.664

@<SCITEGIC>MOL_PROPERTY
W(SA)
SciTegic.value.DoubleValue
2.373

@<SCITEGIC>MOL_PROPERTY
Valence
SciTegic.value.DoubleValue
10.098

@<SCITEGIC>MOL_PROPERTY
Coulomb
SciTegic.value.DoubleValue
2.795

@<SCITEGIC>MOL_PROPERTY
VdW
SciTegic.value.DoubleValue
0.153

@<SCITEGIC>MOL_PROPERTY
VdW6
SciTegic.value.DoubleValue
-11.571

@<SCITEGIC>MOL_PROPERTY
VdW12
SciTegic.value.DoubleValue
11.724

@<SCITEGIC>MOL_PROPERTY
Bond
SciTegic.value.DoubleValue
0.240

@<SCITEGIC>MOL_PROPERTY
Angle
SciTegic.value.DoubleValue
3.695

@<SCITEGIC>MOL_PROPERTY
Pdih
SciTegic.value.DoubleValue
6.145

@<SCITEGIC>MOL_PROPERTY
Idih
SciTegic.value.DoubleValue
0.017

@<SCITEGIC>MOL_PROPERTY
Tether
SciTegic.value.DoubleValue
0.000

@<TRIPOS>MOLECULE
guest-8_vm2.mol2 : vm2 ligand conformer 159
          25          24           1
SMALL
USER_CHARGES
 
@<TRIPOS>ATOM
       1    C1      20.781299   18.933525   26.162360 C.2        1 MOL1         0.6168
       2    O1      21.751552   19.665630   26.177441 O.co2      1 MOL1        -0.6703
       3    O2      20.846848   17.735602   25.966246 O.co2      1 MOL1        -0.6703
       4    C2      19.421968   19.531681   26.519779 C.3        1 MOL1        -0.1963
       5    H1      19.556572   20.583914   26.797868 H          1 MOL1         0.0750
       6    H2      19.084416   19.009764   27.422671 H          1 MOL1         0.0750
       7    C3      18.329767   19.397876   25.421541 C.3        1 MOL1        -0.1860
       8    H3      18.358829   18.392274   24.981416 H          1 MOL1         0.0752
       9    H4      17.349682   19.477303   25.910827 H          1 MOL1         0.0752
      10    C4      18.386335   20.483414   24.315039 C.3        1 MOL1        -0.1858
      11    H5      18.295700   21.472858   24.783484 H          1 MOL1         0.0752
      12    H6      17.501979   20.373542   23.672675 H          1 MOL1         0.0752
      13    C5      19.649163   20.471467   23.419092 C.3        1 MOL1        -0.1858
      14    H7      19.575309   21.306997   22.709923 H          1 MOL1         0.0752
      15    H8      20.542835   20.668526   24.024420 H          1 MOL1         0.0752
      16    C6      19.830466   19.157595   22.624454 C.3        1 MOL1        -0.1858
      17    H9      18.918114   18.945494   22.050834 H          1 MOL1         0.0752
      18    H10     19.977054   18.318995   23.317892 H          1 MOL1         0.0752
      19    C7      21.037824   19.233720   21.666456 C.3        1 MOL1        -0.1834
      20    H11     20.904219   20.069421   20.965753 H          1 MOL1         0.0752
      21    H12     21.950983   19.440912   22.241842 H          1 MOL1         0.0752
      22    C8      21.217777   17.923490   20.873592 C.3        1 MOL1        -0.2849
      23    H13     21.385175   17.075702   21.550937 H          1 MOL1         0.0764
      24    H14     20.329413   17.706876   20.266002 H          1 MOL1         0.0764
      25    H15     22.081099   17.994509   20.199353 H          1 MOL1         0.0764
@<TRIPOS>BOND
    1     1     2    1
    2     1     3    2
    3     1     4    1
    4     4     5    1
    5     4     6    1
    6     4     7    1
    7     7     8    1
    8     7     9    1
    9     7    10    1
   10    10    11    1
   11    10    12    1
   12    10    13    1
   13    13    14    1
   14    13    15    1
   15    13    16    1
   16    16    17    1
   17    16    18    1
   18    16    19    1
   19    19    20    1
   20    19    21    1
   21    19    22    1
   22    22    23    1
   23    22    24    1
   24    22    25    1
@<TRIPOS>SUBSTRUCTURE
       1 MOL1            1 RESIDUE      1      MOL     
@<SCITEGIC>MOL_PROPERTY
VM2 Rank
SciTegic.value.IntegerValue
159

@<SCITEGIC>MOL_PROPERTY
Conf_Id
SciTegic.value.IntegerValue
1325

@<SCITEGIC>MOL_PROPERTY
Probability
SciTegic.value.DoubleValue
0.00

@<SCITEGIC>MOL_PROPERTY
Sum Probability
SciTegic.value.DoubleValue
99.99

@<SCITEGIC>MOL_PROPERTY
Delta G
SciTegic.value.DoubleValue
6.028

@<SCITEGIC>MOL_PROPERTY
G
SciTegic.value.DoubleValue
-1.934

@<SCITEGIC>MOL_PROPERTY
E
SciTegic.value.DoubleValue
-27.651

@<SCITEGIC>MOL_PROPERTY
-TS
SciTegic.value.DoubleValue
25.716

@<SCITEGIC>MOL_PROPERTY
U+W
SciTegic.value.DoubleValue
-48.218

@<SCITEGIC>MOL_PROPERTY
U
SciTegic.value.DoubleValue
13.047

@<SCITEGIC>MOL_PROPERTY
W
SciTegic.value.DoubleValue
-61.265

@<SCITEGIC>MOL_PROPERTY
W(PB)
SciTegic.value.DoubleValue
-63.654

@<SCITEGIC>MOL_PROPERTY
W(SA)
SciTegic.value.DoubleValue
2.389

@<SCITEGIC>MOL_PROPERTY
Valence
SciTegic.value.DoubleValue
10.098

@<SCITEGIC>MOL_PROPERTY
Coulomb
SciTegic.value.DoubleValue
2.796

@<SCITEGIC>MOL_PROPERTY
VdW
SciTegic.value.DoubleValue
0.153

@<SCITEGIC>MOL_PROPERTY
VdW6
SciTegic.value.DoubleValue
-11.571

@<SCITEGIC>MOL_PROPERTY
VdW12
SciTegic.value.DoubleValue
11.724

@<SCITEGIC>MOL_PROPERTY
Bond
SciTegic.value.DoubleValue
0.240

@<SCITEGIC>MOL_PROPERTY
Angle
SciTegic.value.DoubleValue
3.695

@<SCITEGIC>MOL_PROPERTY
Pdih
SciTegic.value.DoubleValue
6.146

@<SCITEGIC>MOL_PROPERTY
Idih
SciTegic.value.DoubleValue
0.018

@<SCITEGIC>MOL_PROPERTY
Tether
SciTegic.value.DoubleValue
0.000

@<TRIPOS>MOLECULE
guest-8_vm2.mol2 : vm2 ligand conformer 160
          25          24           1
SMALL
USER_CHARGES
 
@<TRIPOS>ATOM
       1    C1      19.596936   19.634604   26.436140 C.2        1 MOL1         0.6168
       2    O1      20.159465   20.012679   27.445423 O.co2      1 MOL1        -0.6703
       3    O2      18.762969   20.293768   25.847605 O.co2      1 MOL1        -0.6703
       4    C2      19.918064   18.236158   25.912563 C.3        1 MOL1        -0.1963
       5    H1      19.267874   18.013153   25.059811 H          1 MOL1         0.0750
       6    H2      19.642537   17.528940   26.703230 H          1 MOL1         0.0750
       7    C3      21.408205   18.020897   25.534306 C.3        1 MOL1        -0.1860
       8    H3      22.023954   18.210844   26.424376 H          1 MOL1         0.0752
       9    H4      21.565105   16.964560   25.277755 H          1 MOL1         0.0752
      10    C4      21.928021   18.908760   24.374804 C.3        1 MOL1        -0.1858
      11    H5      23.013406   18.754064   24.305068 H          1 MOL1         0.0752
      12    H6      21.795357   19.972116   24.617621 H          1 MOL1         0.0752
      13    C5      21.311401   18.585189   22.989876 C.3        1 MOL1        -0.1858
      14    H7      22.099477   18.676635   22.229929 H          1 MOL1         0.0752
      15    H8      20.977683   17.539100   22.958741 H          1 MOL1         0.0752
      16    C6      20.152352   19.529583   22.594849 C.3        1 MOL1        -0.1858
      17    H9      20.511031   20.567854   22.594832 H          1 MOL1         0.0752
      18    H10     19.347566   19.476975   23.337357 H          1 MOL1         0.0752
      19    C7      19.583564   19.182979   21.202637 C.3        1 MOL1        -0.1834
      20    H11     20.381519   19.244848   20.449788 H          1 MOL1         0.0752
      21    H12     19.220788   18.145800   21.199422 H          1 MOL1         0.0752
      22    C8      18.432023   20.129381   20.807795 C.3        1 MOL1        -0.2849
      23    H13     18.775392   21.171544   20.771488 H          1 MOL1         0.0764
      24    H14     18.037534   19.867333   19.817493 H          1 MOL1         0.0764
      25    H15     17.607117   20.065675   21.529613 H          1 MOL1         0.0764
@<TRIPOS>BOND
    1     1     2    1
    2     1     3    2
    3     1     4    1
    4     4     5    1
    5     4     6    1
    6     4     7    1
    7     7     8    1
    8     7     9    1
    9     7    10    1
   10    10    11    1
   11    10    12    1
   12    10    13    1
   13    13    14    1
   14    13    15    1
   15    13    16    1
   16    16    17    1
   17    16    18    1
   18    16    19    1
   19    19    20    1
   20    19    21    1
   21    19    22    1
   22    22    23    1
   23    22    24    1
   24    22    25    1
@<TRIPOS>SUBSTRUCTURE
       1 MOL1            1 RESIDUE      1      MOL     
@<SCITEGIC>MOL_PROPERTY
VM2 Rank
SciTegic.value.IntegerValue
160

@<SCITEGIC>MOL_PROPERTY
Conf_Id
SciTegic.value.IntegerValue
744

@<SCITEGIC>MOL_PROPERTY
Probability
SciTegic.value.DoubleValue
0.00

@<SCITEGIC>MOL_PROPERTY
Sum Probability
SciTegic.value.DoubleValue
99.99

@<SCITEGIC>MOL_PROPERTY
Delta G
SciTegic.value.DoubleValue
6.077

@<SCITEGIC>MOL_PROPERTY
G
SciTegic.value.DoubleValue
-1.886

@<SCITEGIC>MOL_PROPERTY
E
SciTegic.value.DoubleValue
-27.013

@<SCITEGIC>MOL_PROPERTY
-TS
SciTegic.value.DoubleValue
25.127

@<SCITEGIC>MOL_PROPERTY
U+W
SciTegic.value.DoubleValue
-47.580

@<SCITEGIC>MOL_PROPERTY
U
SciTegic.value.DoubleValue
13.358

@<SCITEGIC>MOL_PROPERTY
W
SciTegic.value.DoubleValue
-60.938

@<SCITEGIC>MOL_PROPERTY
W(PB)
SciTegic.value.DoubleValue
-63.303

@<SCITEGIC>MOL_PROPERTY
W(SA)
SciTegic.value.DoubleValue
2.365

@<SCITEGIC>MOL_PROPERTY
Valence
SciTegic.value.DoubleValue
11.157

@<SCITEGIC>MOL_PROPERTY
Coulomb
SciTegic.value.DoubleValue
1.807

@<SCITEGIC>MOL_PROPERTY
VdW
SciTegic.value.DoubleValue
0.394

@<SCITEGIC>MOL_PROPERTY
VdW6
SciTegic.value.DoubleValue
-10.846

@<SCITEGIC>MOL_PROPERTY
VdW12
SciTegic.value.DoubleValue
11.240

@<SCITEGIC>MOL_PROPERTY
Bond
SciTegic.value.DoubleValue
0.228

@<SCITEGIC>MOL_PROPERTY
Angle
SciTegic.value.DoubleValue
3.384

@<SCITEGIC>MOL_PROPERTY
Pdih
SciTegic.value.DoubleValue
7.541

@<SCITEGIC>MOL_PROPERTY
Idih
SciTegic.value.DoubleValue
0.004

@<SCITEGIC>MOL_PROPERTY
Tether
SciTegic.value.DoubleValue
0.000

@<TRIPOS>MOLECULE
guest-8_vm2.mol2 : vm2 ligand conformer 161
          25          24           1
SMALL
USER_CHARGES
 
@<TRIPOS>ATOM
       1    C1      19.529157   19.431597   26.673269 C.2        1 MOL1         0.6168
       2    O1      19.934771   19.234410   27.801819 O.co2      1 MOL1        -0.6703
       3    O2      18.641484   20.216714   26.404513 O.co2      1 MOL1        -0.6703
       4    C2      20.186377   18.667937   25.529489 C.3        1 MOL1        -0.1963
       5    H1      19.415450   18.466224   24.777894 H          1 MOL1         0.0750
       6    H2      20.523645   17.698539   25.914959 H          1 MOL1         0.0750
       7    C3      21.378376   19.437170   24.902573 C.3        1 MOL1        -0.1860
       8    H3      21.041191   20.410596   24.524641 H          1 MOL1         0.0752
       9    H4      22.106241   19.658884   25.695107 H          1 MOL1         0.0752
      10    C4      22.097599   18.650668   23.780346 C.3        1 MOL1        -0.1858
      11    H5      22.495509   17.719044   24.205143 H          1 MOL1         0.0752
      12    H6      22.972812   19.227349   23.451553 H          1 MOL1         0.0752
      13    C5      21.235807   18.298775   22.538913 C.3        1 MOL1        -0.1858
      14    H7      21.864396   17.692986   21.872281 H          1 MOL1         0.0752
      15    H8      20.403926   17.643818   22.821959 H          1 MOL1         0.0752
      16    C6      20.735576   19.524031   21.726624 C.3        1 MOL1        -0.1858
      17    H9      20.738821   19.262055   20.659815 H          1 MOL1         0.0752
      18    H10     21.454797   20.347677   21.830315 H          1 MOL1         0.0752
      19    C7      19.317075   20.030552   22.090605 C.3        1 MOL1        -0.1834
      20    H11     19.246808   20.259635   23.160466 H          1 MOL1         0.0752
      21    H12     19.142241   20.979428   21.565372 H          1 MOL1         0.0752
      22    C8      18.196778   19.042146   21.697848 C.3        1 MOL1        -0.2849
      23    H13     18.261761   18.109293   22.270658 H          1 MOL1         0.0764
      24    H14     17.211280   19.483426   21.894983 H          1 MOL1         0.0764
      25    H15     18.247733   18.794255   20.629738 H          1 MOL1         0.0764
@<TRIPOS>BOND
    1     1     2    1
    2     1     3    2
    3     1     4    1
    4     4     5    1
    5     4     6    1
    6     4     7    1
    7     7     8    1
    8     7     9    1
    9     7    10    1
   10    10    11    1
   11    10    12    1
   12    10    13    1
   13    13    14    1
   14    13    15    1
   15    13    16    1
   16    16    17    1
   17    16    18    1
   18    16    19    1
   19    19    20    1
   20    19    21    1
   21    19    22    1
   22    22    23    1
   23    22    24    1
   24    22    25    1
@<TRIPOS>SUBSTRUCTURE
       1 MOL1            1 RESIDUE      1      MOL     
@<SCITEGIC>MOL_PROPERTY
VM2 Rank
SciTegic.value.IntegerValue
161

@<SCITEGIC>MOL_PROPERTY
Conf_Id
SciTegic.value.IntegerValue
977

@<SCITEGIC>MOL_PROPERTY
Probability
SciTegic.value.DoubleValue
0.00

@<SCITEGIC>MOL_PROPERTY
Sum Probability
SciTegic.value.DoubleValue
99.99

@<SCITEGIC>MOL_PROPERTY
Delta G
SciTegic.value.DoubleValue
6.256

@<SCITEGIC>MOL_PROPERTY
G
SciTegic.value.DoubleValue
-1.707

@<SCITEGIC>MOL_PROPERTY
E
SciTegic.value.DoubleValue
-27.165

@<SCITEGIC>MOL_PROPERTY
-TS
SciTegic.value.DoubleValue
25.459

@<SCITEGIC>MOL_PROPERTY
U+W
SciTegic.value.DoubleValue
-47.733

@<SCITEGIC>MOL_PROPERTY
U
SciTegic.value.DoubleValue
12.724

@<SCITEGIC>MOL_PROPERTY
W
SciTegic.value.DoubleValue
-60.457

@<SCITEGIC>MOL_PROPERTY
W(PB)
SciTegic.value.DoubleValue
-62.797

@<SCITEGIC>MOL_PROPERTY
W(SA)
SciTegic.value.DoubleValue
2.340

@<SCITEGIC>MOL_PROPERTY
Valence
SciTegic.value.DoubleValue
11.802

@<SCITEGIC>MOL_PROPERTY
Coulomb
SciTegic.value.DoubleValue
0.382

@<SCITEGIC>MOL_PROPERTY
VdW
SciTegic.value.DoubleValue
0.540

@<SCITEGIC>MOL_PROPERTY
VdW6
SciTegic.value.DoubleValue
-11.531

@<SCITEGIC>MOL_PROPERTY
VdW12
SciTegic.value.DoubleValue
12.070

@<SCITEGIC>MOL_PROPERTY
Bond
SciTegic.value.DoubleValue
0.296

@<SCITEGIC>MOL_PROPERTY
Angle
SciTegic.value.DoubleValue
3.953

@<SCITEGIC>MOL_PROPERTY
Pdih
SciTegic.value.DoubleValue
7.552

@<SCITEGIC>MOL_PROPERTY
Idih
SciTegic.value.DoubleValue
0.001

@<SCITEGIC>MOL_PROPERTY
Tether
SciTegic.value.DoubleValue
0.000

@<TRIPOS>MOLECULE
guest-8_vm2.mol2 : vm2 ligand conformer 162
          25          24           1
SMALL
USER_CHARGES
 
@<TRIPOS>ATOM
       1    C1      19.739679   19.656401   26.871193 C.2        1 MOL1         0.6168
       2    O1      19.969797   19.042101   27.894251 O.co2      1 MOL1        -0.6703
       3    O2      18.745034   20.333633   26.701897 O.co2      1 MOL1        -0.6703
       4    C2      20.746522   19.557208   25.730790 C.3        1 MOL1        -0.1963
       5    H1      21.747462   19.466193   26.168914 H          1 MOL1         0.0750
       6    H2      20.718514   20.503564   25.180174 H          1 MOL1         0.0750
       7    C3      20.464628   18.359432   24.786067 C.3        1 MOL1        -0.1860
       8    H3      20.436139   17.441817   25.389607 H          1 MOL1         0.0752
       9    H4      19.464789   18.466744   24.350422 H          1 MOL1         0.0752
      10    C4      21.532279   18.183010   23.676210 C.3        1 MOL1        -0.1858
      11    H5      21.392640   17.209260   23.187542 H          1 MOL1         0.0752
      12    H6      22.518327   18.132790   24.157850 H          1 MOL1         0.0752
      13    C5      21.563610   19.299434   22.597362 C.3        1 MOL1        -0.1858
      14    H7      21.278678   20.269951   23.019126 H          1 MOL1         0.0752
      15    H8      22.607045   19.420424   22.276263 H          1 MOL1         0.0752
      16    C6      20.729456   18.997326   21.324267 C.3        1 MOL1        -0.1858
      17    H9      21.089018   18.059859   20.878800 H          1 MOL1         0.0752
      18    H10     20.933926   19.779390   20.580489 H          1 MOL1         0.0752
      19    C7      19.198393   18.898056   21.522987 C.3        1 MOL1        -0.1834
      20    H11     18.738242   18.644096   20.558282 H          1 MOL1         0.0752
      21    H12     18.957838   18.066740   22.197350 H          1 MOL1         0.0752
      22    C8      18.563602   20.207399   22.040975 C.3        1 MOL1        -0.2849
      23    H13     18.794098   21.046320   21.371775 H          1 MOL1         0.0764
      24    H14     17.471925   20.109119   22.097089 H          1 MOL1         0.0764
      25    H15     18.926389   20.460425   23.045016 H          1 MOL1         0.0764
@<TRIPOS>BOND
    1     1     2    1
    2     1     3    2
    3     1     4    1
    4     4     5    1
    5     4     6    1
    6     4     7    1
    7     7     8    1
    8     7     9    1
    9     7    10    1
   10    10    11    1
   11    10    12    1
   12    10    13    1
   13    13    14    1
   14    13    15    1
   15    13    16    1
   16    16    17    1
   17    16    18    1
   18    16    19    1
   19    19    20    1
   20    19    21    1
   21    19    22    1
   22    22    23    1
   23    22    24    1
   24    22    25    1
@<TRIPOS>SUBSTRUCTURE
       1 MOL1            1 RESIDUE      1      MOL     
@<SCITEGIC>MOL_PROPERTY
VM2 Rank
SciTegic.value.IntegerValue
162

@<SCITEGIC>MOL_PROPERTY
Conf_Id
SciTegic.value.IntegerValue
137

@<SCITEGIC>MOL_PROPERTY
Probability
SciTegic.value.DoubleValue
0.00

@<SCITEGIC>MOL_PROPERTY
Sum Probability
SciTegic.value.DoubleValue
99.99

@<SCITEGIC>MOL_PROPERTY
Delta G
SciTegic.value.DoubleValue
6.278

@<SCITEGIC>MOL_PROPERTY
G
SciTegic.value.DoubleValue
-1.685

@<SCITEGIC>MOL_PROPERTY
E
SciTegic.value.DoubleValue
-27.070

@<SCITEGIC>MOL_PROPERTY
-TS
SciTegic.value.DoubleValue
25.385

@<SCITEGIC>MOL_PROPERTY
U+W
SciTegic.value.DoubleValue
-47.637

@<SCITEGIC>MOL_PROPERTY
U
SciTegic.value.DoubleValue
12.577

@<SCITEGIC>MOL_PROPERTY
W
SciTegic.value.DoubleValue
-60.214

@<SCITEGIC>MOL_PROPERTY
W(PB)
SciTegic.value.DoubleValue
-62.543

@<SCITEGIC>MOL_PROPERTY
W(SA)
SciTegic.value.DoubleValue
2.329

@<SCITEGIC>MOL_PROPERTY
Valence
SciTegic.value.DoubleValue
11.827

@<SCITEGIC>MOL_PROPERTY
Coulomb
SciTegic.value.DoubleValue
0.089

@<SCITEGIC>MOL_PROPERTY
VdW
SciTegic.value.DoubleValue
0.661

@<SCITEGIC>MOL_PROPERTY
VdW6
SciTegic.value.DoubleValue
-11.301

@<SCITEGIC>MOL_PROPERTY
VdW12
SciTegic.value.DoubleValue
11.961

@<SCITEGIC>MOL_PROPERTY
Bond
SciTegic.value.DoubleValue
0.300

@<SCITEGIC>MOL_PROPERTY
Angle
SciTegic.value.DoubleValue
3.988

@<SCITEGIC>MOL_PROPERTY
Pdih
SciTegic.value.DoubleValue
7.539

@<SCITEGIC>MOL_PROPERTY
Idih
SciTegic.value.DoubleValue
0.000

@<SCITEGIC>MOL_PROPERTY
Tether
SciTegic.value.DoubleValue
0.000

@<TRIPOS>MOLECULE
guest-8_vm2.mol2 : vm2 ligand conformer 163
          25          24           1
SMALL
USER_CHARGES
 
@<TRIPOS>ATOM
       1    C1      20.374659   19.440936   27.051016 C.2        1 MOL1         0.6168
       2    O1      21.301358   20.222222   27.140132 O.co2      1 MOL1        -0.6703
       3    O2      19.319625   19.578938   27.638363 O.co2      1 MOL1        -0.6703
       4    C2      20.555863   18.208282   26.169729 C.3        1 MOL1        -0.1963
       5    H1      19.820482   17.452135   26.470025 H          1 MOL1         0.0750
       6    H2      21.546306   17.791591   26.387283 H          1 MOL1         0.0750
       7    C3      20.438122   18.498101   24.650853 C.3        1 MOL1        -0.1860
       8    H3      21.168819   19.271676   24.380326 H          1 MOL1         0.0752
       9    H4      20.706097   17.591671   24.091609 H          1 MOL1         0.0752
      10    C4      19.017057   18.950029   24.242121 C.3        1 MOL1        -0.1858
      11    H5      18.783557   19.910217   24.722482 H          1 MOL1         0.0752
      12    H6      18.287149   18.227245   24.631478 H          1 MOL1         0.0752
      13    C5      18.808460   19.077494   22.712241 C.3        1 MOL1        -0.1858
      14    H7      18.947417   18.099189   22.235819 H          1 MOL1         0.0752
      15    H8      17.755898   19.342623   22.543722 H          1 MOL1         0.0752
      16    C6      19.691051   20.156446   22.029735 C.3        1 MOL1        -0.1858
      17    H9      19.934307   20.942505   22.757574 H          1 MOL1         0.0752
      18    H10     19.103356   20.651760   21.244852 H          1 MOL1         0.0752
      19    C7      20.997229   19.619777   21.392811 C.3        1 MOL1        -0.1834
      20    H11     21.634858   20.474634   21.128958 H          1 MOL1         0.0752
      21    H12     21.565415   19.025129   22.118332 H          1 MOL1         0.0752
      22    C8      20.749576   18.781777   20.118999 C.3        1 MOL1        -0.2849
      23    H13     20.189867   19.359192   19.371777 H          1 MOL1         0.0764
      24    H14     21.703408   18.481053   19.666647 H          1 MOL1         0.0764
      25    H15     20.184011   17.868384   20.339800 H          1 MOL1         0.0764
@<TRIPOS>BOND
    1     1     2    1
    2     1     3    2
    3     1     4    1
    4     4     5    1
    5     4     6    1
    6     4     7    1
    7     7     8    1
    8     7     9    1
    9     7    10    1
   10    10    11    1
   11    10    12    1
   12    10    13    1
   13    13    14    1
   14    13    15    1
   15    13    16    1
   16    16    17    1
   17    16    18    1
   18    16    19    1
   19    19    20    1
   20    19    21    1
   21    19    22    1
   22    22    23    1
   23    22    24    1
   24    22    25    1
@<TRIPOS>SUBSTRUCTURE
       1 MOL1            1 RESIDUE      1      MOL     
@<SCITEGIC>MOL_PROPERTY
VM2 Rank
SciTegic.value.IntegerValue
163

@<SCITEGIC>MOL_PROPERTY
Conf_Id
SciTegic.value.IntegerValue
707

@<SCITEGIC>MOL_PROPERTY
Probability
SciTegic.value.DoubleValue
0.00

@<SCITEGIC>MOL_PROPERTY
Sum Probability
SciTegic.value.DoubleValue
99.99

@<SCITEGIC>MOL_PROPERTY
Delta G
SciTegic.value.DoubleValue
6.290

@<SCITEGIC>MOL_PROPERTY
G
SciTegic.value.DoubleValue
-1.672

@<SCITEGIC>MOL_PROPERTY
E
SciTegic.value.DoubleValue
-26.816

@<SCITEGIC>MOL_PROPERTY
-TS
SciTegic.value.DoubleValue
25.143

@<SCITEGIC>MOL_PROPERTY
U+W
SciTegic.value.DoubleValue
-47.383

@<SCITEGIC>MOL_PROPERTY
U
SciTegic.value.DoubleValue
12.751

@<SCITEGIC>MOL_PROPERTY
W
SciTegic.value.DoubleValue
-60.134

@<SCITEGIC>MOL_PROPERTY
W(PB)
SciTegic.value.DoubleValue
-62.534

@<SCITEGIC>MOL_PROPERTY
W(SA)
SciTegic.value.DoubleValue
2.401

@<SCITEGIC>MOL_PROPERTY
Valence
SciTegic.value.DoubleValue
11.503

@<SCITEGIC>MOL_PROPERTY
Coulomb
SciTegic.value.DoubleValue
0.344

@<SCITEGIC>MOL_PROPERTY
VdW
SciTegic.value.DoubleValue
0.904

@<SCITEGIC>MOL_PROPERTY
VdW6
SciTegic.value.DoubleValue
-10.720

@<SCITEGIC>MOL_PROPERTY
VdW12
SciTegic.value.DoubleValue
11.623

@<SCITEGIC>MOL_PROPERTY
Bond
SciTegic.value.DoubleValue
0.257

@<SCITEGIC>MOL_PROPERTY
Angle
SciTegic.value.DoubleValue
3.380

@<SCITEGIC>MOL_PROPERTY
Pdih
SciTegic.value.DoubleValue
7.866

@<SCITEGIC>MOL_PROPERTY
Idih
SciTegic.value.DoubleValue
0.001

@<SCITEGIC>MOL_PROPERTY
Tether
SciTegic.value.DoubleValue
0.000

@<TRIPOS>MOLECULE
guest-8_vm2.mol2 : vm2 ligand conformer 164
          25          24           1
SMALL
USER_CHARGES
 
@<TRIPOS>ATOM
       1    C1      19.917169   19.412097   27.056202 C.2        1 MOL1         0.6168
       2    O1      20.959468   19.684003   27.619050 O.co2      1 MOL1        -0.6703
       3    O2      18.901071   20.069539   27.167729 O.co2      1 MOL1        -0.6703
       4    C2      19.873592   18.164853   26.177895 C.3        1 MOL1        -0.1963
       5    H1      18.949274   17.626284   26.417715 H          1 MOL1         0.0750
       6    H2      20.705663   17.508625   26.460292 H          1 MOL1         0.0750
       7    C3      19.918653   18.464605   24.657054 C.3        1 MOL1        -0.1860
       8    H3      19.754759   17.530588   24.103041 H          1 MOL1         0.0752
       9    H4      19.089869   19.138995   24.404395 H          1 MOL1         0.0752
      10    C4      21.261288   19.092059   24.216194 C.3        1 MOL1        -0.1858
      11    H5      22.085576   18.467939   24.587415 H          1 MOL1         0.0752
      12    H6      21.382548   20.074747   24.692485 H          1 MOL1         0.0752
      13    C5      21.416519   19.242735   22.682086 C.3        1 MOL1        -0.1858
      14    H7      22.422954   19.638461   22.489559 H          1 MOL1         0.0752
      15    H8      21.391184   18.254055   22.207487 H          1 MOL1         0.0752
      16    C6      20.389053   20.200616   22.022018 C.3        1 MOL1        -0.1858
      17    H9      20.891118   20.765460   21.224745 H          1 MOL1         0.0752
      18    H10     20.065113   20.950371   22.756691 H          1 MOL1         0.0752
      19    C7      19.146966   19.502253   21.414337 C.3        1 MOL1        -0.1834
      20    H11     18.675660   18.841063   22.151583 H          1 MOL1         0.0752
      21    H12     18.400246   20.269207   21.167029 H          1 MOL1         0.0752
      22    C8      19.469222   18.701241   20.133436 C.3        1 MOL1        -0.2849
      23    H13     20.151049   17.867172   20.339223 H          1 MOL1         0.0764
      24    H14     18.550979   18.281545   19.702695 H          1 MOL1         0.0764
      25    H15     19.933663   19.344290   19.374617 H          1 MOL1         0.0764
@<TRIPOS>BOND
    1     1     2    1
    2     1     3    2
    3     1     4    1
    4     4     5    1
    5     4     6    1
    6     4     7    1
    7     7     8    1
    8     7     9    1
    9     7    10    1
   10    10    11    1
   11    10    12    1
   12    10    13    1
   13    13    14    1
   14    13    15    1
   15    13    16    1
   16    16    17    1
   17    16    18    1
   18    16    19    1
   19    19    20    1
   20    19    21    1
   21    19    22    1
   22    22    23    1
   23    22    24    1
   24    22    25    1
@<TRIPOS>SUBSTRUCTURE
       1 MOL1            1 RESIDUE      1      MOL     
@<SCITEGIC>MOL_PROPERTY
VM2 Rank
SciTegic.value.IntegerValue
164

@<SCITEGIC>MOL_PROPERTY
Conf_Id
SciTegic.value.IntegerValue
422

@<SCITEGIC>MOL_PROPERTY
Probability
SciTegic.value.DoubleValue
0.00

@<SCITEGIC>MOL_PROPERTY
Sum Probability
SciTegic.value.DoubleValue
99.99

@<SCITEGIC>MOL_PROPERTY
Delta G
SciTegic.value.DoubleValue
6.311

@<SCITEGIC>MOL_PROPERTY
G
SciTegic.value.DoubleValue
-1.652

@<SCITEGIC>MOL_PROPERTY
E
SciTegic.value.DoubleValue
-26.796

@<SCITEGIC>MOL_PROPERTY
-TS
SciTegic.value.DoubleValue
25.144

@<SCITEGIC>MOL_PROPERTY
U+W
SciTegic.value.DoubleValue
-47.364

@<SCITEGIC>MOL_PROPERTY
U
SciTegic.value.DoubleValue
12.751

@<SCITEGIC>MOL_PROPERTY
W
SciTegic.value.DoubleValue
-60.114

@<SCITEGIC>MOL_PROPERTY
W(PB)
SciTegic.value.DoubleValue
-62.501

@<SCITEGIC>MOL_PROPERTY
W(SA)
SciTegic.value.DoubleValue
2.387

@<SCITEGIC>MOL_PROPERTY
Valence
SciTegic.value.DoubleValue
11.503

@<SCITEGIC>MOL_PROPERTY
Coulomb
SciTegic.value.DoubleValue
0.344

@<SCITEGIC>MOL_PROPERTY
VdW
SciTegic.value.DoubleValue
0.904

@<SCITEGIC>MOL_PROPERTY
VdW6
SciTegic.value.DoubleValue
-10.719

@<SCITEGIC>MOL_PROPERTY
VdW12
SciTegic.value.DoubleValue
11.623

@<SCITEGIC>MOL_PROPERTY
Bond
SciTegic.value.DoubleValue
0.257

@<SCITEGIC>MOL_PROPERTY
Angle
SciTegic.value.DoubleValue
3.378

@<SCITEGIC>MOL_PROPERTY
Pdih
SciTegic.value.DoubleValue
7.868

@<SCITEGIC>MOL_PROPERTY
Idih
SciTegic.value.DoubleValue
0.001

@<SCITEGIC>MOL_PROPERTY
Tether
SciTegic.value.DoubleValue
0.000

@<TRIPOS>MOLECULE
guest-8_vm2.mol2 : vm2 ligand conformer 165
          25          24           1
SMALL
USER_CHARGES
 
@<TRIPOS>ATOM
       1    C1      20.515831   19.705383   26.862305 C.2        1 MOL1         0.6168
       2    O1      21.412994   20.502390   26.671254 O.co2      1 MOL1        -0.6703
       3    O2      20.388639   19.068281   27.889384 O.co2      1 MOL1        -0.6703
       4    C2      19.503504   19.478590   25.745233 C.3        1 MOL1        -0.1963
       5    H1      19.399358   20.420185   25.195590 H          1 MOL1         0.0750
       6    H2      18.532373   19.262780   26.206155 H          1 MOL1         0.0750
       7    C3      19.912217   18.324589   24.792414 C.3        1 MOL1        -0.1860
       8    H3      20.880262   18.556423   24.334021 H          1 MOL1         0.0752
       9    H4      20.069991   17.418704   25.393720 H          1 MOL1         0.0752
      10    C4      18.850019   18.013533   23.707167 C.3        1 MOL1        -0.1858
      11    H5      17.889500   17.840192   24.211294 H          1 MOL1         0.0752
      12    H6      19.099910   17.064440   23.213954 H          1 MOL1         0.0752
      13    C5      18.653509   19.115600   22.631006 C.3        1 MOL1        -0.1858
      14    H7      17.596014   19.103831   22.334247 H          1 MOL1         0.0752
      15    H8      18.823676   20.114859   23.047539 H          1 MOL1         0.0752
      16    C6      19.489458   18.919080   21.338557 C.3        1 MOL1        -0.1858
      17    H9      19.171121   19.668170   20.600884 H          1 MOL1         0.0752
      18    H10     19.240520   17.943206   20.900073 H          1 MOL1         0.0752
      19    C7      21.025017   19.013497   21.501787 C.3        1 MOL1        -0.1834
      20    H11     21.383723   18.220035   22.169220 H          1 MOL1         0.0752
      21    H12     21.491102   18.818033   20.526365 H          1 MOL1         0.0752
      22    C8      21.501810   20.393056   22.006894 C.3        1 MOL1        -0.2849
      23    H13     21.133272   20.599926   23.019375 H          1 MOL1         0.0764
      24    H14     22.598179   20.432963   22.037731 H          1 MOL1         0.0764
      25    H15     21.152277   21.195322   21.344370 H          1 MOL1         0.0764
@<TRIPOS>BOND
    1     1     2    1
    2     1     3    2
    3     1     4    1
    4     4     5    1
    5     4     6    1
    6     4     7    1
    7     7     8    1
    8     7     9    1
    9     7    10    1
   10    10    11    1
   11    10    12    1
   12    10    13    1
   13    13    14    1
   14    13    15    1
   15    13    16    1
   16    16    17    1
   17    16    18    1
   18    16    19    1
   19    19    20    1
   20    19    21    1
   21    19    22    1
   22    22    23    1
   23    22    24    1
   24    22    25    1
@<TRIPOS>SUBSTRUCTURE
       1 MOL1            1 RESIDUE      1      MOL     
@<SCITEGIC>MOL_PROPERTY
VM2 Rank
SciTegic.value.IntegerValue
165

@<SCITEGIC>MOL_PROPERTY
Conf_Id
SciTegic.value.IntegerValue
701

@<SCITEGIC>MOL_PROPERTY
Probability
SciTegic.value.DoubleValue
0.00

@<SCITEGIC>MOL_PROPERTY
Sum Probability
SciTegic.value.DoubleValue
99.99

@<SCITEGIC>MOL_PROPERTY
Delta G
SciTegic.value.DoubleValue
6.324

@<SCITEGIC>MOL_PROPERTY
G
SciTegic.value.DoubleValue
-1.638

@<SCITEGIC>MOL_PROPERTY
E
SciTegic.value.DoubleValue
-27.023

@<SCITEGIC>MOL_PROPERTY
-TS
SciTegic.value.DoubleValue
25.385

@<SCITEGIC>MOL_PROPERTY
U+W
SciTegic.value.DoubleValue
-47.591

@<SCITEGIC>MOL_PROPERTY
U
SciTegic.value.DoubleValue
12.576

@<SCITEGIC>MOL_PROPERTY
W
SciTegic.value.DoubleValue
-60.167

@<SCITEGIC>MOL_PROPERTY
W(PB)
SciTegic.value.DoubleValue
-62.530

@<SCITEGIC>MOL_PROPERTY
W(SA)
SciTegic.value.DoubleValue
2.363

@<SCITEGIC>MOL_PROPERTY
Valence
SciTegic.value.DoubleValue
11.827

@<SCITEGIC>MOL_PROPERTY
Coulomb
SciTegic.value.DoubleValue
0.088

@<SCITEGIC>MOL_PROPERTY
VdW
SciTegic.value.DoubleValue
0.661

@<SCITEGIC>MOL_PROPERTY
VdW6
SciTegic.value.DoubleValue
-11.300

@<SCITEGIC>MOL_PROPERTY
VdW12
SciTegic.value.DoubleValue
11.961

@<SCITEGIC>MOL_PROPERTY
Bond
SciTegic.value.DoubleValue
0.300

@<SCITEGIC>MOL_PROPERTY
Angle
SciTegic.value.DoubleValue
3.988

@<SCITEGIC>MOL_PROPERTY
Pdih
SciTegic.value.DoubleValue
7.540

@<SCITEGIC>MOL_PROPERTY
Idih
SciTegic.value.DoubleValue
0.000

@<SCITEGIC>MOL_PROPERTY
Tether
SciTegic.value.DoubleValue
0.000

@<TRIPOS>MOLECULE
guest-8_vm2.mol2 : vm2 ligand conformer 166
          25          24           1
SMALL
USER_CHARGES
 
@<TRIPOS>ATOM
       1    C1      20.748087   19.509421   26.659334 C.2        1 MOL1         0.6168
       2    O1      21.522659   20.400319   26.371342 O.co2      1 MOL1        -0.6703
       3    O2      20.396615   19.264270   27.796612 O.co2      1 MOL1        -0.6703
       4    C2      20.167115   18.666659   25.529921 C.3        1 MOL1        -0.1963
       5    H1      19.964663   17.662885   25.921738 H          1 MOL1         0.0750
       6    H2      20.939954   18.563316   24.760535 H          1 MOL1         0.0750
       7    C3      18.872976   19.277240   24.931595 C.3        1 MOL1        -0.1860
       8    H3      18.141224   19.405923   25.740938 H          1 MOL1         0.0752
       9    H4      19.074997   20.285021   24.547340 H          1 MOL1         0.0752
      10    C4      18.233948   18.403961   23.825119 C.3        1 MOL1        -0.1858
      11    H5      17.285128   18.864120   23.517454 H          1 MOL1         0.0752
      12    H6      17.967711   17.429909   24.257608 H          1 MOL1         0.0752
      13    C5      19.104637   18.162765   22.563618 C.3        1 MOL1        -0.1858
      14    H7      20.019395   17.619385   22.826430 H          1 MOL1         0.0752
      15    H8      18.543025   17.480974   21.910734 H          1 MOL1         0.0752
      16    C6      19.426054   19.440560   21.741900 C.3        1 MOL1        -0.1858
      17    H9      18.610644   20.166300   21.863682 H          1 MOL1         0.0752
      18    H10     19.431243   19.178895   20.675022 H          1 MOL1         0.0752
      19    C7      20.776808   20.123646   22.073613 C.3        1 MOL1        -0.1834
      20    H11     20.817326   21.086465   21.546219 H          1 MOL1         0.0752
      21    H12     20.842397   20.360973   23.141976 H          1 MOL1         0.0752
      22    C8      22.004100   19.285159   21.652946 C.3        1 MOL1        -0.2849
      23    H13     21.960091   19.031673   20.585840 H          1 MOL1         0.0764
      24    H14     22.929898   19.848265   21.827892 H          1 MOL1         0.0764
      25    H15     22.071542   18.352212   22.225317 H          1 MOL1         0.0764
@<TRIPOS>BOND
    1     1     2    1
    2     1     3    2
    3     1     4    1
    4     4     5    1
    5     4     6    1
    6     4     7    1
    7     7     8    1
    8     7     9    1
    9     7    10    1
   10    10    11    1
   11    10    12    1
   12    10    13    1
   13    13    14    1
   14    13    15    1
   15    13    16    1
   16    16    17    1
   17    16    18    1
   18    16    19    1
   19    19    20    1
   20    19    21    1
   21    19    22    1
   22    22    23    1
   23    22    24    1
   24    22    25    1
@<TRIPOS>SUBSTRUCTURE
       1 MOL1            1 RESIDUE      1      MOL     
@<SCITEGIC>MOL_PROPERTY
VM2 Rank
SciTegic.value.IntegerValue
166

@<SCITEGIC>MOL_PROPERTY
Conf_Id
SciTegic.value.IntegerValue
976

@<SCITEGIC>MOL_PROPERTY
Probability
SciTegic.value.DoubleValue
0.00

@<SCITEGIC>MOL_PROPERTY
Sum Probability
SciTegic.value.DoubleValue
100.00

@<SCITEGIC>MOL_PROPERTY
Delta G
SciTegic.value.DoubleValue
6.332

@<SCITEGIC>MOL_PROPERTY
G
SciTegic.value.DoubleValue
-1.631

@<SCITEGIC>MOL_PROPERTY
E
SciTegic.value.DoubleValue
-27.088

@<SCITEGIC>MOL_PROPERTY
-TS
SciTegic.value.DoubleValue
25.457

@<SCITEGIC>MOL_PROPERTY
U+W
SciTegic.value.DoubleValue
-47.656

@<SCITEGIC>MOL_PROPERTY
U
SciTegic.value.DoubleValue
12.724

@<SCITEGIC>MOL_PROPERTY
W
SciTegic.value.DoubleValue
-60.379

@<SCITEGIC>MOL_PROPERTY
W(PB)
SciTegic.value.DoubleValue
-62.750

@<SCITEGIC>MOL_PROPERTY
W(SA)
SciTegic.value.DoubleValue
2.371

@<SCITEGIC>MOL_PROPERTY
Valence
SciTegic.value.DoubleValue
11.803

@<SCITEGIC>MOL_PROPERTY
Coulomb
SciTegic.value.DoubleValue
0.381

@<SCITEGIC>MOL_PROPERTY
VdW
SciTegic.value.DoubleValue
0.540

@<SCITEGIC>MOL_PROPERTY
VdW6
SciTegic.value.DoubleValue
-11.529

@<SCITEGIC>MOL_PROPERTY
VdW12
SciTegic.value.DoubleValue
12.069

@<SCITEGIC>MOL_PROPERTY
Bond
SciTegic.value.DoubleValue
0.296

@<SCITEGIC>MOL_PROPERTY
Angle
SciTegic.value.DoubleValue
3.952

@<SCITEGIC>MOL_PROPERTY
Pdih
SciTegic.value.DoubleValue
7.554

@<SCITEGIC>MOL_PROPERTY
Idih
SciTegic.value.DoubleValue
0.001

@<SCITEGIC>MOL_PROPERTY
Tether
SciTegic.value.DoubleValue
0.000

@<TRIPOS>MOLECULE
guest-8_vm2.mol2 : vm2 ligand conformer 167
          25          24           1
SMALL
USER_CHARGES
 
@<TRIPOS>ATOM
       1    C1      19.875015   19.234287   27.149240 C.2        1 MOL1         0.6168
       2    O1      20.730697   19.722486   27.861025 O.co2      1 MOL1        -0.6703
       3    O2      18.696137   19.520731   27.221660 O.co2      1 MOL1        -0.6703
       4    C2      20.303993   18.189929   26.122407 C.3        1 MOL1        -0.1963
       5    H1      19.421030   17.615431   25.817186 H          1 MOL1         0.0750
       6    H2      20.978317   17.489957   26.629603 H          1 MOL1         0.0750
       7    C3      21.013694   18.782155   24.876972 C.3        1 MOL1        -0.1860
       8    H3      21.875357   19.381772   25.201471 H          1 MOL1         0.0752
       9    H4      21.414175   17.955266   24.277544 H          1 MOL1         0.0752
      10    C4      20.067611   19.650205   24.011903 C.3        1 MOL1        -0.1858
      11    H5      19.672051   20.467789   24.629843 H          1 MOL1         0.0752
      12    H6      19.201238   19.054075   23.701293 H          1 MOL1         0.0752
      13    C5      20.768222   20.270045   22.776432 C.3        1 MOL1        -0.1858
      14    H7      20.146967   21.081159   22.373079 H          1 MOL1         0.0752
      15    H8      21.698629   20.748820   23.110877 H          1 MOL1         0.0752
      16    C6      21.098773   19.263512   21.641953 C.3        1 MOL1        -0.1858
      17    H9      21.268298   18.258110   22.046507 H          1 MOL1         0.0752
      18    H10     22.051817   19.565194   21.186616 H          1 MOL1         0.0752
      19    C7      20.041910   19.200240   20.511644 C.3        1 MOL1        -0.1834
      20    H11     19.937080   20.191094   20.048589 H          1 MOL1         0.0752
      21    H12     20.413338   18.530662   19.723704 H          1 MOL1         0.0752
      22    C8      18.656948   18.700410   20.972763 C.3        1 MOL1        -0.2849
      23    H13     17.991149   18.564140   20.110868 H          1 MOL1         0.0764
      24    H14     18.739264   17.737487   21.493379 H          1 MOL1         0.0764
      25    H15     18.180600   19.422030   21.648006 H          1 MOL1         0.0764
@<TRIPOS>BOND
    1     1     2    1
    2     1     3    2
    3     1     4    1
    4     4     5    1
    5     4     6    1
    6     4     7    1
    7     7     8    1
    8     7     9    1
    9     7    10    1
   10    10    11    1
   11    10    12    1
   12    10    13    1
   13    13    14    1
   14    13    15    1
   15    13    16    1
   16    16    17    1
   17    16    18    1
   18    16    19    1
   19    19    20    1
   20    19    21    1
   21    19    22    1
   22    22    23    1
   23    22    24    1
   24    22    25    1
@<TRIPOS>SUBSTRUCTURE
       1 MOL1            1 RESIDUE      1      MOL     
@<SCITEGIC>MOL_PROPERTY
VM2 Rank
SciTegic.value.IntegerValue
167

@<SCITEGIC>MOL_PROPERTY
Conf_Id
SciTegic.value.IntegerValue
384

@<SCITEGIC>MOL_PROPERTY
Probability
SciTegic.value.DoubleValue
0.00

@<SCITEGIC>MOL_PROPERTY
Sum Probability
SciTegic.value.DoubleValue
100.00

@<SCITEGIC>MOL_PROPERTY
Delta G
SciTegic.value.DoubleValue
6.389

@<SCITEGIC>MOL_PROPERTY
G
SciTegic.value.DoubleValue
-1.574

@<SCITEGIC>MOL_PROPERTY
E
SciTegic.value.DoubleValue
-26.710

@<SCITEGIC>MOL_PROPERTY
-TS
SciTegic.value.DoubleValue
25.136

@<SCITEGIC>MOL_PROPERTY
U+W
SciTegic.value.DoubleValue
-47.278

@<SCITEGIC>MOL_PROPERTY
U
SciTegic.value.DoubleValue
12.718

@<SCITEGIC>MOL_PROPERTY
W
SciTegic.value.DoubleValue
-59.995

@<SCITEGIC>MOL_PROPERTY
W(PB)
SciTegic.value.DoubleValue
-62.409

@<SCITEGIC>MOL_PROPERTY
W(SA)
SciTegic.value.DoubleValue
2.414

@<SCITEGIC>MOL_PROPERTY
Valence
SciTegic.value.DoubleValue
11.548

@<SCITEGIC>MOL_PROPERTY
Coulomb
SciTegic.value.DoubleValue
0.194

@<SCITEGIC>MOL_PROPERTY
VdW
SciTegic.value.DoubleValue
0.975

@<SCITEGIC>MOL_PROPERTY
VdW6
SciTegic.value.DoubleValue
-10.625

@<SCITEGIC>MOL_PROPERTY
VdW12
SciTegic.value.DoubleValue
11.600

@<SCITEGIC>MOL_PROPERTY
Bond
SciTegic.value.DoubleValue
0.265

@<SCITEGIC>MOL_PROPERTY
Angle
SciTegic.value.DoubleValue
3.381

@<SCITEGIC>MOL_PROPERTY
Pdih
SciTegic.value.DoubleValue
7.902

@<SCITEGIC>MOL_PROPERTY
Idih
SciTegic.value.DoubleValue
0.000

@<SCITEGIC>MOL_PROPERTY
Tether
SciTegic.value.DoubleValue
0.000

@<TRIPOS>MOLECULE
guest-8_vm2.mol2 : vm2 ligand conformer 168
          25          24           1
SMALL
USER_CHARGES
 
@<TRIPOS>ATOM
       1    C1      19.866679   19.298162   27.148190 C.2        1 MOL1         0.6168
       2    O1      20.814832   19.063497   27.871449 O.co2      1 MOL1        -0.6703
       3    O2      18.797631   18.726485   27.234064 O.co2      1 MOL1        -0.6703
       4    C2      20.023202   20.384074   26.087345 C.3        1 MOL1        -0.1963
       5    H1      20.497440   21.246860   26.569653 H          1 MOL1         0.0750
       6    H2      19.025325   20.707870   25.767613 H          1 MOL1         0.0750
       7    C3      20.864342   19.950783   24.858418 C.3        1 MOL1        -0.1860
       8    H3      21.046127   20.832579   24.231651 H          1 MOL1         0.0752
       9    H4      21.847900   19.598054   25.198269 H          1 MOL1         0.0752
      10    C4      20.171000   18.845619   24.024863 C.3        1 MOL1        -0.1858
      11    H5      19.183594   19.194113   23.699226 H          1 MOL1         0.0752
      12    H6      19.991809   17.974544   24.669752 H          1 MOL1         0.0752
      13    C5      21.010115   18.383921   22.806602 C.3        1 MOL1        -0.1858
      14    H7      22.029888   18.166053   23.152051 H          1 MOL1         0.0752
      15    H8      20.615093   17.430058   22.431555 H          1 MOL1         0.0752
      16    C6      21.080514   19.405059   21.639670 C.3        1 MOL1        -0.1858
      17    H9      22.080648   19.339453   21.190156 H          1 MOL1         0.0752
      18    H10     20.989227   20.432923   22.011697 H          1 MOL1         0.0752
      19    C7      20.046385   19.163967   20.512275 C.3        1 MOL1        -0.1834
      20    H11     20.239965   19.880427   19.702119 H          1 MOL1         0.0752
      21    H12     20.196806   18.164640   20.081090 H          1 MOL1         0.0752
      22    C8      18.578300   19.312433   20.963124 C.3        1 MOL1        -0.2849
      23    H13     18.412890   20.280923   21.452719 H          1 MOL1         0.0764
      24    H14     17.903074   19.248956   20.100128 H          1 MOL1         0.0764
      25    H15     18.296811   18.515680   21.662801 H          1 MOL1         0.0764
@<TRIPOS>BOND
    1     1     2    1
    2     1     3    2
    3     1     4    1
    4     4     5    1
    5     4     6    1
    6     4     7    1
    7     7     8    1
    8     7     9    1
    9     7    10    1
   10    10    11    1
   11    10    12    1
   12    10    13    1
   13    13    14    1
   14    13    15    1
   15    13    16    1
   16    16    17    1
   17    16    18    1
   18    16    19    1
   19    19    20    1
   20    19    21    1
   21    19    22    1
   22    22    23    1
   23    22    24    1
   24    22    25    1
@<TRIPOS>SUBSTRUCTURE
       1 MOL1            1 RESIDUE      1      MOL     
@<SCITEGIC>MOL_PROPERTY
VM2 Rank
SciTegic.value.IntegerValue
168

@<SCITEGIC>MOL_PROPERTY
Conf_Id
SciTegic.value.IntegerValue
366

@<SCITEGIC>MOL_PROPERTY
Probability
SciTegic.value.DoubleValue
0.00

@<SCITEGIC>MOL_PROPERTY
Sum Probability
SciTegic.value.DoubleValue
100.00

@<SCITEGIC>MOL_PROPERTY
Delta G
SciTegic.value.DoubleValue
6.405

@<SCITEGIC>MOL_PROPERTY
G
SciTegic.value.DoubleValue
-1.557

@<SCITEGIC>MOL_PROPERTY
E
SciTegic.value.DoubleValue
-26.694

@<SCITEGIC>MOL_PROPERTY
-TS
SciTegic.value.DoubleValue
25.137

@<SCITEGIC>MOL_PROPERTY
U+W
SciTegic.value.DoubleValue
-47.262

@<SCITEGIC>MOL_PROPERTY
U
SciTegic.value.DoubleValue
12.718

@<SCITEGIC>MOL_PROPERTY
W
SciTegic.value.DoubleValue
-59.980

@<SCITEGIC>MOL_PROPERTY
W(PB)
SciTegic.value.DoubleValue
-62.377

@<SCITEGIC>MOL_PROPERTY
W(SA)
SciTegic.value.DoubleValue
2.397

@<SCITEGIC>MOL_PROPERTY
Valence
SciTegic.value.DoubleValue
11.548

@<SCITEGIC>MOL_PROPERTY
Coulomb
SciTegic.value.DoubleValue
0.195

@<SCITEGIC>MOL_PROPERTY
VdW
SciTegic.value.DoubleValue
0.975

@<SCITEGIC>MOL_PROPERTY
VdW6
SciTegic.value.DoubleValue
-10.625

@<SCITEGIC>MOL_PROPERTY
VdW12
SciTegic.value.DoubleValue
11.600

@<SCITEGIC>MOL_PROPERTY
Bond
SciTegic.value.DoubleValue
0.265

@<SCITEGIC>MOL_PROPERTY
Angle
SciTegic.value.DoubleValue
3.380

@<SCITEGIC>MOL_PROPERTY
Pdih
SciTegic.value.DoubleValue
7.902

@<SCITEGIC>MOL_PROPERTY
Idih
SciTegic.value.DoubleValue
0.001

@<SCITEGIC>MOL_PROPERTY
Tether
SciTegic.value.DoubleValue
0.000

@<TRIPOS>MOLECULE
guest-8_vm2.mol2 : vm2 ligand conformer 169
          25          24           1
SMALL
USER_CHARGES
 
@<TRIPOS>ATOM
       1    C1      20.290299   19.812207   26.397003 C.2        1 MOL1         0.6168
       2    O1      21.292746   20.453074   26.147791 O.co2      1 MOL1        -0.6703
       3    O2      19.250810   20.313802   26.778400 O.co2      1 MOL1        -0.6703
       4    C2      20.375129   18.288721   26.333231 C.3        1 MOL1        -0.1963
       5    H1      19.450965   17.862686   26.741893 H          1 MOL1         0.0750
       6    H2      21.182575   17.996353   27.014501 H          1 MOL1         0.0750
       7    C3      20.665456   17.698933   24.924445 C.3        1 MOL1        -0.1860
       8    H3      21.458148   18.275557   24.429396 H          1 MOL1         0.0752
       9    H4      21.075654   16.689431   25.061525 H          1 MOL1         0.0752
      10    C4      19.421962   17.575223   24.005809 C.3        1 MOL1        -0.1858
      11    H5      18.658449   16.976954   24.521157 H          1 MOL1         0.0752
      12    H6      19.698402   16.993474   23.116808 H          1 MOL1         0.0752
      13    C5      18.780994   18.912533   23.552648 C.3        1 MOL1        -0.1858
      14    H7      17.921328   18.685672   22.907822 H          1 MOL1         0.0752
      15    H8      18.364426   19.431120   24.425280 H          1 MOL1         0.0752
      16    C6      19.726696   19.878725   22.795471 C.3        1 MOL1        -0.1858
      17    H9      20.546113   20.195235   23.454054 H          1 MOL1         0.0752
      18    H10     19.165117   20.790827   22.552476 H          1 MOL1         0.0752
      19    C7      20.304695   19.282063   21.492389 C.3        1 MOL1        -0.1834
      20    H11     20.934816   18.413259   21.724188 H          1 MOL1         0.0752
      21    H12     19.485806   18.924184   20.853386 H          1 MOL1         0.0752
      22    C8      21.144212   20.318721   20.718813 C.3        1 MOL1        -0.2849
      23    H13     21.986337   20.673407   21.327464 H          1 MOL1         0.0764
      24    H14     21.551660   19.878391   19.799550 H          1 MOL1         0.0764
      25    H15     20.534581   21.187310   20.437479 H          1 MOL1         0.0764
@<TRIPOS>BOND
    1     1     2    1
    2     1     3    2
    3     1     4    1
    4     4     5    1
    5     4     6    1
    6     4     7    1
    7     7     8    1
    8     7     9    1
    9     7    10    1
   10    10    11    1
   11    10    12    1
   12    10    13    1
   13    13    14    1
   14    13    15    1
   15    13    16    1
   16    16    17    1
   17    16    18    1
   18    16    19    1
   19    19    20    1
   20    19    21    1
   21    19    22    1
   22    22    23    1
   23    22    24    1
   24    22    25    1
@<TRIPOS>SUBSTRUCTURE
       1 MOL1            1 RESIDUE      1      MOL     
@<SCITEGIC>MOL_PROPERTY
VM2 Rank
SciTegic.value.IntegerValue
169

@<SCITEGIC>MOL_PROPERTY
Conf_Id
SciTegic.value.IntegerValue
1368

@<SCITEGIC>MOL_PROPERTY
Probability
SciTegic.value.DoubleValue
0.00

@<SCITEGIC>MOL_PROPERTY
Sum Probability
SciTegic.value.DoubleValue
100.00

@<SCITEGIC>MOL_PROPERTY
Delta G
SciTegic.value.DoubleValue
6.407

@<SCITEGIC>MOL_PROPERTY
G
SciTegic.value.DoubleValue
-1.555

@<SCITEGIC>MOL_PROPERTY
E
SciTegic.value.DoubleValue
-27.544

@<SCITEGIC>MOL_PROPERTY
-TS
SciTegic.value.DoubleValue
25.989

@<SCITEGIC>MOL_PROPERTY
U+W
SciTegic.value.DoubleValue
-48.112

@<SCITEGIC>MOL_PROPERTY
U
SciTegic.value.DoubleValue
13.027

@<SCITEGIC>MOL_PROPERTY
W
SciTegic.value.DoubleValue
-61.139

@<SCITEGIC>MOL_PROPERTY
W(PB)
SciTegic.value.DoubleValue
-63.503

@<SCITEGIC>MOL_PROPERTY
W(SA)
SciTegic.value.DoubleValue
2.364

@<SCITEGIC>MOL_PROPERTY
Valence
SciTegic.value.DoubleValue
10.559

@<SCITEGIC>MOL_PROPERTY
Coulomb
SciTegic.value.DoubleValue
2.239

@<SCITEGIC>MOL_PROPERTY
VdW
SciTegic.value.DoubleValue
0.229

@<SCITEGIC>MOL_PROPERTY
VdW6
SciTegic.value.DoubleValue
-12.344

@<SCITEGIC>MOL_PROPERTY
VdW12
SciTegic.value.DoubleValue
12.573

@<SCITEGIC>MOL_PROPERTY
Bond
SciTegic.value.DoubleValue
0.282

@<SCITEGIC>MOL_PROPERTY
Angle
SciTegic.value.DoubleValue
4.052

@<SCITEGIC>MOL_PROPERTY
Pdih
SciTegic.value.DoubleValue
6.209

@<SCITEGIC>MOL_PROPERTY
Idih
SciTegic.value.DoubleValue
0.016

@<SCITEGIC>MOL_PROPERTY
Tether
SciTegic.value.DoubleValue
0.000

@<TRIPOS>MOLECULE
guest-8_vm2.mol2 : vm2 ligand conformer 170
          25          24           1
SMALL
USER_CHARGES
 
@<TRIPOS>ATOM
       1    C1      19.938711   19.789685   26.401294 C.2        1 MOL1         0.6168
       2    O1      20.914744   20.419233   26.759944 O.co2      1 MOL1        -0.6703
       3    O2      18.857881   20.298271   26.175773 O.co2      1 MOL1        -0.6703
       4    C2      20.046066   18.267642   26.337060 C.3        1 MOL1        -0.1963
       5    H1      19.297801   17.876271   27.035990 H          1 MOL1         0.0750
       6    H2      21.025764   17.962597   26.724007 H          1 MOL1         0.0750
       7    C3      19.800900   17.643978   24.934296 C.3        1 MOL1        -0.1860
       8    H3      19.525442   16.590738   25.079055 H          1 MOL1         0.0752
       9    H4      18.930313   18.114641   24.458396 H          1 MOL1         0.0752
      10    C4      21.028752   17.677989   23.987353 C.3        1 MOL1        -0.1858
      11    H5      20.808323   17.064445   23.104094 H          1 MOL1         0.0752
      12    H6      21.873701   17.182452   24.484309 H          1 MOL1         0.0752
      13    C5      21.483951   19.085247   23.521494 C.3        1 MOL1        -0.1858
      14    H7      21.850998   19.653962   24.385082 H          1 MOL1         0.0752
      15    H8      22.350551   18.968538   22.856907 H          1 MOL1         0.0752
      16    C6      20.406036   19.922159   22.787408 C.3        1 MOL1        -0.1858
      17    H9      20.841399   20.897864   22.532827 H          1 MOL1         0.0752
      18    H10     19.568299   20.132984   23.464982 H          1 MOL1         0.0752
      19    C7      19.878956   19.254764   21.497100 C.3        1 MOL1        -0.1834
      20    H11     20.721878   19.002850   20.839068 H          1 MOL1         0.0752
      21    H12     19.369855   18.313283   21.742116 H          1 MOL1         0.0752
      22    C8      18.897001   20.175032   20.744277 C.3        1 MOL1        -0.2849
      23    H13     19.384691   21.113589   20.450144 H          1 MOL1         0.0764
      24    H14     18.527891   19.684964   19.834034 H          1 MOL1         0.0764
      25    H15     18.030780   20.420825   21.372514 H          1 MOL1         0.0764
@<TRIPOS>BOND
    1     1     2    1
    2     1     3    2
    3     1     4    1
    4     4     5    1
    5     4     6    1
    6     4     7    1
    7     7     8    1
    8     7     9    1
    9     7    10    1
   10    10    11    1
   11    10    12    1
   12    10    13    1
   13    13    14    1
   14    13    15    1
   15    13    16    1
   16    16    17    1
   17    16    18    1
   18    16    19    1
   19    19    20    1
   20    19    21    1
   21    19    22    1
   22    22    23    1
   23    22    24    1
   24    22    25    1
@<TRIPOS>SUBSTRUCTURE
       1 MOL1            1 RESIDUE      1      MOL     
@<SCITEGIC>MOL_PROPERTY
VM2 Rank
SciTegic.value.IntegerValue
170

@<SCITEGIC>MOL_PROPERTY
Conf_Id
SciTegic.value.IntegerValue
1358

@<SCITEGIC>MOL_PROPERTY
Probability
SciTegic.value.DoubleValue
0.00

@<SCITEGIC>MOL_PROPERTY
Sum Probability
SciTegic.value.DoubleValue
100.00

@<SCITEGIC>MOL_PROPERTY
Delta G
SciTegic.value.DoubleValue
6.415

@<SCITEGIC>MOL_PROPERTY
G
SciTegic.value.DoubleValue
-1.547

@<SCITEGIC>MOL_PROPERTY
E
SciTegic.value.DoubleValue
-27.537

@<SCITEGIC>MOL_PROPERTY
-TS
SciTegic.value.DoubleValue
25.990

@<SCITEGIC>MOL_PROPERTY
U+W
SciTegic.value.DoubleValue
-48.104

@<SCITEGIC>MOL_PROPERTY
U
SciTegic.value.DoubleValue
13.027

@<SCITEGIC>MOL_PROPERTY
W
SciTegic.value.DoubleValue
-61.131

@<SCITEGIC>MOL_PROPERTY
W(PB)
SciTegic.value.DoubleValue
-63.487

@<SCITEGIC>MOL_PROPERTY
W(SA)
SciTegic.value.DoubleValue
2.355

@<SCITEGIC>MOL_PROPERTY
Valence
SciTegic.value.DoubleValue
10.559

@<SCITEGIC>MOL_PROPERTY
Coulomb
SciTegic.value.DoubleValue
2.239

@<SCITEGIC>MOL_PROPERTY
VdW
SciTegic.value.DoubleValue
0.229

@<SCITEGIC>MOL_PROPERTY
VdW6
SciTegic.value.DoubleValue
-12.344

@<SCITEGIC>MOL_PROPERTY
VdW12
SciTegic.value.DoubleValue
12.572

@<SCITEGIC>MOL_PROPERTY
Bond
SciTegic.value.DoubleValue
0.282

@<SCITEGIC>MOL_PROPERTY
Angle
SciTegic.value.DoubleValue
4.052

@<SCITEGIC>MOL_PROPERTY
Pdih
SciTegic.value.DoubleValue
6.208

@<SCITEGIC>MOL_PROPERTY
Idih
SciTegic.value.DoubleValue
0.016

@<SCITEGIC>MOL_PROPERTY
Tether
SciTegic.value.DoubleValue
0.000

@<TRIPOS>MOLECULE
guest-8_vm2.mol2 : vm2 ligand conformer 171
          25          24           1
SMALL
USER_CHARGES
 
@<TRIPOS>ATOM
       1    C1      20.081210   19.676869   26.856381 C.2        1 MOL1         0.6168
       2    O1      21.042494   20.147685   27.432385 O.co2      1 MOL1        -0.6703
       3    O2      19.039317   20.278454   26.684666 O.co2      1 MOL1        -0.6703
       4    C2      20.179513   18.240755   26.349420 C.3        1 MOL1        -0.1963
       5    H1      19.171334   17.880887   26.116040 H          1 MOL1         0.0750
       6    H2      20.541346   17.626351   27.182025 H          1 MOL1         0.0750
       7    C3      21.125772   18.060464   25.130627 C.3        1 MOL1        -0.1860
       8    H3      22.141007   18.355648   25.429779 H          1 MOL1         0.0752
       9    H4      21.180245   16.994884   24.870095 H          1 MOL1         0.0752
      10    C4      20.723648   18.873010   23.874783 C.3        1 MOL1        -0.1858
      11    H5      21.517402   18.749224   23.127635 H          1 MOL1         0.0752
      12    H6      20.685776   19.943339   24.119357 H          1 MOL1         0.0752
      13    C5      19.375504   18.430530   23.257746 C.3        1 MOL1        -0.1858
      14    H7      19.432217   17.370281   22.976582 H          1 MOL1         0.0752
      15    H8      18.585097   18.509525   24.014841 H          1 MOL1         0.0752
      16    C6      18.934958   19.266633   22.029683 C.3        1 MOL1        -0.1858
      17    H9      18.784239   20.314321   22.324115 H          1 MOL1         0.0752
      18    H10     17.947413   18.900116   21.717884 H          1 MOL1         0.0752
      19    C7      19.887372   19.182580   20.810617 C.3        1 MOL1        -0.1834
      20    H11     20.444276   18.235566   20.826158 H          1 MOL1         0.0752
      21    H12     19.283668   19.166272   19.892709 H          1 MOL1         0.0752
      22    C8      20.863213   20.377021   20.719692 C.3        1 MOL1        -0.2849
      23    H13     21.515040   20.274847   19.842498 H          1 MOL1         0.0764
      24    H14     20.313940   21.322393   20.621455 H          1 MOL1         0.0764
      25    H15     21.503093   20.449418   21.606573 H          1 MOL1         0.0764
@<TRIPOS>BOND
    1     1     2    1
    2     1     3    2
    3     1     4    1
    4     4     5    1
    5     4     6    1
    6     4     7    1
    7     7     8    1
    8     7     9    1
    9     7    10    1
   10    10    11    1
   11    10    12    1
   12    10    13    1
   13    13    14    1
   14    13    15    1
   15    13    16    1
   16    16    17    1
   17    16    18    1
   18    16    19    1
   19    19    20    1
   20    19    21    1
   21    19    22    1
   22    22    23    1
   23    22    24    1
   24    22    25    1
@<TRIPOS>SUBSTRUCTURE
       1 MOL1            1 RESIDUE      1      MOL     
@<SCITEGIC>MOL_PROPERTY
VM2 Rank
SciTegic.value.IntegerValue
171

@<SCITEGIC>MOL_PROPERTY
Conf_Id
SciTegic.value.IntegerValue
285

@<SCITEGIC>MOL_PROPERTY
Probability
SciTegic.value.DoubleValue
0.00

@<SCITEGIC>MOL_PROPERTY
Sum Probability
SciTegic.value.DoubleValue
100.00

@<SCITEGIC>MOL_PROPERTY
Delta G
SciTegic.value.DoubleValue
6.577

@<SCITEGIC>MOL_PROPERTY
G
SciTegic.value.DoubleValue
-1.385

@<SCITEGIC>MOL_PROPERTY
E
SciTegic.value.DoubleValue
-26.492

@<SCITEGIC>MOL_PROPERTY
-TS
SciTegic.value.DoubleValue
25.107

@<SCITEGIC>MOL_PROPERTY
U+W
SciTegic.value.DoubleValue
-47.060

@<SCITEGIC>MOL_PROPERTY
U
SciTegic.value.DoubleValue
13.600

@<SCITEGIC>MOL_PROPERTY
W
SciTegic.value.DoubleValue
-60.660

@<SCITEGIC>MOL_PROPERTY
W(PB)
SciTegic.value.DoubleValue
-63.063

@<SCITEGIC>MOL_PROPERTY
W(SA)
SciTegic.value.DoubleValue
2.403

@<SCITEGIC>MOL_PROPERTY
Valence
SciTegic.value.DoubleValue
11.436

@<SCITEGIC>MOL_PROPERTY
Coulomb
SciTegic.value.DoubleValue
1.345

@<SCITEGIC>MOL_PROPERTY
VdW
SciTegic.value.DoubleValue
0.819

@<SCITEGIC>MOL_PROPERTY
VdW6
SciTegic.value.DoubleValue
-10.980

@<SCITEGIC>MOL_PROPERTY
VdW12
SciTegic.value.DoubleValue
11.799

@<SCITEGIC>MOL_PROPERTY
Bond
SciTegic.value.DoubleValue
0.269

@<SCITEGIC>MOL_PROPERTY
Angle
SciTegic.value.DoubleValue
3.573

@<SCITEGIC>MOL_PROPERTY
Pdih
SciTegic.value.DoubleValue
7.592

@<SCITEGIC>MOL_PROPERTY
Idih
SciTegic.value.DoubleValue
0.001

@<SCITEGIC>MOL_PROPERTY
Tether
SciTegic.value.DoubleValue
0.000

@<TRIPOS>MOLECULE
guest-8_vm2.mol2 : vm2 ligand conformer 172
          25          24           1
SMALL
USER_CHARGES
 
@<TRIPOS>ATOM
       1    C1      20.346107   18.744443   26.741015 C.2        1 MOL1         0.6168
       2    O1      21.541457   18.546057   26.835501 O.co2      1 MOL1        -0.6703
       3    O2      19.507574   17.873138   26.862578 O.co2      1 MOL1        -0.6703
       4    C2      19.872840   20.172470   26.483798 C.3        1 MOL1        -0.1963
       5    H1      20.436115   20.830734   27.155623 H          1 MOL1         0.0750
       6    H2      18.818127   20.249547   26.774307 H          1 MOL1         0.0750
       7    C3      20.061661   20.643618   25.018451 C.3        1 MOL1        -0.1860
       8    H3      19.826020   21.714463   24.955969 H          1 MOL1         0.0752
       9    H4      21.119006   20.536964   24.743808 H          1 MOL1         0.0752
      10    C4      19.163914   19.864831   24.026432 C.3        1 MOL1        -0.1858
      11    H5      18.118968   19.955558   24.352557 H          1 MOL1         0.0752
      12    H6      19.405817   18.795942   24.067661 H          1 MOL1         0.0752
      13    C5      19.269463   20.384130   22.570088 C.3        1 MOL1        -0.1858
      14    H7      18.433308   19.986679   21.978974 H          1 MOL1         0.0752
      15    H8      19.132166   21.473947   22.580912 H          1 MOL1         0.0752
      16    C6      20.607100   20.052680   21.855761 C.3        1 MOL1        -0.1858
      17    H9      21.429966   19.981765   22.577705 H          1 MOL1         0.0752
      18    H10     20.859975   20.896116   21.199039 H          1 MOL1         0.0752
      19    C7      20.569361   18.775823   20.980061 C.3        1 MOL1        -0.1834
      20    H11     19.802934   18.885257   20.200454 H          1 MOL1         0.0752
      21    H12     21.530386   18.684400   20.455470 H          1 MOL1         0.0752
      22    C8      20.313523   17.476808   21.772316 C.3        1 MOL1        -0.2849
      23    H13     19.296252   17.457545   22.182624 H          1 MOL1         0.0764
      24    H14     20.424119   16.600773   21.120393 H          1 MOL1         0.0764
      25    H15     21.025379   17.374739   22.601931 H          1 MOL1         0.0764
@<TRIPOS>BOND
    1     1     2    1
    2     1     3    2
    3     1     4    1
    4     4     5    1
    5     4     6    1
    6     4     7    1
    7     7     8    1
    8     7     9    1
    9     7    10    1
   10    10    11    1
   11    10    12    1
   12    10    13    1
   13    13    14    1
   14    13    15    1
   15    13    16    1
   16    16    17    1
   17    16    18    1
   18    16    19    1
   19    19    20    1
   20    19    21    1
   21    19    22    1
   22    22    23    1
   23    22    24    1
   24    22    25    1
@<TRIPOS>SUBSTRUCTURE
       1 MOL1            1 RESIDUE      1      MOL     
@<SCITEGIC>MOL_PROPERTY
VM2 Rank
SciTegic.value.IntegerValue
172

@<SCITEGIC>MOL_PROPERTY
Conf_Id
SciTegic.value.IntegerValue
225

@<SCITEGIC>MOL_PROPERTY
Probability
SciTegic.value.DoubleValue
0.00

@<SCITEGIC>MOL_PROPERTY
Sum Probability
SciTegic.value.DoubleValue
100.00

@<SCITEGIC>MOL_PROPERTY
Delta G
SciTegic.value.DoubleValue
6.674

@<SCITEGIC>MOL_PROPERTY
G
SciTegic.value.DoubleValue
-1.288

@<SCITEGIC>MOL_PROPERTY
E
SciTegic.value.DoubleValue
-26.419

@<SCITEGIC>MOL_PROPERTY
-TS
SciTegic.value.DoubleValue
25.131

@<SCITEGIC>MOL_PROPERTY
U+W
SciTegic.value.DoubleValue
-46.987

@<SCITEGIC>MOL_PROPERTY
U
SciTegic.value.DoubleValue
13.849

@<SCITEGIC>MOL_PROPERTY
W
SciTegic.value.DoubleValue
-60.836

@<SCITEGIC>MOL_PROPERTY
W(PB)
SciTegic.value.DoubleValue
-63.229

@<SCITEGIC>MOL_PROPERTY
W(SA)
SciTegic.value.DoubleValue
2.394

@<SCITEGIC>MOL_PROPERTY
Valence
SciTegic.value.DoubleValue
11.487

@<SCITEGIC>MOL_PROPERTY
Coulomb
SciTegic.value.DoubleValue
1.559

@<SCITEGIC>MOL_PROPERTY
VdW
SciTegic.value.DoubleValue
0.802

@<SCITEGIC>MOL_PROPERTY
VdW6
SciTegic.value.DoubleValue
-10.837

@<SCITEGIC>MOL_PROPERTY
VdW12
SciTegic.value.DoubleValue
11.639

@<SCITEGIC>MOL_PROPERTY
Bond
SciTegic.value.DoubleValue
0.263

@<SCITEGIC>MOL_PROPERTY
Angle
SciTegic.value.DoubleValue
3.375

@<SCITEGIC>MOL_PROPERTY
Pdih
SciTegic.value.DoubleValue
7.848

@<SCITEGIC>MOL_PROPERTY
Idih
SciTegic.value.DoubleValue
0.001

@<SCITEGIC>MOL_PROPERTY
Tether
SciTegic.value.DoubleValue
0.000

@<TRIPOS>MOLECULE
guest-8_vm2.mol2 : vm2 ligand conformer 173
          25          24           1
SMALL
USER_CHARGES
 
@<TRIPOS>ATOM
       1    C1      20.016828   19.911799   26.257352 C.2        1 MOL1         0.6168
       2    O1      21.048145   20.555451   26.255250 O.co2      1 MOL1        -0.6703
       3    O2      18.912503   20.413280   26.176465 O.co2      1 MOL1        -0.6703
       4    C2      20.108442   18.404163   26.486281 C.3        1 MOL1        -0.1963
       5    H1      19.095443   17.994978   26.581429 H          1 MOL1         0.0750
       6    H2      20.593280   18.270285   27.460204 H          1 MOL1         0.0750
       7    C3      20.910249   17.617990   25.411031 C.3        1 MOL1        -0.1860
       8    H3      21.826574   18.163735   25.150196 H          1 MOL1         0.0752
       9    H4      21.248087   16.676720   25.865060 H          1 MOL1         0.0752
      10    C4      20.104217   17.255545   24.136080 C.3        1 MOL1        -0.1858
      11    H5      19.238357   16.645476   24.427191 H          1 MOL1         0.0752
      12    H6      20.726061   16.609781   23.501218 H          1 MOL1         0.0752
      13    C5      19.604660   18.448696   23.284344 C.3        1 MOL1        -0.1858
      14    H7      19.014559   18.043046   22.453042 H          1 MOL1         0.0752
      15    H8      18.914152   19.067346   23.870939 H          1 MOL1         0.0752
      16    C6      20.747822   19.326433   22.718013 C.3        1 MOL1        -0.1858
      17    H9      21.430323   18.707840   22.119897 H          1 MOL1         0.0752
      18    H10     21.339937   19.732749   23.548041 H          1 MOL1         0.0752
      19    C7      20.243639   20.515734   21.867725 C.3        1 MOL1        -0.1834
      20    H11     19.553826   21.129089   22.464163 H          1 MOL1         0.0752
      21    H12     21.099132   21.160460   21.623773 H          1 MOL1         0.0752
      22    C8      19.556495   20.084908   20.553461 C.3        1 MOL1        -0.2849
      23    H13     18.625106   19.538880   20.747770 H          1 MOL1         0.0764
      24    H14     19.304737   20.964104   19.946444 H          1 MOL1         0.0764
      25    H15     20.216422   19.440806   19.957920 H          1 MOL1         0.0764
@<TRIPOS>BOND
    1     1     2    1
    2     1     3    2
    3     1     4    1
    4     4     5    1
    5     4     6    1
    6     4     7    1
    7     7     8    1
    8     7     9    1
    9     7    10    1
   10    10    11    1
   11    10    12    1
   12    10    13    1
   13    13    14    1
   14    13    15    1
   15    13    16    1
   16    16    17    1
   17    16    18    1
   18    16    19    1
   19    19    20    1
   20    19    21    1
   21    19    22    1
   22    22    23    1
   23    22    24    1
   24    22    25    1
@<TRIPOS>SUBSTRUCTURE
       1 MOL1            1 RESIDUE      1      MOL     
@<SCITEGIC>MOL_PROPERTY
VM2 Rank
SciTegic.value.IntegerValue
173

@<SCITEGIC>MOL_PROPERTY
Conf_Id
SciTegic.value.IntegerValue
1357

@<SCITEGIC>MOL_PROPERTY
Probability
SciTegic.value.DoubleValue
0.00

@<SCITEGIC>MOL_PROPERTY
Sum Probability
SciTegic.value.DoubleValue
100.00

@<SCITEGIC>MOL_PROPERTY
Delta G
SciTegic.value.DoubleValue
6.940

@<SCITEGIC>MOL_PROPERTY
G
SciTegic.value.DoubleValue
-1.023

@<SCITEGIC>MOL_PROPERTY
E
SciTegic.value.DoubleValue
-26.833

@<SCITEGIC>MOL_PROPERTY
-TS
SciTegic.value.DoubleValue
25.810

@<SCITEGIC>MOL_PROPERTY
U+W
SciTegic.value.DoubleValue
-47.400

@<SCITEGIC>MOL_PROPERTY
U
SciTegic.value.DoubleValue
13.609

@<SCITEGIC>MOL_PROPERTY
W
SciTegic.value.DoubleValue
-61.009

@<SCITEGIC>MOL_PROPERTY
W(PB)
SciTegic.value.DoubleValue
-63.357

@<SCITEGIC>MOL_PROPERTY
W(SA)
SciTegic.value.DoubleValue
2.348

@<SCITEGIC>MOL_PROPERTY
Valence
SciTegic.value.DoubleValue
10.665

@<SCITEGIC>MOL_PROPERTY
Coulomb
SciTegic.value.DoubleValue
2.594

@<SCITEGIC>MOL_PROPERTY
VdW
SciTegic.value.DoubleValue
0.350

@<SCITEGIC>MOL_PROPERTY
VdW6
SciTegic.value.DoubleValue
-12.152

@<SCITEGIC>MOL_PROPERTY
VdW12
SciTegic.value.DoubleValue
12.502

@<SCITEGIC>MOL_PROPERTY
Bond
SciTegic.value.DoubleValue
0.280

@<SCITEGIC>MOL_PROPERTY
Angle
SciTegic.value.DoubleValue
4.004

@<SCITEGIC>MOL_PROPERTY
Pdih
SciTegic.value.DoubleValue
6.365

@<SCITEGIC>MOL_PROPERTY
Idih
SciTegic.value.DoubleValue
0.017

@<SCITEGIC>MOL_PROPERTY
Tether
SciTegic.value.DoubleValue
0.000

@<TRIPOS>MOLECULE
guest-8_vm2.mol2 : vm2 ligand conformer 174
          25          24           1
SMALL
USER_CHARGES
 
@<TRIPOS>ATOM
       1    C1      20.194234   19.923096   26.255239 C.2        1 MOL1         0.6168
       2    O1      21.224105   20.560104   26.149660 O.co2      1 MOL1        -0.6703
       3    O2      19.090015   20.431129   26.277812 O.co2      1 MOL1        -0.6703
       4    C2      20.299533   18.416333   26.484030 C.3        1 MOL1        -0.1963
       5    H1      19.858182   18.223608   27.468704 H          1 MOL1         0.0750
       6    H2      21.358104   18.138800   26.555141 H          1 MOL1         0.0750
       7    C3      19.579041   17.533406   25.426460 C.3        1 MOL1        -0.1860
       8    H3      19.373575   16.557642   25.886823 H          1 MOL1         0.0752
       9    H4      18.595259   17.958439   25.187621 H          1 MOL1         0.0752
      10    C4      20.394816   17.273936   24.132728 C.3        1 MOL1        -0.1858
      11    H5      19.845168   16.553771   23.511439 H          1 MOL1         0.0752
      12    H6      21.337365   16.778710   24.402907 H          1 MOL1         0.0752
      13    C5      20.719673   18.519434   23.271436 C.3        1 MOL1        -0.1858
      14    H7      21.339695   19.221334   23.842865 H          1 MOL1         0.0752
      15    H8      21.337048   18.190467   22.426176 H          1 MOL1         0.0752
      16    C6      19.461925   19.244662   22.732841 C.3        1 MOL1        -0.1858
      17    H9      18.842347   19.573910   23.576854 H          1 MOL1         0.0752
      18    H10     18.849657   18.543846   22.149579 H          1 MOL1         0.0752
      19    C7      19.791891   20.487044   21.873051 C.3        1 MOL1        -0.1834
      20    H11     18.856303   21.017945   21.649730 H          1 MOL1         0.0752
      21    H12     20.411985   21.183614   22.454481 H          1 MOL1         0.0752
      22    C8      20.497768   20.144856   20.542745 C.3        1 MOL1        -0.2849
      23    H13     19.911197   19.421609   19.961462 H          1 MOL1         0.0764
      24    H14     20.622280   21.048017   19.931491 H          1 MOL1         0.0764
      25    H15     21.494970   19.721350   20.714845 H          1 MOL1         0.0764
@<TRIPOS>BOND
    1     1     2    1
    2     1     3    2
    3     1     4    1
    4     4     5    1
    5     4     6    1
    6     4     7    1
    7     7     8    1
    8     7     9    1
    9     7    10    1
   10    10    11    1
   11    10    12    1
   12    10    13    1
   13    13    14    1
   14    13    15    1
   15    13    16    1
   16    16    17    1
   17    16    18    1
   18    16    19    1
   19    19    20    1
   20    19    21    1
   21    19    22    1
   22    22    23    1
   23    22    24    1
   24    22    25    1
@<TRIPOS>SUBSTRUCTURE
       1 MOL1            1 RESIDUE      1      MOL     
@<SCITEGIC>MOL_PROPERTY
VM2 Rank
SciTegic.value.IntegerValue
174

@<SCITEGIC>MOL_PROPERTY
Conf_Id
SciTegic.value.IntegerValue
839

@<SCITEGIC>MOL_PROPERTY
Probability
SciTegic.value.DoubleValue
0.00

@<SCITEGIC>MOL_PROPERTY
Sum Probability
SciTegic.value.DoubleValue
100.00

@<SCITEGIC>MOL_PROPERTY
Delta G
SciTegic.value.DoubleValue
6.945

@<SCITEGIC>MOL_PROPERTY
G
SciTegic.value.DoubleValue
-1.018

@<SCITEGIC>MOL_PROPERTY
E
SciTegic.value.DoubleValue
-26.828

@<SCITEGIC>MOL_PROPERTY
-TS
SciTegic.value.DoubleValue
25.810

@<SCITEGIC>MOL_PROPERTY
U+W
SciTegic.value.DoubleValue
-47.395

@<SCITEGIC>MOL_PROPERTY
U
SciTegic.value.DoubleValue
13.609

@<SCITEGIC>MOL_PROPERTY
W
SciTegic.value.DoubleValue
-61.004

@<SCITEGIC>MOL_PROPERTY
W(PB)
SciTegic.value.DoubleValue
-63.344

@<SCITEGIC>MOL_PROPERTY
W(SA)
SciTegic.value.DoubleValue
2.340

@<SCITEGIC>MOL_PROPERTY
Valence
SciTegic.value.DoubleValue
10.665

@<SCITEGIC>MOL_PROPERTY
Coulomb
SciTegic.value.DoubleValue
2.594

@<SCITEGIC>MOL_PROPERTY
VdW
SciTegic.value.DoubleValue
0.350

@<SCITEGIC>MOL_PROPERTY
VdW6
SciTegic.value.DoubleValue
-12.152

@<SCITEGIC>MOL_PROPERTY
VdW12
SciTegic.value.DoubleValue
12.502

@<SCITEGIC>MOL_PROPERTY
Bond
SciTegic.value.DoubleValue
0.280

@<SCITEGIC>MOL_PROPERTY
Angle
SciTegic.value.DoubleValue
4.004

@<SCITEGIC>MOL_PROPERTY
Pdih
SciTegic.value.DoubleValue
6.365

@<SCITEGIC>MOL_PROPERTY
Idih
SciTegic.value.DoubleValue
0.017

@<SCITEGIC>MOL_PROPERTY
Tether
SciTegic.value.DoubleValue
0.000

@<TRIPOS>MOLECULE
guest-8_vm2.mol2 : vm2 ligand conformer 175
          25          24           1
SMALL
USER_CHARGES
 
@<TRIPOS>ATOM
       1    C1      20.322731   19.834218   26.555077 C.2        1 MOL1         0.6168
       2    O1      21.354814   20.469565   26.465175 O.co2      1 MOL1        -0.6703
       3    O2      19.255075   20.324538   26.866375 O.co2      1 MOL1        -0.6703
       4    C2      20.379407   18.331423   26.294529 C.3        1 MOL1        -0.1963
       5    H1      19.512277   17.860109   26.772649 H          1 MOL1         0.0750
       6    H2      21.271160   17.943825   26.800955 H          1 MOL1         0.0750
       7    C3      20.433611   17.956060   24.791065 C.3        1 MOL1        -0.1860
       8    H3      21.291577   18.461249   24.328749 H          1 MOL1         0.0752
       9    H4      20.614634   16.876925   24.697857 H          1 MOL1         0.0752
      10    C4      19.128677   18.319726   24.042753 C.3        1 MOL1        -0.1858
      11    H5      18.937858   19.398355   24.106623 H          1 MOL1         0.0752
      12    H6      18.283730   17.836027   24.551258 H          1 MOL1         0.0752
      13    C5      19.125526   17.873219   22.560933 C.3        1 MOL1        -0.1858
      14    H7      19.239524   16.781336   22.523749 H          1 MOL1         0.0752
      15    H8      18.136630   18.085513   22.132483 H          1 MOL1         0.0752
      16    C6      20.209329   18.514484   21.654149 C.3        1 MOL1        -0.1858
      17    H9      20.117117   18.050449   20.662755 H          1 MOL1         0.0752
      18    H10     21.215717   18.252093   22.005412 H          1 MOL1         0.0752
      19    C7      20.081042   20.048091   21.471649 C.3        1 MOL1        -0.1834
      20    H11     20.385740   20.303075   20.447282 H          1 MOL1         0.0752
      21    H12     19.030445   20.356194   21.562856 H          1 MOL1         0.0752
      22    C8      20.962788   20.862676   22.444297 C.3        1 MOL1        -0.2849
      23    H13     22.019856   20.586082   22.340273 H          1 MOL1         0.0764
      24    H14     20.874523   21.936225   22.234064 H          1 MOL1         0.0764
      25    H15     20.673530   20.705720   23.489744 H          1 MOL1         0.0764
@<TRIPOS>BOND
    1     1     2    1
    2     1     3    2
    3     1     4    1
    4     4     5    1
    5     4     6    1
    6     4     7    1
    7     7     8    1
    8     7     9    1
    9     7    10    1
   10    10    11    1
   11    10    12    1
   12    10    13    1
   13    13    14    1
   14    13    15    1
   15    13    16    1
   16    16    17    1
   17    16    18    1
   18    16    19    1
   19    19    20    1
   20    19    21    1
   21    19    22    1
   22    22    23    1
   23    22    24    1
   24    22    25    1
@<TRIPOS>SUBSTRUCTURE
       1 MOL1            1 RESIDUE      1      MOL     
@<SCITEGIC>MOL_PROPERTY
VM2 Rank
SciTegic.value.IntegerValue
175

@<SCITEGIC>MOL_PROPERTY
Conf_Id
SciTegic.value.IntegerValue
858

@<SCITEGIC>MOL_PROPERTY
Probability
SciTegic.value.DoubleValue
0.00

@<SCITEGIC>MOL_PROPERTY
Sum Probability
SciTegic.value.DoubleValue
100.00

@<SCITEGIC>MOL_PROPERTY
Delta G
SciTegic.value.DoubleValue
6.983

@<SCITEGIC>MOL_PROPERTY
G
SciTegic.value.DoubleValue
-0.979

@<SCITEGIC>MOL_PROPERTY
E
SciTegic.value.DoubleValue
-26.700

@<SCITEGIC>MOL_PROPERTY
-TS
SciTegic.value.DoubleValue
25.720

@<SCITEGIC>MOL_PROPERTY
U+W
SciTegic.value.DoubleValue
-47.267

@<SCITEGIC>MOL_PROPERTY
U
SciTegic.value.DoubleValue
13.894

@<SCITEGIC>MOL_PROPERTY
W
SciTegic.value.DoubleValue
-61.161

@<SCITEGIC>MOL_PROPERTY
W(PB)
SciTegic.value.DoubleValue
-63.482

@<SCITEGIC>MOL_PROPERTY
W(SA)
SciTegic.value.DoubleValue
2.321

@<SCITEGIC>MOL_PROPERTY
Valence
SciTegic.value.DoubleValue
11.359

@<SCITEGIC>MOL_PROPERTY
Coulomb
SciTegic.value.DoubleValue
2.378

@<SCITEGIC>MOL_PROPERTY
VdW
SciTegic.value.DoubleValue
0.157

@<SCITEGIC>MOL_PROPERTY
VdW6
SciTegic.value.DoubleValue
-11.937

@<SCITEGIC>MOL_PROPERTY
VdW12
SciTegic.value.DoubleValue
12.093

@<SCITEGIC>MOL_PROPERTY
Bond
SciTegic.value.DoubleValue
0.256

@<SCITEGIC>MOL_PROPERTY
Angle
SciTegic.value.DoubleValue
3.731

@<SCITEGIC>MOL_PROPERTY
Pdih
SciTegic.value.DoubleValue
7.371

@<SCITEGIC>MOL_PROPERTY
Idih
SciTegic.value.DoubleValue
0.001

@<SCITEGIC>MOL_PROPERTY
Tether
SciTegic.value.DoubleValue
0.000

@<TRIPOS>MOLECULE
guest-8_vm2.mol2 : vm2 ligand conformer 176
          25          24           1
SMALL
USER_CHARGES
 
@<TRIPOS>ATOM
       1    C1      19.907757   19.807983   26.559789 C.2        1 MOL1         0.6168
       2    O1      20.911859   20.429841   26.846635 O.co2      1 MOL1        -0.6703
       3    O2      18.801815   20.307614   26.494979 O.co2      1 MOL1        -0.6703
       4    C2      20.035446   18.309669   26.298564 C.3        1 MOL1        -0.1963
       5    H1      19.211773   17.813280   26.824954 H          1 MOL1         0.0750
       6    H2      20.966002   17.952462   26.755855 H          1 MOL1         0.0750
       7    C3      19.994357   17.928118   24.796241 C.3        1 MOL1        -0.1860
       8    H3      19.948905   16.834620   24.705769 H          1 MOL1         0.0752
       9    H4      19.069033   18.320236   24.354569 H          1 MOL1         0.0752
      10    C4      21.225312   18.452425   24.018470 C.3        1 MOL1        -0.1858
      11    H5      22.136070   18.079931   24.506575 H          1 MOL1         0.0752
      12    H6      21.279955   19.546600   24.079502 H          1 MOL1         0.0752
      13    C5      21.250481   18.007731   22.536314 C.3        1 MOL1        -0.1858
      14    H7      22.194549   18.342392   22.085437 H          1 MOL1         0.0752
      15    H8      21.274231   16.910137   22.500158 H          1 MOL1         0.0752
      16    C6      20.073811   18.505927   21.655771 C.3        1 MOL1        -0.1858
      17    H9      19.116926   18.119242   22.029800 H          1 MOL1         0.0752
      18    H10     20.200857   18.055802   20.661819 H          1 MOL1         0.0752
      19    C7      20.003458   20.043206   21.472648 C.3        1 MOL1        -0.1834
      20    H11     21.008642   20.481451   21.540062 H          1 MOL1         0.0752
      21    H12     19.645496   20.256275   20.455961 H          1 MOL1         0.0752
      22    C8      19.048704   20.741486   22.466590 C.3        1 MOL1        -0.2849
      23    H13     19.379441   20.623681   23.504859 H          1 MOL1         0.0764
      24    H14     18.996076   21.817308   22.256029 H          1 MOL1         0.0764
      25    H15     18.032823   20.333703   22.386502 H          1 MOL1         0.0764
@<TRIPOS>BOND
    1     1     2    1
    2     1     3    2
    3     1     4    1
    4     4     5    1
    5     4     6    1
    6     4     7    1
    7     7     8    1
    8     7     9    1
    9     7    10    1
   10    10    11    1
   11    10    12    1
   12    10    13    1
   13    13    14    1
   14    13    15    1
   15    13    16    1
   16    16    17    1
   17    16    18    1
   18    16    19    1
   19    19    20    1
   20    19    21    1
   21    19    22    1
   22    22    23    1
   23    22    24    1
   24    22    25    1
@<TRIPOS>SUBSTRUCTURE
       1 MOL1            1 RESIDUE      1      MOL     
@<SCITEGIC>MOL_PROPERTY
VM2 Rank
SciTegic.value.IntegerValue
176

@<SCITEGIC>MOL_PROPERTY
Conf_Id
SciTegic.value.IntegerValue
215

@<SCITEGIC>MOL_PROPERTY
Probability
SciTegic.value.DoubleValue
0.00

@<SCITEGIC>MOL_PROPERTY
Sum Probability
SciTegic.value.DoubleValue
100.00

@<SCITEGIC>MOL_PROPERTY
Delta G
SciTegic.value.DoubleValue
7.048

@<SCITEGIC>MOL_PROPERTY
G
SciTegic.value.DoubleValue
-0.914

@<SCITEGIC>MOL_PROPERTY
E
SciTegic.value.DoubleValue
-26.635

@<SCITEGIC>MOL_PROPERTY
-TS
SciTegic.value.DoubleValue
25.721

@<SCITEGIC>MOL_PROPERTY
U+W
SciTegic.value.DoubleValue
-47.202

@<SCITEGIC>MOL_PROPERTY
U
SciTegic.value.DoubleValue
13.894

@<SCITEGIC>MOL_PROPERTY
W
SciTegic.value.DoubleValue
-61.096

@<SCITEGIC>MOL_PROPERTY
W(PB)
SciTegic.value.DoubleValue
-63.418

@<SCITEGIC>MOL_PROPERTY
W(SA)
SciTegic.value.DoubleValue
2.321

@<SCITEGIC>MOL_PROPERTY
Valence
SciTegic.value.DoubleValue
11.359

@<SCITEGIC>MOL_PROPERTY
Coulomb
SciTegic.value.DoubleValue
2.378

@<SCITEGIC>MOL_PROPERTY
VdW
SciTegic.value.DoubleValue
0.157

@<SCITEGIC>MOL_PROPERTY
VdW6
SciTegic.value.DoubleValue
-11.937

@<SCITEGIC>MOL_PROPERTY
VdW12
SciTegic.value.DoubleValue
12.093

@<SCITEGIC>MOL_PROPERTY
Bond
SciTegic.value.DoubleValue
0.256

@<SCITEGIC>MOL_PROPERTY
Angle
SciTegic.value.DoubleValue
3.731

@<SCITEGIC>MOL_PROPERTY
Pdih
SciTegic.value.DoubleValue
7.371

@<SCITEGIC>MOL_PROPERTY
Idih
SciTegic.value.DoubleValue
0.001

@<SCITEGIC>MOL_PROPERTY
Tether
SciTegic.value.DoubleValue
0.000

@<TRIPOS>MOLECULE
guest-8_vm2.mol2 : vm2 ligand conformer 177
          25          24           1
SMALL
USER_CHARGES
 
@<TRIPOS>ATOM
       1    C1      19.921239   19.695317   27.087312 C.2        1 MOL1         0.6168
       2    O1      20.944618   20.034569   27.648020 O.co2      1 MOL1        -0.6703
       3    O2      18.881207   19.459316   27.669936 O.co2      1 MOL1        -0.6703
       4    C2      19.949415   19.535103   25.571651 C.3        1 MOL1        -0.1963
       5    H1      20.650267   20.276324   25.171105 H          1 MOL1         0.0750
       6    H2      18.953416   19.781288   25.184938 H          1 MOL1         0.0750
       7    C3      20.358431   18.108126   25.126150 C.3        1 MOL1        -0.1860
       8    H3      21.374583   17.893484   25.484747 H          1 MOL1         0.0752
       9    H4      19.698135   17.382204   25.620477 H          1 MOL1         0.0752
      10    C4      20.287937   17.877833   23.595535 C.3        1 MOL1        -0.1858
      11    H5      19.256310   18.015262   23.247894 H          1 MOL1         0.0752
      12    H6      20.531721   16.823963   23.404635 H          1 MOL1         0.0752
      13    C5      21.265461   18.757851   22.772378 C.3        1 MOL1        -0.1858
      14    H7      22.142899   18.991415   23.390637 H          1 MOL1         0.0752
      15    H8      21.652203   18.175790   21.924879 H          1 MOL1         0.0752
      16    C6      20.647610   20.077040   22.237039 C.3        1 MOL1        -0.1858
      17    H9      21.429525   20.848456   22.243062 H          1 MOL1         0.0752
      18    H10     19.861822   20.440080   22.911044 H          1 MOL1         0.0752
      19    C7      20.092265   19.981390   20.794481 C.3        1 MOL1        -0.1834
      20    H11     19.769972   20.982227   20.475807 H          1 MOL1         0.0752
      21    H12     20.897704   19.684925   20.108506 H          1 MOL1         0.0752
      22    C8      18.904816   19.007455   20.643499 C.3        1 MOL1        -0.2849
      23    H13     18.094347   19.265543   21.337354 H          1 MOL1         0.0764
      24    H14     18.502382   19.047125   19.623116 H          1 MOL1         0.0764
      25    H15     19.213343   17.972823   20.839310 H          1 MOL1         0.0764
@<TRIPOS>BOND
    1     1     2    1
    2     1     3    2
    3     1     4    1
    4     4     5    1
    5     4     6    1
    6     4     7    1
    7     7     8    1
    8     7     9    1
    9     7    10    1
   10    10    11    1
   11    10    12    1
   12    10    13    1
   13    13    14    1
   14    13    15    1
   15    13    16    1
   16    16    17    1
   17    16    18    1
   18    16    19    1
   19    19    20    1
   20    19    21    1
   21    19    22    1
   22    22    23    1
   23    22    24    1
   24    22    25    1
@<TRIPOS>SUBSTRUCTURE
       1 MOL1            1 RESIDUE      1      MOL     
@<SCITEGIC>MOL_PROPERTY
VM2 Rank
SciTegic.value.IntegerValue
177

@<SCITEGIC>MOL_PROPERTY
Conf_Id
SciTegic.value.IntegerValue
6

@<SCITEGIC>MOL_PROPERTY
Probability
SciTegic.value.DoubleValue
0.00

@<SCITEGIC>MOL_PROPERTY
Sum Probability
SciTegic.value.DoubleValue
100.00

@<SCITEGIC>MOL_PROPERTY
Delta G
SciTegic.value.DoubleValue
7.264

@<SCITEGIC>MOL_PROPERTY
G
SciTegic.value.DoubleValue
-0.698

@<SCITEGIC>MOL_PROPERTY
E
SciTegic.value.DoubleValue
-25.926

@<SCITEGIC>MOL_PROPERTY
-TS
SciTegic.value.DoubleValue
25.227

@<SCITEGIC>MOL_PROPERTY
U+W
SciTegic.value.DoubleValue
-46.493

@<SCITEGIC>MOL_PROPERTY
U
SciTegic.value.DoubleValue
13.064

@<SCITEGIC>MOL_PROPERTY
W
SciTegic.value.DoubleValue
-59.557

@<SCITEGIC>MOL_PROPERTY
W(PB)
SciTegic.value.DoubleValue
-61.926

@<SCITEGIC>MOL_PROPERTY
W(SA)
SciTegic.value.DoubleValue
2.369

@<SCITEGIC>MOL_PROPERTY
Valence
SciTegic.value.DoubleValue
13.064

@<SCITEGIC>MOL_PROPERTY
Coulomb
SciTegic.value.DoubleValue
-1.007

@<SCITEGIC>MOL_PROPERTY
VdW
SciTegic.value.DoubleValue
1.008

@<SCITEGIC>MOL_PROPERTY
VdW6
SciTegic.value.DoubleValue
-10.968

@<SCITEGIC>MOL_PROPERTY
VdW12
SciTegic.value.DoubleValue
11.976

@<SCITEGIC>MOL_PROPERTY
Bond
SciTegic.value.DoubleValue
0.280

@<SCITEGIC>MOL_PROPERTY
Angle
SciTegic.value.DoubleValue
3.439

@<SCITEGIC>MOL_PROPERTY
Pdih
SciTegic.value.DoubleValue
9.344

@<SCITEGIC>MOL_PROPERTY
Idih
SciTegic.value.DoubleValue
0.001

@<SCITEGIC>MOL_PROPERTY
Tether
SciTegic.value.DoubleValue
0.000

@<TRIPOS>MOLECULE
guest-8_vm2.mol2 : vm2 ligand conformer 178
          25          24           1
SMALL
USER_CHARGES
 
@<TRIPOS>ATOM
       1    C1      20.492923   19.056385   26.528563 C.2        1 MOL1         0.6168
       2    O1      21.643703   19.445640   26.483896 O.co2      1 MOL1        -0.6703
       3    O2      20.178551   17.928149   26.853916 O.co2      1 MOL1        -0.6703
       4    C2      19.379398   20.068244   26.266889 C.3        1 MOL1        -0.1963
       5    H1      19.521466   20.877190   26.992820 H          1 MOL1         0.0750
       6    H2      18.413667   19.604055   26.500284 H          1 MOL1         0.0750
       7    C3      19.356057   20.673633   24.835169 C.3        1 MOL1        -0.1860
       8    H3      18.801010   21.620206   24.880238 H          1 MOL1         0.0752
       9    H4      20.373828   20.941744   24.522014 H          1 MOL1         0.0752
      10    C4      18.670593   19.782579   23.766631 C.3        1 MOL1        -0.1858
      11    H5      18.547002   20.369026   22.846805 H          1 MOL1         0.0752
      12    H6      17.652172   19.544902   24.102248 H          1 MOL1         0.0752
      13    C5      19.401499   18.459258   23.422194 C.3        1 MOL1        -0.1858
      14    H7      19.406073   17.806141   24.303693 H          1 MOL1         0.0752
      15    H8      18.813769   17.920166   22.668002 H          1 MOL1         0.0752
      16    C6      20.857019   18.621199   22.909615 C.3        1 MOL1        -0.1858
      17    H9      21.263167   17.624724   22.690035 H          1 MOL1         0.0752
      18    H10     21.483336   19.023732   23.716480 H          1 MOL1         0.0752
      19    C7      21.019404   19.514806   21.655285 C.3        1 MOL1        -0.1834
      20    H11     20.697659   20.540596   21.878553 H          1 MOL1         0.0752
      21    H12     22.087696   19.578555   21.407253 H          1 MOL1         0.0752
      22    C8      20.253853   18.984107   20.423843 C.3        1 MOL1        -0.2849
      23    H13     20.547845   17.951874   20.193672 H          1 MOL1         0.0764
      24    H14     19.169416   19.004832   20.589492 H          1 MOL1         0.0764
      25    H15     20.468072   19.602069   19.542407 H          1 MOL1         0.0764
@<TRIPOS>BOND
    1     1     2    1
    2     1     3    2
    3     1     4    1
    4     4     5    1
    5     4     6    1
    6     4     7    1
    7     7     8    1
    8     7     9    1
    9     7    10    1
   10    10    11    1
   11    10    12    1
   12    10    13    1
   13    13    14    1
   14    13    15    1
   15    13    16    1
   16    16    17    1
   17    16    18    1
   18    16    19    1
   19    19    20    1
   20    19    21    1
   21    19    22    1
   22    22    23    1
   23    22    24    1
   24    22    25    1
@<TRIPOS>SUBSTRUCTURE
       1 MOL1            1 RESIDUE      1      MOL     
@<SCITEGIC>MOL_PROPERTY
VM2 Rank
SciTegic.value.IntegerValue
178

@<SCITEGIC>MOL_PROPERTY
Conf_Id
SciTegic.value.IntegerValue
1098

@<SCITEGIC>MOL_PROPERTY
Probability
SciTegic.value.DoubleValue
0.00

@<SCITEGIC>MOL_PROPERTY
Sum Probability
SciTegic.value.DoubleValue
100.00

@<SCITEGIC>MOL_PROPERTY
Delta G
SciTegic.value.DoubleValue
7.277

@<SCITEGIC>MOL_PROPERTY
G
SciTegic.value.DoubleValue
-0.686

@<SCITEGIC>MOL_PROPERTY
E
SciTegic.value.DoubleValue
-26.971

@<SCITEGIC>MOL_PROPERTY
-TS
SciTegic.value.DoubleValue
26.285

@<SCITEGIC>MOL_PROPERTY
U+W
SciTegic.value.DoubleValue
-47.538

@<SCITEGIC>MOL_PROPERTY
U
SciTegic.value.DoubleValue
13.324

@<SCITEGIC>MOL_PROPERTY
W
SciTegic.value.DoubleValue
-60.863

@<SCITEGIC>MOL_PROPERTY
W(PB)
SciTegic.value.DoubleValue
-63.188

@<SCITEGIC>MOL_PROPERTY
W(SA)
SciTegic.value.DoubleValue
2.325

@<SCITEGIC>MOL_PROPERTY
Valence
SciTegic.value.DoubleValue
10.989

@<SCITEGIC>MOL_PROPERTY
Coulomb
SciTegic.value.DoubleValue
2.085

@<SCITEGIC>MOL_PROPERTY
VdW
SciTegic.value.DoubleValue
0.250

@<SCITEGIC>MOL_PROPERTY
VdW6
SciTegic.value.DoubleValue
-13.143

@<SCITEGIC>MOL_PROPERTY
VdW12
SciTegic.value.DoubleValue
13.393

@<SCITEGIC>MOL_PROPERTY
Bond
SciTegic.value.DoubleValue
0.321

@<SCITEGIC>MOL_PROPERTY
Angle
SciTegic.value.DoubleValue
4.360

@<SCITEGIC>MOL_PROPERTY
Pdih
SciTegic.value.DoubleValue
6.292

@<SCITEGIC>MOL_PROPERTY
Idih
SciTegic.value.DoubleValue
0.016

@<SCITEGIC>MOL_PROPERTY
Tether
SciTegic.value.DoubleValue
0.000

@<TRIPOS>MOLECULE
guest-8_vm2.mol2 : vm2 ligand conformer 179
          25          24           1
SMALL
USER_CHARGES
 
@<TRIPOS>ATOM
       1    C1      20.182356   18.895506   27.106279 C.2        1 MOL1         0.6168
       2    O1      21.201019   19.249187   27.666658 O.co2      1 MOL1        -0.6703
       3    O2      19.195281   18.497248   27.692700 O.co2      1 MOL1        -0.6703
       4    C2      20.131870   18.976406   25.584900 C.3        1 MOL1        -0.1963
       5    H1      19.478276   18.173890   25.223027 H          1 MOL1         0.0750
       6    H2      21.140541   18.774870   25.206734 H          1 MOL1         0.0750
       7    C3      19.626755   20.349307   25.073009 C.3        1 MOL1        -0.1860
       8    H3      18.658568   20.566469   25.544992 H          1 MOL1         0.0752
       9    H4      20.315648   21.137065   25.407814 H          1 MOL1         0.0752
      10    C4      19.455388   20.427868   23.535074 C.3        1 MOL1        -0.1858
      11    H5      19.033341   21.413335   23.295812 H          1 MOL1         0.0752
      12    H6      18.708320   19.693709   23.208119 H          1 MOL1         0.0752
      13    C5      20.775200   20.259452   22.736766 C.3        1 MOL1        -0.1858
      14    H7      20.756032   20.920621   21.859778 H          1 MOL1         0.0752
      15    H8      21.612790   20.615080   23.352121 H          1 MOL1         0.0752
      16    C6      21.061827   18.808285   22.267139 C.3        1 MOL1        -0.1858
      17    H9      20.632006   18.080962   22.966996 H          1 MOL1         0.0752
      18    H10     22.148056   18.647592   22.295288 H          1 MOL1         0.0752
      19    C7      20.577201   18.496103   20.829707 C.3        1 MOL1        -0.1834
      20    H11     21.062261   19.180867   20.120482 H          1 MOL1         0.0752
      21    H12     20.911748   17.485291   20.558713 H          1 MOL1         0.0752
      22    C8      19.046103   18.574638   20.653768 C.3        1 MOL1        -0.2849
      23    H13     18.682215   19.599311   20.800819 H          1 MOL1         0.0764
      24    H14     18.758850   18.261649   19.641725 H          1 MOL1         0.0764
      25    H15     18.534240   17.918150   21.369257 H          1 MOL1         0.0764
@<TRIPOS>BOND
    1     1     2    1
    2     1     3    2
    3     1     4    1
    4     4     5    1
    5     4     6    1
    6     4     7    1
    7     7     8    1
    8     7     9    1
    9     7    10    1
   10    10    11    1
   11    10    12    1
   12    10    13    1
   13    13    14    1
   14    13    15    1
   15    13    16    1
   16    16    17    1
   17    16    18    1
   18    16    19    1
   19    19    20    1
   20    19    21    1
   21    19    22    1
   22    22    23    1
   23    22    24    1
   24    22    25    1
@<TRIPOS>SUBSTRUCTURE
       1 MOL1            1 RESIDUE      1      MOL     
@<SCITEGIC>MOL_PROPERTY
VM2 Rank
SciTegic.value.IntegerValue
179

@<SCITEGIC>MOL_PROPERTY
Conf_Id
SciTegic.value.IntegerValue
5

@<SCITEGIC>MOL_PROPERTY
Probability
SciTegic.value.DoubleValue
0.00

@<SCITEGIC>MOL_PROPERTY
Sum Probability
SciTegic.value.DoubleValue
100.00

@<SCITEGIC>MOL_PROPERTY
Delta G
SciTegic.value.DoubleValue
7.289

@<SCITEGIC>MOL_PROPERTY
G
SciTegic.value.DoubleValue
-0.673

@<SCITEGIC>MOL_PROPERTY
E
SciTegic.value.DoubleValue
-25.900

@<SCITEGIC>MOL_PROPERTY
-TS
SciTegic.value.DoubleValue
25.227

@<SCITEGIC>MOL_PROPERTY
U+W
SciTegic.value.DoubleValue
-46.468

@<SCITEGIC>MOL_PROPERTY
U
SciTegic.value.DoubleValue
13.064

@<SCITEGIC>MOL_PROPERTY
W
SciTegic.value.DoubleValue
-59.532

@<SCITEGIC>MOL_PROPERTY
W(PB)
SciTegic.value.DoubleValue
-61.933

@<SCITEGIC>MOL_PROPERTY
W(SA)
SciTegic.value.DoubleValue
2.401

@<SCITEGIC>MOL_PROPERTY
Valence
SciTegic.value.DoubleValue
13.064

@<SCITEGIC>MOL_PROPERTY
Coulomb
SciTegic.value.DoubleValue
-1.008

@<SCITEGIC>MOL_PROPERTY
VdW
SciTegic.value.DoubleValue
1.008

@<SCITEGIC>MOL_PROPERTY
VdW6
SciTegic.value.DoubleValue
-10.968

@<SCITEGIC>MOL_PROPERTY
VdW12
SciTegic.value.DoubleValue
11.977

@<SCITEGIC>MOL_PROPERTY
Bond
SciTegic.value.DoubleValue
0.280

@<SCITEGIC>MOL_PROPERTY
Angle
SciTegic.value.DoubleValue
3.438

@<SCITEGIC>MOL_PROPERTY
Pdih
SciTegic.value.DoubleValue
9.345

@<SCITEGIC>MOL_PROPERTY
Idih
SciTegic.value.DoubleValue
0.001

@<SCITEGIC>MOL_PROPERTY
Tether
SciTegic.value.DoubleValue
0.000

@<TRIPOS>MOLECULE
guest-8_vm2.mol2 : vm2 ligand conformer 180
          25          24           1
SMALL
USER_CHARGES
 
@<TRIPOS>ATOM
       1    C1      19.699646   19.507297   27.032947 C.2        1 MOL1         0.6168
       2    O1      20.519093   19.851950   27.861519 O.co2      1 MOL1        -0.6703
       3    O2      18.555036   19.914536   27.008047 O.co2      1 MOL1        -0.6703
       4    C2      20.137003   18.521462   25.955447 C.3        1 MOL1        -0.1963
       5    H1      19.264300   17.923789   25.666037 H          1 MOL1         0.0750
       6    H2      20.868515   17.835021   26.398265 H          1 MOL1         0.0750
       7    C3      20.741399   19.218710   24.712038 C.3        1 MOL1        -0.1860
       8    H3      20.004352   19.917983   24.299596 H          1 MOL1         0.0752
       9    H4      21.606260   19.822005   25.020574 H          1 MOL1         0.0752
      10    C4      21.180934   18.196091   23.637737 C.3        1 MOL1        -0.1858
      11    H5      20.350837   17.527417   23.374041 H          1 MOL1         0.0752
      12    H6      21.958027   17.555437   24.076595 H          1 MOL1         0.0752
      13    C5      21.755551   18.858893   22.361354 C.3        1 MOL1        -0.1858
      14    H7      22.219501   19.823376   22.608913 H          1 MOL1         0.0752
      15    H8      22.573792   18.224204   21.994634 H          1 MOL1         0.0752
      16    C6      20.752597   19.035766   21.190327 C.3        1 MOL1        -0.1858
      17    H9      20.342341   18.060361   20.895292 H          1 MOL1         0.0752
      18    H10     21.326691   19.388262   20.322563 H          1 MOL1         0.0752
      19    C7      19.605059   20.045819   21.436888 C.3        1 MOL1        -0.1834
      20    H11     19.933624   20.836739   22.124251 H          1 MOL1         0.0752
      21    H12     19.373240   20.548218   20.487649 H          1 MOL1         0.0752
      22    C8      18.306681   19.383477   21.949695 C.3        1 MOL1        -0.2849
      23    H13     17.523181   20.137897   22.096695 H          1 MOL1         0.0764
      24    H14     17.932589   18.646977   21.226880 H          1 MOL1         0.0764
      25    H15     18.459385   18.870418   22.905642 H          1 MOL1         0.0764
@<TRIPOS>BOND
    1     1     2    1
    2     1     3    2
    3     1     4    1
    4     4     5    1
    5     4     6    1
    6     4     7    1
    7     7     8    1
    8     7     9    1
    9     7    10    1
   10    10    11    1
   11    10    12    1
   12    10    13    1
   13    13    14    1
   14    13    15    1
   15    13    16    1
   16    16    17    1
   17    16    18    1
   18    16    19    1
   19    19    20    1
   20    19    21    1
   21    19    22    1
   22    22    23    1
   23    22    24    1
   24    22    25    1
@<TRIPOS>SUBSTRUCTURE
       1 MOL1            1 RESIDUE      1      MOL     
@<SCITEGIC>MOL_PROPERTY
VM2 Rank
SciTegic.value.IntegerValue
180

@<SCITEGIC>MOL_PROPERTY
Conf_Id
SciTegic.value.IntegerValue
286

@<SCITEGIC>MOL_PROPERTY
Probability
SciTegic.value.DoubleValue
0.00

@<SCITEGIC>MOL_PROPERTY
Sum Probability
SciTegic.value.DoubleValue
100.00

@<SCITEGIC>MOL_PROPERTY
Delta G
SciTegic.value.DoubleValue
7.290

@<SCITEGIC>MOL_PROPERTY
G
SciTegic.value.DoubleValue
-0.672

@<SCITEGIC>MOL_PROPERTY
E
SciTegic.value.DoubleValue
-25.927

@<SCITEGIC>MOL_PROPERTY
-TS
SciTegic.value.DoubleValue
25.254

@<SCITEGIC>MOL_PROPERTY
U+W
SciTegic.value.DoubleValue
-46.494

@<SCITEGIC>MOL_PROPERTY
U
SciTegic.value.DoubleValue
13.593

@<SCITEGIC>MOL_PROPERTY
W
SciTegic.value.DoubleValue
-60.087

@<SCITEGIC>MOL_PROPERTY
W(PB)
SciTegic.value.DoubleValue
-62.472

@<SCITEGIC>MOL_PROPERTY
W(SA)
SciTegic.value.DoubleValue
2.385

@<SCITEGIC>MOL_PROPERTY
Valence
SciTegic.value.DoubleValue
13.121

@<SCITEGIC>MOL_PROPERTY
Coulomb
SciTegic.value.DoubleValue
-0.198

@<SCITEGIC>MOL_PROPERTY
VdW
SciTegic.value.DoubleValue
0.669

@<SCITEGIC>MOL_PROPERTY
VdW6
SciTegic.value.DoubleValue
-10.627

@<SCITEGIC>MOL_PROPERTY
VdW12
SciTegic.value.DoubleValue
11.296

@<SCITEGIC>MOL_PROPERTY
Bond
SciTegic.value.DoubleValue
0.238

@<SCITEGIC>MOL_PROPERTY
Angle
SciTegic.value.DoubleValue
3.709

@<SCITEGIC>MOL_PROPERTY
Pdih
SciTegic.value.DoubleValue
9.174

@<SCITEGIC>MOL_PROPERTY
Idih
SciTegic.value.DoubleValue
0.000

@<SCITEGIC>MOL_PROPERTY
Tether
SciTegic.value.DoubleValue
0.000

@<TRIPOS>MOLECULE
guest-8_vm2.mol2 : vm2 ligand conformer 181
          25          24           1
SMALL
USER_CHARGES
 
@<TRIPOS>ATOM
       1    C1      19.837169   19.013976   26.536127 C.2        1 MOL1         0.6168
       2    O1      20.301667   17.936115   26.852447 O.co2      1 MOL1        -0.6703
       3    O2      18.645114   19.251682   26.518570 O.co2      1 MOL1        -0.6703
       4    C2      20.804891   20.160340   26.250402 C.3        1 MOL1        -0.1963
       5    H1      21.827454   19.824642   26.460765 H          1 MOL1         0.0750
       6    H2      20.576668   20.945330   26.980647 H          1 MOL1         0.0750
       7    C3      20.717109   20.761616   24.819451 C.3        1 MOL1        -0.1860
       8    H3      19.666349   20.896007   24.530229 H          1 MOL1         0.0752
       9    H4      21.146562   21.771835   24.853165 H          1 MOL1         0.0752
      10    C4      21.486788   19.964671   23.734054 C.3        1 MOL1        -0.1858
      11    H5      22.534795   19.860594   24.045757 H          1 MOL1         0.0752
      12    H6      21.512608   20.560798   22.812512 H          1 MOL1         0.0752
      13    C5      20.924608   18.557753   23.404552 C.3        1 MOL1        -0.1858
      14    H7      21.559304   18.097722   22.636186 H          1 MOL1         0.0752
      15    H8      21.024501   17.910774   24.284928 H          1 MOL1         0.0752
      16    C6      19.448918   18.530195   22.925929 C.3        1 MOL1        -0.1858
      17    H9      18.794775   18.849939   23.747632 H          1 MOL1         0.0752
      18    H10     19.169479   17.489400   22.714284 H          1 MOL1         0.0752
      19    C7      19.143937   19.393605   21.677026 C.3        1 MOL1        -0.1834
      20    H11     18.070888   19.318933   21.453818 H          1 MOL1         0.0752
      21    H12     19.336020   20.452608   21.894349 H          1 MOL1         0.0752
      22    C8      19.942799   18.964047   20.427443 C.3        1 MOL1        -0.2849
      23    H13     21.019083   19.124398   20.568057 H          1 MOL1         0.0764
      24    H14     19.778857   17.902229   20.202541 H          1 MOL1         0.0764
      25    H15     19.630555   19.548019   19.552127 H          1 MOL1         0.0764
@<TRIPOS>BOND
    1     1     2    1
    2     1     3    2
    3     1     4    1
    4     4     5    1
    5     4     6    1
    6     4     7    1
    7     7     8    1
    8     7     9    1
    9     7    10    1
   10    10    11    1
   11    10    12    1
   12    10    13    1
   13    13    14    1
   14    13    15    1
   15    13    16    1
   16    16    17    1
   17    16    18    1
   18    16    19    1
   19    19    20    1
   20    19    21    1
   21    19    22    1
   22    22    23    1
   23    22    24    1
   24    22    25    1
@<TRIPOS>SUBSTRUCTURE
       1 MOL1            1 RESIDUE      1      MOL     
@<SCITEGIC>MOL_PROPERTY
VM2 Rank
SciTegic.value.IntegerValue
181

@<SCITEGIC>MOL_PROPERTY
Conf_Id
SciTegic.value.IntegerValue
552

@<SCITEGIC>MOL_PROPERTY
Probability
SciTegic.value.DoubleValue
0.00

@<SCITEGIC>MOL_PROPERTY
Sum Probability
SciTegic.value.DoubleValue
100.00

@<SCITEGIC>MOL_PROPERTY
Delta G
SciTegic.value.DoubleValue
7.327

@<SCITEGIC>MOL_PROPERTY
G
SciTegic.value.DoubleValue
-0.635

@<SCITEGIC>MOL_PROPERTY
E
SciTegic.value.DoubleValue
-26.920

@<SCITEGIC>MOL_PROPERTY
-TS
SciTegic.value.DoubleValue
26.285

@<SCITEGIC>MOL_PROPERTY
U+W
SciTegic.value.DoubleValue
-47.488

@<SCITEGIC>MOL_PROPERTY
U
SciTegic.value.DoubleValue
13.324

@<SCITEGIC>MOL_PROPERTY
W
SciTegic.value.DoubleValue
-60.812

@<SCITEGIC>MOL_PROPERTY
W(PB)
SciTegic.value.DoubleValue
-63.140

@<SCITEGIC>MOL_PROPERTY
W(SA)
SciTegic.value.DoubleValue
2.328

@<SCITEGIC>MOL_PROPERTY
Valence
SciTegic.value.DoubleValue
10.989

@<SCITEGIC>MOL_PROPERTY
Coulomb
SciTegic.value.DoubleValue
2.085

@<SCITEGIC>MOL_PROPERTY
VdW
SciTegic.value.DoubleValue
0.250

@<SCITEGIC>MOL_PROPERTY
VdW6
SciTegic.value.DoubleValue
-13.143

@<SCITEGIC>MOL_PROPERTY
VdW12
SciTegic.value.DoubleValue
13.393

@<SCITEGIC>MOL_PROPERTY
Bond
SciTegic.value.DoubleValue
0.321

@<SCITEGIC>MOL_PROPERTY
Angle
SciTegic.value.DoubleValue
4.360

@<SCITEGIC>MOL_PROPERTY
Pdih
SciTegic.value.DoubleValue
6.292

@<SCITEGIC>MOL_PROPERTY
Idih
SciTegic.value.DoubleValue
0.016

@<SCITEGIC>MOL_PROPERTY
Tether
SciTegic.value.DoubleValue
0.000

@<TRIPOS>MOLECULE
guest-8_vm2.mol2 : vm2 ligand conformer 182
          25          24           1
SMALL
USER_CHARGES
 
@<TRIPOS>ATOM
       1    C1      20.025589   20.060145   26.551943 C.2        1 MOL1         0.6168
       2    O1      20.640787   21.045632   26.195862 O.co2      1 MOL1        -0.6703
       3    O2      19.827541   19.774213   27.716451 O.co2      1 MOL1        -0.6703
       4    C2      19.493355   19.116348   25.479804 C.3        1 MOL1        -0.1963
       5    H1      19.194753   19.722550   24.619413 H          1 MOL1         0.0750
       6    H2      18.583230   18.642565   25.866277 H          1 MOL1         0.0750
       7    C3      20.524573   18.031275   25.071250 C.3        1 MOL1        -0.1860
       8    H3      21.468333   18.496814   24.756927 H          1 MOL1         0.0752
       9    H4      20.762756   17.441780   25.967401 H          1 MOL1         0.0752
      10    C4      20.007287   17.070131   23.972191 C.3        1 MOL1        -0.1858
      11    H5      18.918629   16.948676   24.055081 H          1 MOL1         0.0752
      12    H6      20.430646   16.076150   24.171462 H          1 MOL1         0.0752
      13    C5      20.391713   17.448276   22.517131 C.3        1 MOL1        -0.1858
      14    H7      21.484522   17.499158   22.417325 H          1 MOL1         0.0752
      15    H8      20.075839   16.617148   21.871908 H          1 MOL1         0.0752
      16    C6      19.742484   18.743165   21.968381 C.3        1 MOL1        -0.1858
      17    H9      18.771520   18.913583   22.451718 H          1 MOL1         0.0752
      18    H10     19.526317   18.596768   20.901280 H          1 MOL1         0.0752
      19    C7      20.648746   19.988873   22.103414 C.3        1 MOL1        -0.1834
      20    H11     20.934314   20.149021   23.150220 H          1 MOL1         0.0752
      21    H12     21.581602   19.826157   21.546426 H          1 MOL1         0.0752
      22    C8      19.950925   21.255941   21.569573 C.3        1 MOL1        -0.2849
      23    H13     20.609781   22.128780   21.664460 H          1 MOL1         0.0764
      24    H14     19.686793   21.143193   20.509994 H          1 MOL1         0.0764
      25    H15     19.031715   21.463156   22.132960 H          1 MOL1         0.0764
@<TRIPOS>BOND
    1     1     2    1
    2     1     3    2
    3     1     4    1
    4     4     5    1
    5     4     6    1
    6     4     7    1
    7     7     8    1
    8     7     9    1
    9     7    10    1
   10    10    11    1
   11    10    12    1
   12    10    13    1
   13    13    14    1
   14    13    15    1
   15    13    16    1
   16    16    17    1
   17    16    18    1
   18    16    19    1
   19    19    20    1
   20    19    21    1
   21    19    22    1
   22    22    23    1
   23    22    24    1
   24    22    25    1
@<TRIPOS>SUBSTRUCTURE
       1 MOL1            1 RESIDUE      1      MOL     
@<SCITEGIC>MOL_PROPERTY
VM2 Rank
SciTegic.value.IntegerValue
182

@<SCITEGIC>MOL_PROPERTY
Conf_Id
SciTegic.value.IntegerValue
255

@<SCITEGIC>MOL_PROPERTY
Probability
SciTegic.value.DoubleValue
0.00

@<SCITEGIC>MOL_PROPERTY
Sum Probability
SciTegic.value.DoubleValue
100.00

@<SCITEGIC>MOL_PROPERTY
Delta G
SciTegic.value.DoubleValue
7.413

@<SCITEGIC>MOL_PROPERTY
G
SciTegic.value.DoubleValue
-0.549

@<SCITEGIC>MOL_PROPERTY
E
SciTegic.value.DoubleValue
-25.886

@<SCITEGIC>MOL_PROPERTY
-TS
SciTegic.value.DoubleValue
25.337

@<SCITEGIC>MOL_PROPERTY
U+W
SciTegic.value.DoubleValue
-46.453

@<SCITEGIC>MOL_PROPERTY
U
SciTegic.value.DoubleValue
13.989

@<SCITEGIC>MOL_PROPERTY
W
SciTegic.value.DoubleValue
-60.442

@<SCITEGIC>MOL_PROPERTY
W(PB)
SciTegic.value.DoubleValue
-62.803

@<SCITEGIC>MOL_PROPERTY
W(SA)
SciTegic.value.DoubleValue
2.361

@<SCITEGIC>MOL_PROPERTY
Valence
SciTegic.value.DoubleValue
13.108

@<SCITEGIC>MOL_PROPERTY
Coulomb
SciTegic.value.DoubleValue
0.471

@<SCITEGIC>MOL_PROPERTY
VdW
SciTegic.value.DoubleValue
0.410

@<SCITEGIC>MOL_PROPERTY
VdW6
SciTegic.value.DoubleValue
-11.098

@<SCITEGIC>MOL_PROPERTY
VdW12
SciTegic.value.DoubleValue
11.508

@<SCITEGIC>MOL_PROPERTY
Bond
SciTegic.value.DoubleValue
0.254

@<SCITEGIC>MOL_PROPERTY
Angle
SciTegic.value.DoubleValue
3.733

@<SCITEGIC>MOL_PROPERTY
Pdih
SciTegic.value.DoubleValue
9.120

@<SCITEGIC>MOL_PROPERTY
Idih
SciTegic.value.DoubleValue
0.001

@<SCITEGIC>MOL_PROPERTY
Tether
SciTegic.value.DoubleValue
0.000

@<TRIPOS>MOLECULE
guest-8_vm2.mol2 : vm2 ligand conformer 183
          25          24           1
SMALL
USER_CHARGES
 
@<TRIPOS>ATOM
       1    C1      20.837201   19.397598   26.581504 C.2        1 MOL1         0.6168
       2    O1      21.695570   20.184364   26.234158 O.co2      1 MOL1        -0.6703
       3    O2      20.545689   19.188205   27.742637 O.co2      1 MOL1        -0.6703
       4    C2      20.066015   18.648725   25.500775 C.3        1 MOL1        -0.1963
       5    H1      19.766525   17.676461   25.909638 H          1 MOL1         0.0750
       6    H2      20.756502   18.447260   24.676421 H          1 MOL1         0.0750
       7    C3      18.816234   19.425874   25.009045 C.3        1 MOL1        -0.1860
       8    H3      18.152506   19.572739   25.872306 H          1 MOL1         0.0752
       9    H4      19.097800   20.432027   24.670544 H          1 MOL1         0.0752
      10    C4      18.026356   18.687258   23.900057 C.3        1 MOL1        -0.1858
      11    H5      16.960216   18.909191   24.045083 H          1 MOL1         0.0752
      12    H6      18.120743   17.600048   24.026008 H          1 MOL1         0.0752
      13    C5      18.383521   19.087709   22.444021 C.3        1 MOL1        -0.1858
      14    H7      17.660961   18.588618   21.783963 H          1 MOL1         0.0752
      15    H8      18.220014   20.164218   22.298504 H          1 MOL1         0.0752
      16    C6      19.804490   18.692570   21.970656 C.3        1 MOL1        -0.1858
      17    H9      19.750825   18.413565   20.909459 H          1 MOL1         0.0752
      18    H10     20.143625   17.793428   22.501655 H          1 MOL1         0.0752
      19    C7      20.837612   19.834706   22.110367 C.3        1 MOL1        -0.1834
      20    H11     20.516748   20.695518   21.507888 H          1 MOL1         0.0752
      21    H12     20.891925   20.183591   23.148793 H          1 MOL1         0.0752
      22    C8      22.240311   19.386992   21.652779 C.3        1 MOL1        -0.2849
      23    H13     22.959446   20.210614   21.749923 H          1 MOL1         0.0764
      24    H14     22.601735   18.548674   22.262602 H          1 MOL1         0.0764
      25    H15     22.228689   19.068189   20.602343 H          1 MOL1         0.0764
@<TRIPOS>BOND
    1     1     2    1
    2     1     3    2
    3     1     4    1
    4     4     5    1
    5     4     6    1
    6     4     7    1
    7     7     8    1
    8     7     9    1
    9     7    10    1
   10    10    11    1
   11    10    12    1
   12    10    13    1
   13    13    14    1
   14    13    15    1
   15    13    16    1
   16    16    17    1
   17    16    18    1
   18    16    19    1
   19    19    20    1
   20    19    21    1
   21    19    22    1
   22    22    23    1
   23    22    24    1
   24    22    25    1
@<TRIPOS>SUBSTRUCTURE
       1 MOL1            1 RESIDUE      1      MOL     
@<SCITEGIC>MOL_PROPERTY
VM2 Rank
SciTegic.value.IntegerValue
183

@<SCITEGIC>MOL_PROPERTY
Conf_Id
SciTegic.value.IntegerValue
1205

@<SCITEGIC>MOL_PROPERTY
Probability
SciTegic.value.DoubleValue
0.00

@<SCITEGIC>MOL_PROPERTY
Sum Probability
SciTegic.value.DoubleValue
100.00

@<SCITEGIC>MOL_PROPERTY
Delta G
SciTegic.value.DoubleValue
7.438

@<SCITEGIC>MOL_PROPERTY
G
SciTegic.value.DoubleValue
-0.525

@<SCITEGIC>MOL_PROPERTY
E
SciTegic.value.DoubleValue
-25.861

@<SCITEGIC>MOL_PROPERTY
-TS
SciTegic.value.DoubleValue
25.336

@<SCITEGIC>MOL_PROPERTY
U+W
SciTegic.value.DoubleValue
-46.428

@<SCITEGIC>MOL_PROPERTY
U
SciTegic.value.DoubleValue
13.989

@<SCITEGIC>MOL_PROPERTY
W
SciTegic.value.DoubleValue
-60.418

@<SCITEGIC>MOL_PROPERTY
W(PB)
SciTegic.value.DoubleValue
-62.801

@<SCITEGIC>MOL_PROPERTY
W(SA)
SciTegic.value.DoubleValue
2.384

@<SCITEGIC>MOL_PROPERTY
Valence
SciTegic.value.DoubleValue
13.108

@<SCITEGIC>MOL_PROPERTY
Coulomb
SciTegic.value.DoubleValue
0.471

@<SCITEGIC>MOL_PROPERTY
VdW
SciTegic.value.DoubleValue
0.410

@<SCITEGIC>MOL_PROPERTY
VdW6
SciTegic.value.DoubleValue
-11.098

@<SCITEGIC>MOL_PROPERTY
VdW12
SciTegic.value.DoubleValue
11.508

@<SCITEGIC>MOL_PROPERTY
Bond
SciTegic.value.DoubleValue
0.254

@<SCITEGIC>MOL_PROPERTY
Angle
SciTegic.value.DoubleValue
3.732

@<SCITEGIC>MOL_PROPERTY
Pdih
SciTegic.value.DoubleValue
9.121

@<SCITEGIC>MOL_PROPERTY
Idih
SciTegic.value.DoubleValue
0.001

@<SCITEGIC>MOL_PROPERTY
Tether
SciTegic.value.DoubleValue
0.000

@<TRIPOS>MOLECULE
guest-8_vm2.mol2 : vm2 ligand conformer 184
          25          24           1
SMALL
USER_CHARGES
 
@<TRIPOS>ATOM
       1    C1      20.386621   19.600414   26.728208 C.2        1 MOL1         0.6168
       2    O1      21.341096   20.343003   26.606540 O.co2      1 MOL1        -0.6703
       3    O2      19.353775   19.921366   27.283133 O.co2      1 MOL1        -0.6703
       4    C2      20.519344   18.167439   26.216121 C.3        1 MOL1        -0.1963
       5    H1      20.456303   17.517707   27.096628 H          1 MOL1         0.0750
       6    H2      21.523295   18.031015   25.796286 H          1 MOL1         0.0750
       7    C3      19.441214   17.729343   25.185262 C.3        1 MOL1        -0.1860
       8    H3      19.418166   16.631467   25.163532 H          1 MOL1         0.0752
       9    H4      18.445930   18.045724   25.527057 H          1 MOL1         0.0752
      10    C4      19.688946   18.225233   23.738930 C.3        1 MOL1        -0.1858
      11    H5      18.956738   17.740854   23.078805 H          1 MOL1         0.0752
      12    H6      20.681117   17.891733   23.408386 H          1 MOL1         0.0752
      13    C5      19.572910   19.757936   23.572147 C.3        1 MOL1        -0.1858
      14    H7      18.671062   20.106941   24.093469 H          1 MOL1         0.0752
      15    H8      20.423384   20.249320   24.061844 H          1 MOL1         0.0752
      16    C6      19.500171   20.232713   22.098856 C.3        1 MOL1        -0.1858
      17    H9      19.346650   21.320406   22.111828 H          1 MOL1         0.0752
      18    H10     18.611571   19.812055   21.608781 H          1 MOL1         0.0752
      19    C7      20.768128   19.937466   21.258849 C.3        1 MOL1        -0.1834
      20    H11     20.912256   20.758822   20.543410 H          1 MOL1         0.0752
      21    H12     21.658447   19.933643   21.902785 H          1 MOL1         0.0752
      22    C8      20.680794   18.619087   20.457954 C.3        1 MOL1        -0.2849
      23    H13     20.574355   17.748282   21.114259 H          1 MOL1         0.0764
      24    H14     19.823501   18.634399   19.772522 H          1 MOL1         0.0764
      25    H15     21.588010   18.474972   19.857145 H          1 MOL1         0.0764
@<TRIPOS>BOND
    1     1     2    1
    2     1     3    2
    3     1     4    1
    4     4     5    1
    5     4     6    1
    6     4     7    1
    7     7     8    1
    8     7     9    1
    9     7    10    1
   10    10    11    1
   11    10    12    1
   12    10    13    1
   13    13    14    1
   14    13    15    1
   15    13    16    1
   16    16    17    1
   17    16    18    1
   18    16    19    1
   19    19    20    1
   20    19    21    1
   21    19    22    1
   22    22    23    1
   23    22    24    1
   24    22    25    1
@<TRIPOS>SUBSTRUCTURE
       1 MOL1            1 RESIDUE      1      MOL     
@<SCITEGIC>MOL_PROPERTY
VM2 Rank
SciTegic.value.IntegerValue
184

@<SCITEGIC>MOL_PROPERTY
Conf_Id
SciTegic.value.IntegerValue
1100

@<SCITEGIC>MOL_PROPERTY
Probability
SciTegic.value.DoubleValue
0.00

@<SCITEGIC>MOL_PROPERTY
Sum Probability
SciTegic.value.DoubleValue
100.00

@<SCITEGIC>MOL_PROPERTY
Delta G
SciTegic.value.DoubleValue
7.538

@<SCITEGIC>MOL_PROPERTY
G
SciTegic.value.DoubleValue
-0.425

@<SCITEGIC>MOL_PROPERTY
E
SciTegic.value.DoubleValue
-25.831

@<SCITEGIC>MOL_PROPERTY
-TS
SciTegic.value.DoubleValue
25.406

@<SCITEGIC>MOL_PROPERTY
U+W
SciTegic.value.DoubleValue
-46.398

@<SCITEGIC>MOL_PROPERTY
U
SciTegic.value.DoubleValue
14.274

@<SCITEGIC>MOL_PROPERTY
W
SciTegic.value.DoubleValue
-60.672

@<SCITEGIC>MOL_PROPERTY
W(PB)
SciTegic.value.DoubleValue
-63.039

@<SCITEGIC>MOL_PROPERTY
W(SA)
SciTegic.value.DoubleValue
2.367

@<SCITEGIC>MOL_PROPERTY
Valence
SciTegic.value.DoubleValue
12.340

@<SCITEGIC>MOL_PROPERTY
Coulomb
SciTegic.value.DoubleValue
1.175

@<SCITEGIC>MOL_PROPERTY
VdW
SciTegic.value.DoubleValue
0.759

@<SCITEGIC>MOL_PROPERTY
VdW6
SciTegic.value.DoubleValue
-11.600

@<SCITEGIC>MOL_PROPERTY
VdW12
SciTegic.value.DoubleValue
12.359

@<SCITEGIC>MOL_PROPERTY
Bond
SciTegic.value.DoubleValue
0.276

@<SCITEGIC>MOL_PROPERTY
Angle
SciTegic.value.DoubleValue
3.898

@<SCITEGIC>MOL_PROPERTY
Pdih
SciTegic.value.DoubleValue
8.159

@<SCITEGIC>MOL_PROPERTY
Idih
SciTegic.value.DoubleValue
0.006

@<SCITEGIC>MOL_PROPERTY
Tether
SciTegic.value.DoubleValue
0.000

@<TRIPOS>MOLECULE
guest-8_vm2.mol2 : vm2 ligand conformer 185
          25          24           1
SMALL
USER_CHARGES
 
@<TRIPOS>ATOM
       1    C1      20.307713   19.539475   26.868267 C.2        1 MOL1         0.6168
       2    O1      21.420429   20.023291   26.939481 O.co2      1 MOL1        -0.6703
       3    O2      19.304172   20.106306   27.254566 O.co2      1 MOL1        -0.6703
       4    C2      20.173801   18.119026   26.323127 C.3        1 MOL1        -0.1963
       5    H1      19.797513   17.506913   27.150900 H          1 MOL1         0.0750
       6    H2      21.171477   17.735190   26.078047 H          1 MOL1         0.0750
       7    C3      19.220691   17.961462   25.104698 C.3        1 MOL1        -0.1860
       8    H3      18.905253   16.910379   25.058411 H          1 MOL1         0.0752
       9    H4      18.303340   18.544453   25.266333 H          1 MOL1         0.0752
      10    C4      19.847125   18.323123   23.734668 C.3        1 MOL1        -0.1858
      11    H5      19.149529   17.990877   22.955941 H          1 MOL1         0.0752
      12    H6      20.775392   17.754448   23.588613 H          1 MOL1         0.0752
      13    C5      20.122502   19.833357   23.544749 C.3        1 MOL1        -0.1858
      14    H7      19.188740   20.395802   23.680116 H          1 MOL1         0.0752
      15    H8      20.808791   20.180409   24.326068 H          1 MOL1         0.0752
      16    C6      20.751490   20.197269   22.175942 C.3        1 MOL1        -0.1858
      17    H9      21.732177   19.712958   22.073057 H          1 MOL1         0.0752
      18    H10     20.952433   21.277283   22.182119 H          1 MOL1         0.0752
      19    C7      19.863279   19.879211   20.947049 C.3        1 MOL1        -0.1834
      20    H11     18.802865   19.870473   21.234599 H          1 MOL1         0.0752
      21    H12     19.973430   20.689733   20.213423 H          1 MOL1         0.0752
      22    C8      20.241798   18.551480   20.253453 C.3        1 MOL1        -0.2849
      23    H13     21.276171   18.584228   19.887265 H          1 MOL1         0.0764
      24    H14     20.151605   17.696232   20.932983 H          1 MOL1         0.0764
      25    H15     19.586582   18.367259   19.392316 H          1 MOL1         0.0764
@<TRIPOS>BOND
    1     1     2    1
    2     1     3    2
    3     1     4    1
    4     4     5    1
    5     4     6    1
    6     4     7    1
    7     7     8    1
    8     7     9    1
    9     7    10    1
   10    10    11    1
   11    10    12    1
   12    10    13    1
   13    13    14    1
   14    13    15    1
   15    13    16    1
   16    16    17    1
   17    16    18    1
   18    16    19    1
   19    19    20    1
   20    19    21    1
   21    19    22    1
   22    22    23    1
   23    22    24    1
   24    22    25    1
@<TRIPOS>SUBSTRUCTURE
       1 MOL1            1 RESIDUE      1      MOL     
@<SCITEGIC>MOL_PROPERTY
VM2 Rank
SciTegic.value.IntegerValue
185

@<SCITEGIC>MOL_PROPERTY
Conf_Id
SciTegic.value.IntegerValue
544

@<SCITEGIC>MOL_PROPERTY
Probability
SciTegic.value.DoubleValue
0.00

@<SCITEGIC>MOL_PROPERTY
Sum Probability
SciTegic.value.DoubleValue
100.00

@<SCITEGIC>MOL_PROPERTY
Delta G
SciTegic.value.DoubleValue
7.591

@<SCITEGIC>MOL_PROPERTY
G
SciTegic.value.DoubleValue
-0.372

@<SCITEGIC>MOL_PROPERTY
E
SciTegic.value.DoubleValue
-25.550

@<SCITEGIC>MOL_PROPERTY
-TS
SciTegic.value.DoubleValue
25.178

@<SCITEGIC>MOL_PROPERTY
U+W
SciTegic.value.DoubleValue
-46.117

@<SCITEGIC>MOL_PROPERTY
U
SciTegic.value.DoubleValue
14.421

@<SCITEGIC>MOL_PROPERTY
W
SciTegic.value.DoubleValue
-60.539

@<SCITEGIC>MOL_PROPERTY
W(PB)
SciTegic.value.DoubleValue
-62.931

@<SCITEGIC>MOL_PROPERTY
W(SA)
SciTegic.value.DoubleValue
2.392

@<SCITEGIC>MOL_PROPERTY
Valence
SciTegic.value.DoubleValue
12.698

@<SCITEGIC>MOL_PROPERTY
Coulomb
SciTegic.value.DoubleValue
0.769

@<SCITEGIC>MOL_PROPERTY
VdW
SciTegic.value.DoubleValue
0.954

@<SCITEGIC>MOL_PROPERTY
VdW6
SciTegic.value.DoubleValue
-11.273

@<SCITEGIC>MOL_PROPERTY
VdW12
SciTegic.value.DoubleValue
12.226

@<SCITEGIC>MOL_PROPERTY
Bond
SciTegic.value.DoubleValue
0.285

@<SCITEGIC>MOL_PROPERTY
Angle
SciTegic.value.DoubleValue
4.019

@<SCITEGIC>MOL_PROPERTY
Pdih
SciTegic.value.DoubleValue
8.389

@<SCITEGIC>MOL_PROPERTY
Idih
SciTegic.value.DoubleValue
0.005

@<SCITEGIC>MOL_PROPERTY
Tether
SciTegic.value.DoubleValue
0.000

@<TRIPOS>MOLECULE
guest-8_vm2.mol2 : vm2 ligand conformer 186
          25          24           1
SMALL
USER_CHARGES
 
@<TRIPOS>ATOM
       1    C1      20.082847   19.028826   26.880602 C.2        1 MOL1         0.6168
       2    O1      20.478009   17.884718   26.990843 O.co2      1 MOL1        -0.6703
       3    O2      18.994168   19.402717   27.271246 O.co2      1 MOL1        -0.6703
       4    C2      21.030751   20.062847   26.276400 C.3        1 MOL1        -0.1963
       5    H1      21.982819   19.575554   26.033778 H          1 MOL1         0.0750
       6    H2      21.243156   20.786243   27.072053 H          1 MOL1         0.0750
       7    C3      20.482208   20.823177   25.035908 C.3        1 MOL1        -0.1860
       8    H3      19.435993   21.113860   25.204660 H          1 MOL1         0.0752
       9    H4      21.044171   21.762182   24.941647 H          1 MOL1         0.0752
      10    C4      20.613547   20.062037   23.692919 C.3        1 MOL1        -0.1858
      11    H5      21.656742   19.753812   23.540779 H          1 MOL1         0.0752
      12    H6      20.374715   20.769371   22.889126 H          1 MOL1         0.0752
      13    C5      19.680981   18.834191   23.568716 C.3        1 MOL1        -0.1858
      14    H7      19.901069   18.125449   24.375649 H          1 MOL1         0.0752
      15    H8      18.638477   19.150313   23.709541 H          1 MOL1         0.0752
      16    C6      19.812657   18.069480   22.227233 C.3        1 MOL1        -0.1858
      17    H9      19.150906   17.194202   22.280343 H          1 MOL1         0.0752
      18    H10     20.829678   17.667410   22.122837 H          1 MOL1         0.0752
      19    C7      19.427226   18.889664   20.970650 C.3        1 MOL1        -0.1834
      20    H11     18.890522   18.232897   20.272158 H          1 MOL1         0.0752
      21    H12     18.723521   19.689920   21.238285 H          1 MOL1         0.0752
      22    C8      20.650608   19.476342   20.231482 C.3        1 MOL1        -0.2849
      23    H13     21.317696   18.675966   19.885819 H          1 MOL1         0.0764
      24    H14     20.329849   20.049202   19.351854 H          1 MOL1         0.0764
      25    H15     21.232826   20.146370   20.874464 H          1 MOL1         0.0764
@<TRIPOS>BOND
    1     1     2    1
    2     1     3    2
    3     1     4    1
    4     4     5    1
    5     4     6    1
    6     4     7    1
    7     7     8    1
    8     7     9    1
    9     7    10    1
   10    10    11    1
   11    10    12    1
   12    10    13    1
   13    13    14    1
   14    13    15    1
   15    13    16    1
   16    16    17    1
   17    16    18    1
   18    16    19    1
   19    19    20    1
   20    19    21    1
   21    19    22    1
   22    22    23    1
   23    22    24    1
   24    22    25    1
@<TRIPOS>SUBSTRUCTURE
       1 MOL1            1 RESIDUE      1      MOL     
@<SCITEGIC>MOL_PROPERTY
VM2 Rank
SciTegic.value.IntegerValue
186

@<SCITEGIC>MOL_PROPERTY
Conf_Id
SciTegic.value.IntegerValue
820

@<SCITEGIC>MOL_PROPERTY
Probability
SciTegic.value.DoubleValue
0.00

@<SCITEGIC>MOL_PROPERTY
Sum Probability
SciTegic.value.DoubleValue
100.00

@<SCITEGIC>MOL_PROPERTY
Delta G
SciTegic.value.DoubleValue
7.650

@<SCITEGIC>MOL_PROPERTY
G
SciTegic.value.DoubleValue
-0.312

@<SCITEGIC>MOL_PROPERTY
E
SciTegic.value.DoubleValue
-25.489

@<SCITEGIC>MOL_PROPERTY
-TS
SciTegic.value.DoubleValue
25.177

@<SCITEGIC>MOL_PROPERTY
U+W
SciTegic.value.DoubleValue
-46.057

@<SCITEGIC>MOL_PROPERTY
U
SciTegic.value.DoubleValue
14.422

@<SCITEGIC>MOL_PROPERTY
W
SciTegic.value.DoubleValue
-60.479

@<SCITEGIC>MOL_PROPERTY
W(PB)
SciTegic.value.DoubleValue
-62.879

@<SCITEGIC>MOL_PROPERTY
W(SA)
SciTegic.value.DoubleValue
2.400

@<SCITEGIC>MOL_PROPERTY
Valence
SciTegic.value.DoubleValue
12.698

@<SCITEGIC>MOL_PROPERTY
Coulomb
SciTegic.value.DoubleValue
0.771

@<SCITEGIC>MOL_PROPERTY
VdW
SciTegic.value.DoubleValue
0.953

@<SCITEGIC>MOL_PROPERTY
VdW6
SciTegic.value.DoubleValue
-11.272

@<SCITEGIC>MOL_PROPERTY
VdW12
SciTegic.value.DoubleValue
12.225

@<SCITEGIC>MOL_PROPERTY
Bond
SciTegic.value.DoubleValue
0.285

@<SCITEGIC>MOL_PROPERTY
Angle
SciTegic.value.DoubleValue
4.019

@<SCITEGIC>MOL_PROPERTY
Pdih
SciTegic.value.DoubleValue
8.388

@<SCITEGIC>MOL_PROPERTY
Idih
SciTegic.value.DoubleValue
0.006

@<SCITEGIC>MOL_PROPERTY
Tether
SciTegic.value.DoubleValue
0.000

@<TRIPOS>MOLECULE
guest-8_vm2.mol2 : vm2 ligand conformer 187
          25          24           1
SMALL
USER_CHARGES
 
@<TRIPOS>ATOM
       1    C1      19.746471   19.632121   26.529128 C.2        1 MOL1         0.6168
       2    O1      20.653590   20.151505   27.149747 O.co2      1 MOL1        -0.6703
       3    O2      18.716585   20.208529   26.238825 O.co2      1 MOL1        -0.6703
       4    C2      19.875926   18.157054   26.154367 C.3        1 MOL1        -0.1963
       5    H1      18.959182   17.837699   25.644047 H          1 MOL1         0.0750
       6    H2      19.919014   17.602099   27.098597 H          1 MOL1         0.0750
       7    C3      21.122247   17.795856   25.297938 C.3        1 MOL1        -0.1860
       8    H3      22.013535   18.296165   25.701411 H          1 MOL1         0.0752
       9    H4      21.305996   16.718413   25.406225 H          1 MOL1         0.0752
      10    C4      20.978953   18.099293   23.785830 C.3        1 MOL1        -0.1858
      11    H5      20.086501   17.594874   23.397443 H          1 MOL1         0.0752
      12    H6      21.834676   17.647115   23.266445 H          1 MOL1         0.0752
      13    C5      20.939221   19.610417   23.448293 C.3        1 MOL1        -0.1858
      14    H7      20.055011   20.085563   23.890714 H          1 MOL1         0.0752
      15    H8      21.811379   20.088877   23.914309 H          1 MOL1         0.0752
      16    C6      20.973524   19.901137   21.925699 C.3        1 MOL1        -0.1858
      17    H9      21.524057   19.111027   21.397354 H          1 MOL1         0.0752
      18    H10     21.550840   20.822362   21.768148 H          1 MOL1         0.0752
      19    C7      19.583661   20.106994   21.273782 C.3        1 MOL1        -0.1834
      20    H11     19.079751   20.962421   21.744595 H          1 MOL1         0.0752
      21    H12     19.730338   20.378834   20.219416 H          1 MOL1         0.0752
      22    C8      18.662821   18.871094   21.342389 C.3        1 MOL1        -0.2849
      23    H13     18.347072   18.671765   22.374046 H          1 MOL1         0.0764
      24    H14     17.756104   19.034437   20.745840 H          1 MOL1         0.0764
      25    H15     19.169722   17.978984   20.952400 H          1 MOL1         0.0764
@<TRIPOS>BOND
    1     1     2    1
    2     1     3    2
    3     1     4    1
    4     4     5    1
    5     4     6    1
    6     4     7    1
    7     7     8    1
    8     7     9    1
    9     7    10    1
   10    10    11    1
   11    10    12    1
   12    10    13    1
   13    13    14    1
   14    13    15    1
   15    13    16    1
   16    16    17    1
   17    16    18    1
   18    16    19    1
   19    19    20    1
   20    19    21    1
   21    19    22    1
   22    22    23    1
   23    22    24    1
   24    22    25    1
@<TRIPOS>SUBSTRUCTURE
       1 MOL1            1 RESIDUE      1      MOL     
@<SCITEGIC>MOL_PROPERTY
VM2 Rank
SciTegic.value.IntegerValue
187

@<SCITEGIC>MOL_PROPERTY
Conf_Id
SciTegic.value.IntegerValue
431

@<SCITEGIC>MOL_PROPERTY
Probability
SciTegic.value.DoubleValue
0.00

@<SCITEGIC>MOL_PROPERTY
Sum Probability
SciTegic.value.DoubleValue
100.00

@<SCITEGIC>MOL_PROPERTY
Delta G
SciTegic.value.DoubleValue
7.741

@<SCITEGIC>MOL_PROPERTY
G
SciTegic.value.DoubleValue
-0.221

@<SCITEGIC>MOL_PROPERTY
E
SciTegic.value.DoubleValue
-25.442

@<SCITEGIC>MOL_PROPERTY
-TS
SciTegic.value.DoubleValue
25.221

@<SCITEGIC>MOL_PROPERTY
U+W
SciTegic.value.DoubleValue
-46.010

@<SCITEGIC>MOL_PROPERTY
U
SciTegic.value.DoubleValue
15.042

@<SCITEGIC>MOL_PROPERTY
W
SciTegic.value.DoubleValue
-61.051

@<SCITEGIC>MOL_PROPERTY
W(PB)
SciTegic.value.DoubleValue
-63.403

@<SCITEGIC>MOL_PROPERTY
W(SA)
SciTegic.value.DoubleValue
2.351

@<SCITEGIC>MOL_PROPERTY
Valence
SciTegic.value.DoubleValue
12.413

@<SCITEGIC>MOL_PROPERTY
Coulomb
SciTegic.value.DoubleValue
1.927

@<SCITEGIC>MOL_PROPERTY
VdW
SciTegic.value.DoubleValue
0.702

@<SCITEGIC>MOL_PROPERTY
VdW6
SciTegic.value.DoubleValue
-11.648

@<SCITEGIC>MOL_PROPERTY
VdW12
SciTegic.value.DoubleValue
12.350

@<SCITEGIC>MOL_PROPERTY
Bond
SciTegic.value.DoubleValue
0.287

@<SCITEGIC>MOL_PROPERTY
Angle
SciTegic.value.DoubleValue
3.936

@<SCITEGIC>MOL_PROPERTY
Pdih
SciTegic.value.DoubleValue
8.183

@<SCITEGIC>MOL_PROPERTY
Idih
SciTegic.value.DoubleValue
0.007

@<SCITEGIC>MOL_PROPERTY
Tether
SciTegic.value.DoubleValue
0.000

@<TRIPOS>MOLECULE
guest-8_vm2.mol2 : vm2 ligand conformer 188
          25          24           1
SMALL
USER_CHARGES
 
@<TRIPOS>ATOM
       1    C1      20.503753   19.680002   26.521096 C.2        1 MOL1         0.6168
       2    O1      21.445241   20.382220   26.208566 O.co2      1 MOL1        -0.6703
       3    O2      19.552558   20.080557   27.163417 O.co2      1 MOL1        -0.6703
       4    C2      20.554031   18.200138   26.146231 C.3        1 MOL1        -0.1963
       5    H1      20.603768   17.644956   27.089999 H          1 MOL1         0.0750
       6    H2      21.491775   17.999410   25.614083 H          1 MOL1         0.0750
       7    C3      19.344057   17.682912   25.318167 C.3        1 MOL1        -0.1860
       8    H3      19.300831   16.590997   25.428735 H          1 MOL1         0.0752
       9    H4      18.406138   18.066730   25.743001 H          1 MOL1         0.0752
      10    C4      19.412716   18.000327   23.803702 C.3        1 MOL1        -0.1858
      11    H5      18.608722   17.443606   23.303563 H          1 MOL1         0.0752
      12    H6      20.352177   17.611655   23.393711 H          1 MOL1         0.0752
      13    C5      19.254399   19.504103   23.468148 C.3        1 MOL1        -0.1858
      14    H7      18.340483   19.869841   23.955744 H          1 MOL1         0.0752
      15    H8      20.082326   20.086943   23.890253 H          1 MOL1         0.0752
      16    C6      19.147475   19.786535   21.947363 C.3        1 MOL1        -0.1858
      17    H9      18.455777   20.628071   21.805442 H          1 MOL1         0.0752
      18    H10     18.687634   18.933143   21.430861 H          1 MOL1         0.0752
      19    C7      20.484569   20.164044   21.262700 C.3        1 MOL1        -0.1834
      20    H11     20.279675   20.414352   20.212718 H          1 MOL1         0.0752
      21    H12     20.888678   21.076271   21.723009 H          1 MOL1         0.0752
      22    C8      21.554201   19.053163   21.306610 C.3        1 MOL1        -0.2849
      23    H13     21.153617   18.104209   20.927242 H          1 MOL1         0.0764
      24    H14     22.418625   19.328045   20.688632 H          1 MOL1         0.0764
      25    H15     21.917334   18.896042   22.329929 H          1 MOL1         0.0764
@<TRIPOS>BOND
    1     1     2    1
    2     1     3    2
    3     1     4    1
    4     4     5    1
    5     4     6    1
    6     4     7    1
    7     7     8    1
    8     7     9    1
    9     7    10    1
   10    10    11    1
   11    10    12    1
   12    10    13    1
   13    13    14    1
   14    13    15    1
   15    13    16    1
   16    16    17    1
   17    16    18    1
   18    16    19    1
   19    19    20    1
   20    19    21    1
   21    19    22    1
   22    22    23    1
   23    22    24    1
   24    22    25    1
@<TRIPOS>SUBSTRUCTURE
       1 MOL1            1 RESIDUE      1      MOL     
@<SCITEGIC>MOL_PROPERTY
VM2 Rank
SciTegic.value.IntegerValue
188

@<SCITEGIC>MOL_PROPERTY
Conf_Id
SciTegic.value.IntegerValue
717

@<SCITEGIC>MOL_PROPERTY
Probability
SciTegic.value.DoubleValue
0.00

@<SCITEGIC>MOL_PROPERTY
Sum Probability
SciTegic.value.DoubleValue
100.00

@<SCITEGIC>MOL_PROPERTY
Delta G
SciTegic.value.DoubleValue
7.743

@<SCITEGIC>MOL_PROPERTY
G
SciTegic.value.DoubleValue
-0.220

@<SCITEGIC>MOL_PROPERTY
E
SciTegic.value.DoubleValue
-25.442

@<SCITEGIC>MOL_PROPERTY
-TS
SciTegic.value.DoubleValue
25.223

@<SCITEGIC>MOL_PROPERTY
U+W
SciTegic.value.DoubleValue
-46.010

@<SCITEGIC>MOL_PROPERTY
U
SciTegic.value.DoubleValue
15.039

@<SCITEGIC>MOL_PROPERTY
W
SciTegic.value.DoubleValue
-61.048

@<SCITEGIC>MOL_PROPERTY
W(PB)
SciTegic.value.DoubleValue
-63.409

@<SCITEGIC>MOL_PROPERTY
W(SA)
SciTegic.value.DoubleValue
2.361

@<SCITEGIC>MOL_PROPERTY
Valence
SciTegic.value.DoubleValue
12.413

@<SCITEGIC>MOL_PROPERTY
Coulomb
SciTegic.value.DoubleValue
1.923

@<SCITEGIC>MOL_PROPERTY
VdW
SciTegic.value.DoubleValue
0.703

@<SCITEGIC>MOL_PROPERTY
VdW6
SciTegic.value.DoubleValue
-11.648

@<SCITEGIC>MOL_PROPERTY
VdW12
SciTegic.value.DoubleValue
12.352

@<SCITEGIC>MOL_PROPERTY
Bond
SciTegic.value.DoubleValue
0.287

@<SCITEGIC>MOL_PROPERTY
Angle
SciTegic.value.DoubleValue
3.936

@<SCITEGIC>MOL_PROPERTY
Pdih
SciTegic.value.DoubleValue
8.182

@<SCITEGIC>MOL_PROPERTY
Idih
SciTegic.value.DoubleValue
0.007

@<SCITEGIC>MOL_PROPERTY
Tether
SciTegic.value.DoubleValue
0.000

@<TRIPOS>MOLECULE
guest-8_vm2.mol2 : vm2 ligand conformer 189
          25          24           1
SMALL
USER_CHARGES
 
@<TRIPOS>ATOM
       1    C1      20.598659   19.067771   26.597565 C.2        1 MOL1         0.6168
       2    O1      21.625021   19.701809   26.450251 O.co2      1 MOL1        -0.6703
       3    O2      20.006605   18.984054   27.655921 O.co2      1 MOL1        -0.6703
       4    C2      20.035255   18.311802   25.397719 C.3        1 MOL1        -0.1963
       5    H1      19.831648   17.285572   25.724448 H          1 MOL1         0.0750
       6    H2      20.815208   18.245552   24.631329 H          1 MOL1         0.0750
       7    C3      18.737514   18.932420   24.811001 C.3        1 MOL1        -0.1860
       8    H3      18.339650   18.283384   24.021470 H          1 MOL1         0.0752
       9    H4      17.971239   18.947107   25.598201 H          1 MOL1         0.0752
      10    C4      18.910027   20.371300   24.264352 C.3        1 MOL1        -0.1858
      11    H5      19.201480   21.029844   25.094036 H          1 MOL1         0.0752
      12    H6      17.932665   20.738308   23.922999 H          1 MOL1         0.0752
      13    C5      19.939454   20.544680   23.116556 C.3        1 MOL1        -0.1858
      14    H7      20.003451   21.620352   22.904006 H          1 MOL1         0.0752
      15    H8      20.942655   20.260905   23.455595 H          1 MOL1         0.0752
      16    C6      19.565819   19.828109   21.790408 C.3        1 MOL1        -0.1858
      17    H9      19.914407   20.444495   20.950604 H          1 MOL1         0.0752
      18    H10     18.472408   19.789194   21.693886 H          1 MOL1         0.0752
      19    C7      20.149129   18.403935   21.610900 C.3        1 MOL1        -0.1834
      20    H11     19.859319   17.756308   22.445824 H          1 MOL1         0.0752
      21    H12     19.702498   17.957540   20.711938 H          1 MOL1         0.0752
      22    C8      21.685515   18.388120   21.451326 C.3        1 MOL1        -0.2849
      23    H13     22.190208   18.727133   22.364127 H          1 MOL1         0.0764
      24    H14     22.037625   17.370933   21.236639 H          1 MOL1         0.0764
      25    H15     22.001239   19.035865   20.623280 H          1 MOL1         0.0764
@<TRIPOS>BOND
    1     1     2    1
    2     1     3    2
    3     1     4    1
    4     4     5    1
    5     4     6    1
    6     4     7    1
    7     7     8    1
    8     7     9    1
    9     7    10    1
   10    10    11    1
   11    10    12    1
   12    10    13    1
   13    13    14    1
   14    13    15    1
   15    13    16    1
   16    16    17    1
   17    16    18    1
   18    16    19    1
   19    19    20    1
   20    19    21    1
   21    19    22    1
   22    22    23    1
   23    22    24    1
   24    22    25    1
@<TRIPOS>SUBSTRUCTURE
       1 MOL1            1 RESIDUE      1      MOL     
@<SCITEGIC>MOL_PROPERTY
VM2 Rank
SciTegic.value.IntegerValue
189

@<SCITEGIC>MOL_PROPERTY
Conf_Id
SciTegic.value.IntegerValue
1117

@<SCITEGIC>MOL_PROPERTY
Probability
SciTegic.value.DoubleValue
0.00

@<SCITEGIC>MOL_PROPERTY
Sum Probability
SciTegic.value.DoubleValue
100.00

@<SCITEGIC>MOL_PROPERTY
Delta G
SciTegic.value.DoubleValue
7.750

@<SCITEGIC>MOL_PROPERTY
G
SciTegic.value.DoubleValue
-0.212

@<SCITEGIC>MOL_PROPERTY
E
SciTegic.value.DoubleValue
-26.031

@<SCITEGIC>MOL_PROPERTY
-TS
SciTegic.value.DoubleValue
25.819

@<SCITEGIC>MOL_PROPERTY
U+W
SciTegic.value.DoubleValue
-46.599

@<SCITEGIC>MOL_PROPERTY
U
SciTegic.value.DoubleValue
14.175

@<SCITEGIC>MOL_PROPERTY
W
SciTegic.value.DoubleValue
-60.774

@<SCITEGIC>MOL_PROPERTY
W(PB)
SciTegic.value.DoubleValue
-63.109

@<SCITEGIC>MOL_PROPERTY
W(SA)
SciTegic.value.DoubleValue
2.335

@<SCITEGIC>MOL_PROPERTY
Valence
SciTegic.value.DoubleValue
12.070

@<SCITEGIC>MOL_PROPERTY
Coulomb
SciTegic.value.DoubleValue
1.752

@<SCITEGIC>MOL_PROPERTY
VdW
SciTegic.value.DoubleValue
0.353

@<SCITEGIC>MOL_PROPERTY
VdW6
SciTegic.value.DoubleValue
-12.459

@<SCITEGIC>MOL_PROPERTY
VdW12
SciTegic.value.DoubleValue
12.812

@<SCITEGIC>MOL_PROPERTY
Bond
SciTegic.value.DoubleValue
0.325

@<SCITEGIC>MOL_PROPERTY
Angle
SciTegic.value.DoubleValue
4.281

@<SCITEGIC>MOL_PROPERTY
Pdih
SciTegic.value.DoubleValue
7.463

@<SCITEGIC>MOL_PROPERTY
Idih
SciTegic.value.DoubleValue
0.001

@<SCITEGIC>MOL_PROPERTY
Tether
SciTegic.value.DoubleValue
0.000

@<TRIPOS>MOLECULE
guest-8_vm2.mol2 : vm2 ligand conformer 190
          25          24           1
SMALL
USER_CHARGES
 
@<TRIPOS>ATOM
       1    C1      19.812126   19.167659   26.759626 C.2        1 MOL1         0.6168
       2    O1      19.747647   17.976261   26.991437 O.co2      1 MOL1        -0.6703
       3    O2      18.868654   19.925322   26.875724 O.co2      1 MOL1        -0.6703
       4    C2      21.168182   19.752927   26.369585 C.3        1 MOL1        -0.1963
       5    H1      21.915761   18.950510   26.367647 H          1 MOL1         0.0750
       6    H2      21.449459   20.441921   27.174329 H          1 MOL1         0.0750
       7    C3      21.195306   20.517671   25.016264 C.3        1 MOL1        -0.1860
       8    H3      20.316920   21.173466   24.939227 H          1 MOL1         0.0752
       9    H4      22.069300   21.182847   25.019377 H          1 MOL1         0.0752
      10    C4      21.293690   19.615180   23.761361 C.3        1 MOL1        -0.1858
      11    H5      22.184288   18.976632   23.836295 H          1 MOL1         0.0752
      12    H6      21.457788   20.260887   22.890518 H          1 MOL1         0.0752
      13    C5      20.045283   18.731216   23.522669 C.3        1 MOL1        -0.1858
      14    H7      20.005473   17.966742   24.308918 H          1 MOL1         0.0752
      15    H8      19.127702   19.326625   23.624992 H          1 MOL1         0.0752
      16    C6      20.061633   18.008170   22.151746 C.3        1 MOL1        -0.1858
      17    H9      19.623284   17.009958   22.287005 H          1 MOL1         0.0752
      18    H10     21.095964   17.838066   21.822978 H          1 MOL1         0.0752
      19    C7      19.258017   18.722954   21.037134 C.3        1 MOL1        -0.1834
      20    H11     19.263706   18.088288   20.140314 H          1 MOL1         0.0752
      21    H12     18.206568   18.813258   21.342988 H          1 MOL1         0.0752
      22    C8      19.802462   20.116641   20.660453 C.3        1 MOL1        -0.2849
      23    H13     19.683432   20.825181   21.489796 H          1 MOL1         0.0764
      24    H14     20.866373   20.065212   20.395241 H          1 MOL1         0.0764
      25    H15     19.257578   20.521590   19.797991 H          1 MOL1         0.0764
@<TRIPOS>BOND
    1     1     2    1
    2     1     3    2
    3     1     4    1
    4     4     5    1
    5     4     6    1
    6     4     7    1
    7     7     8    1
    8     7     9    1
    9     7    10    1
   10    10    11    1
   11    10    12    1
   12    10    13    1
   13    13    14    1
   14    13    15    1
   15    13    16    1
   16    16    17    1
   17    16    18    1
   18    16    19    1
   19    19    20    1
   20    19    21    1
   21    19    22    1
   22    22    23    1
   23    22    24    1
   24    22    25    1
@<TRIPOS>SUBSTRUCTURE
       1 MOL1            1 RESIDUE      1      MOL     
@<SCITEGIC>MOL_PROPERTY
VM2 Rank
SciTegic.value.IntegerValue
190

@<SCITEGIC>MOL_PROPERTY
Conf_Id
SciTegic.value.IntegerValue
522

@<SCITEGIC>MOL_PROPERTY
Probability
SciTegic.value.DoubleValue
0.00

@<SCITEGIC>MOL_PROPERTY
Sum Probability
SciTegic.value.DoubleValue
100.00

@<SCITEGIC>MOL_PROPERTY
Delta G
SciTegic.value.DoubleValue
7.754

@<SCITEGIC>MOL_PROPERTY
G
SciTegic.value.DoubleValue
-0.209

@<SCITEGIC>MOL_PROPERTY
E
SciTegic.value.DoubleValue
-25.654

@<SCITEGIC>MOL_PROPERTY
-TS
SciTegic.value.DoubleValue
25.446

@<SCITEGIC>MOL_PROPERTY
U+W
SciTegic.value.DoubleValue
-46.222

@<SCITEGIC>MOL_PROPERTY
U
SciTegic.value.DoubleValue
14.482

@<SCITEGIC>MOL_PROPERTY
W
SciTegic.value.DoubleValue
-60.704

@<SCITEGIC>MOL_PROPERTY
W(PB)
SciTegic.value.DoubleValue
-63.082

@<SCITEGIC>MOL_PROPERTY
W(SA)
SciTegic.value.DoubleValue
2.379

@<SCITEGIC>MOL_PROPERTY
Valence
SciTegic.value.DoubleValue
12.477

@<SCITEGIC>MOL_PROPERTY
Coulomb
SciTegic.value.DoubleValue
1.221

@<SCITEGIC>MOL_PROPERTY
VdW
SciTegic.value.DoubleValue
0.784

@<SCITEGIC>MOL_PROPERTY
VdW6
SciTegic.value.DoubleValue
-11.566

@<SCITEGIC>MOL_PROPERTY
VdW12
SciTegic.value.DoubleValue
12.350

@<SCITEGIC>MOL_PROPERTY
Bond
SciTegic.value.DoubleValue
0.279

@<SCITEGIC>MOL_PROPERTY
Angle
SciTegic.value.DoubleValue
3.852

@<SCITEGIC>MOL_PROPERTY
Pdih
SciTegic.value.DoubleValue
8.339

@<SCITEGIC>MOL_PROPERTY
Idih
SciTegic.value.DoubleValue
0.007

@<SCITEGIC>MOL_PROPERTY
Tether
SciTegic.value.DoubleValue
0.000

@<TRIPOS>MOLECULE
guest-8_vm2.mol2 : vm2 ligand conformer 191
          25          24           1
SMALL
USER_CHARGES
 
@<TRIPOS>ATOM
       1    C1      20.128525   19.662407   26.746969 C.2        1 MOL1         0.6168
       2    O1      21.187724   20.228474   26.934018 O.co2      1 MOL1        -0.6703
       3    O2      19.047621   20.205090   26.868678 O.co2      1 MOL1        -0.6703
       4    C2      20.157944   18.172697   26.410150 C.3        1 MOL1        -0.1963
       5    H1      19.669606   17.658101   27.245709 H          1 MOL1         0.0750
       6    H2      21.199831   17.830593   26.396511 H          1 MOL1         0.0750
       7    C3      19.444168   17.778409   25.086482 C.3        1 MOL1        -0.1860
       8    H3      19.208003   16.706821   25.134015 H          1 MOL1         0.0752
       9    H4      18.478427   18.297547   25.012961 H          1 MOL1         0.0752
      10    C4      20.275083   18.021935   23.802260 C.3        1 MOL1        -0.1858
      11    H5      19.738193   17.570519   22.959527 H          1 MOL1         0.0752
      12    H6      21.230385   17.484652   23.874718 H          1 MOL1         0.0752
      13    C5      20.546584   19.516368   23.502511 C.3        1 MOL1        -0.1858
      14    H7      19.623152   20.102656   23.604865 H          1 MOL1         0.0752
      15    H8      21.241433   19.901807   24.259355 H          1 MOL1         0.0752
      16    C6      21.177647   19.754823   22.107022 C.3        1 MOL1        -0.1858
      17    H9      21.759313   18.876069   21.796671 H          1 MOL1         0.0752
      18    H10     21.901799   20.576173   22.195669 H          1 MOL1         0.0752
      19    C7      20.165736   20.143065   21.000502 C.3        1 MOL1        -0.1834
      20    H11     19.648708   21.069981   21.284677 H          1 MOL1         0.0752
      21    H12     20.723126   20.371466   20.081662 H          1 MOL1         0.0752
      22    C8      19.121968   19.050732   20.687408 C.3        1 MOL1        -0.2849
      23    H13     18.505799   19.343481   19.827547 H          1 MOL1         0.0764
      24    H14     19.609917   18.097656   20.445655 H          1 MOL1         0.0764
      25    H15     18.448262   18.891754   21.538793 H          1 MOL1         0.0764
@<TRIPOS>BOND
    1     1     2    1
    2     1     3    2
    3     1     4    1
    4     4     5    1
    5     4     6    1
    6     4     7    1
    7     7     8    1
    8     7     9    1
    9     7    10    1
   10    10    11    1
   11    10    12    1
   12    10    13    1
   13    13    14    1
   14    13    15    1
   15    13    16    1
   16    16    17    1
   17    16    18    1
   18    16    19    1
   19    19    20    1
   20    19    21    1
   21    19    22    1
   22    22    23    1
   23    22    24    1
   24    22    25    1
@<TRIPOS>SUBSTRUCTURE
       1 MOL1            1 RESIDUE      1      MOL     
@<SCITEGIC>MOL_PROPERTY
VM2 Rank
SciTegic.value.IntegerValue
191

@<SCITEGIC>MOL_PROPERTY
Conf_Id
SciTegic.value.IntegerValue
75

@<SCITEGIC>MOL_PROPERTY
Probability
SciTegic.value.DoubleValue
0.00

@<SCITEGIC>MOL_PROPERTY
Sum Probability
SciTegic.value.DoubleValue
100.00

@<SCITEGIC>MOL_PROPERTY
Delta G
SciTegic.value.DoubleValue
7.778

@<SCITEGIC>MOL_PROPERTY
G
SciTegic.value.DoubleValue
-0.184

@<SCITEGIC>MOL_PROPERTY
E
SciTegic.value.DoubleValue
-25.630

@<SCITEGIC>MOL_PROPERTY
-TS
SciTegic.value.DoubleValue
25.446

@<SCITEGIC>MOL_PROPERTY
U+W
SciTegic.value.DoubleValue
-46.198

@<SCITEGIC>MOL_PROPERTY
U
SciTegic.value.DoubleValue
14.481

@<SCITEGIC>MOL_PROPERTY
W
SciTegic.value.DoubleValue
-60.678

@<SCITEGIC>MOL_PROPERTY
W(PB)
SciTegic.value.DoubleValue
-63.039

@<SCITEGIC>MOL_PROPERTY
W(SA)
SciTegic.value.DoubleValue
2.361

@<SCITEGIC>MOL_PROPERTY
Valence
SciTegic.value.DoubleValue
12.477

@<SCITEGIC>MOL_PROPERTY
Coulomb
SciTegic.value.DoubleValue
1.220

@<SCITEGIC>MOL_PROPERTY
VdW
SciTegic.value.DoubleValue
0.784

@<SCITEGIC>MOL_PROPERTY
VdW6
SciTegic.value.DoubleValue
-11.565

@<SCITEGIC>MOL_PROPERTY
VdW12
SciTegic.value.DoubleValue
12.349

@<SCITEGIC>MOL_PROPERTY
Bond
SciTegic.value.DoubleValue
0.279

@<SCITEGIC>MOL_PROPERTY
Angle
SciTegic.value.DoubleValue
3.853

@<SCITEGIC>MOL_PROPERTY
Pdih
SciTegic.value.DoubleValue
8.338

@<SCITEGIC>MOL_PROPERTY
Idih
SciTegic.value.DoubleValue
0.007

@<SCITEGIC>MOL_PROPERTY
Tether
SciTegic.value.DoubleValue
0.000

@<TRIPOS>MOLECULE
guest-8_vm2.mol2 : vm2 ligand conformer 192
          25          24           1
SMALL
USER_CHARGES
 
@<TRIPOS>ATOM
       1    C1      20.157699   18.507559   26.015747 C.2        1 MOL1         0.6168
       2    O1      21.164327   17.844519   25.858534 O.co2      1 MOL1        -0.6703
       3    O2      19.034170   18.045566   25.967886 O.co2      1 MOL1        -0.6703
       4    C2      20.317338   19.972951   26.417458 C.3        1 MOL1        -0.1963
       5    H1      21.384164   20.195001   26.540737 H          1 MOL1         0.0750
       6    H2      19.860417   20.070979   27.408979 H          1 MOL1         0.0750
       7    C3      19.659066   21.001391   25.454957 C.3        1 MOL1        -0.1860
       8    H3      18.663168   20.650933   25.153038 H          1 MOL1         0.0752
       9    H4      19.487431   21.927847   26.019279 H          1 MOL1         0.0752
      10    C4      20.512979   21.365067   24.212093 C.3        1 MOL1        -0.1858
      11    H5      21.480485   21.761322   24.549024 H          1 MOL1         0.0752
      12    H6      20.020502   22.189332   23.678445 H          1 MOL1         0.0752
      13    C5      20.768843   20.212829   23.210017 C.3        1 MOL1        -0.1858
      14    H7      21.409989   20.592290   22.403119 H          1 MOL1         0.0752
      15    H8      21.340277   19.416622   23.701611 H          1 MOL1         0.0752
      16    C6      19.471724   19.638594   22.589610 C.3        1 MOL1        -0.1858
      17    H9      18.872249   20.464341   22.183417 H          1 MOL1         0.0752
      18    H10     18.861809   19.162068   23.368424 H          1 MOL1         0.0752
      19    C7      19.735165   18.615235   21.460693 C.3        1 MOL1        -0.1834
      20    H11     18.775171   18.342206   21.001480 H          1 MOL1         0.0752
      21    H12     20.337924   19.080601   20.668750 H          1 MOL1         0.0752
      22    C8      20.431689   17.330289   21.959007 C.3        1 MOL1        -0.2849
      23    H13     20.510212   16.594386   21.148552 H          1 MOL1         0.0764
      24    H14     21.446545   17.539480   22.319843 H          1 MOL1         0.0764
      25    H15     19.866273   16.872137   22.781601 H          1 MOL1         0.0764
@<TRIPOS>BOND
    1     1     2    1
    2     1     3    2
    3     1     4    1
    4     4     5    1
    5     4     6    1
    6     4     7    1
    7     7     8    1
    8     7     9    1
    9     7    10    1
   10    10    11    1
   11    10    12    1
   12    10    13    1
   13    13    14    1
   14    13    15    1
   15    13    16    1
   16    16    17    1
   17    16    18    1
   18    16    19    1
   19    19    20    1
   20    19    21    1
   21    19    22    1
   22    22    23    1
   23    22    24    1
   24    22    25    1
@<TRIPOS>SUBSTRUCTURE
       1 MOL1            1 RESIDUE      1      MOL     
@<SCITEGIC>MOL_PROPERTY
VM2 Rank
SciTegic.value.IntegerValue
192

@<SCITEGIC>MOL_PROPERTY
Conf_Id
SciTegic.value.IntegerValue
536

@<SCITEGIC>MOL_PROPERTY
Probability
SciTegic.value.DoubleValue
0.00

@<SCITEGIC>MOL_PROPERTY
Sum Probability
SciTegic.value.DoubleValue
100.00

@<SCITEGIC>MOL_PROPERTY
Delta G
SciTegic.value.DoubleValue
7.892

@<SCITEGIC>MOL_PROPERTY
G
SciTegic.value.DoubleValue
-0.070

@<SCITEGIC>MOL_PROPERTY
E
SciTegic.value.DoubleValue
-25.961

@<SCITEGIC>MOL_PROPERTY
-TS
SciTegic.value.DoubleValue
25.890

@<SCITEGIC>MOL_PROPERTY
U+W
SciTegic.value.DoubleValue
-46.528

@<SCITEGIC>MOL_PROPERTY
U
SciTegic.value.DoubleValue
14.294

@<SCITEGIC>MOL_PROPERTY
W
SciTegic.value.DoubleValue
-60.822

@<SCITEGIC>MOL_PROPERTY
W(PB)
SciTegic.value.DoubleValue
-63.130

@<SCITEGIC>MOL_PROPERTY
W(SA)
SciTegic.value.DoubleValue
2.308

@<SCITEGIC>MOL_PROPERTY
Valence
SciTegic.value.DoubleValue
10.557

@<SCITEGIC>MOL_PROPERTY
Coulomb
SciTegic.value.DoubleValue
3.764

@<SCITEGIC>MOL_PROPERTY
VdW
SciTegic.value.DoubleValue
-0.028

@<SCITEGIC>MOL_PROPERTY
VdW6
SciTegic.value.DoubleValue
-12.698

@<SCITEGIC>MOL_PROPERTY
VdW12
SciTegic.value.DoubleValue
12.670

@<SCITEGIC>MOL_PROPERTY
Bond
SciTegic.value.DoubleValue
0.274

@<SCITEGIC>MOL_PROPERTY
Angle
SciTegic.value.DoubleValue
3.852

@<SCITEGIC>MOL_PROPERTY
Pdih
SciTegic.value.DoubleValue
6.410

@<SCITEGIC>MOL_PROPERTY
Idih
SciTegic.value.DoubleValue
0.022

@<SCITEGIC>MOL_PROPERTY
Tether
SciTegic.value.DoubleValue
0.000

@<TRIPOS>MOLECULE
guest-8_vm2.mol2 : vm2 ligand conformer 193
          25          24           1
SMALL
USER_CHARGES
 
@<TRIPOS>ATOM
       1    C1      20.193362   19.991552   26.017848 C.2        1 MOL1         0.6168
       2    O1      21.230625   20.606066   25.862622 O.co2      1 MOL1        -0.6703
       3    O2      19.093291   20.507086   25.971863 O.co2      1 MOL1        -0.6703
       4    C2      20.282562   18.518970   26.415060 C.3        1 MOL1        -0.1963
       5    H1      19.821569   18.439943   27.406393 H          1 MOL1         0.0750
       6    H2      21.337519   18.245612   26.537391 H          1 MOL1         0.0750
       7    C3      19.575599   17.526256   25.449586 C.3        1 MOL1        -0.1860
       8    H3      19.359682   16.607406   26.011131 H          1 MOL1         0.0752
       9    H4      18.597673   17.925066   25.148918 H          1 MOL1         0.0752
      10    C4      20.410993   17.125761   24.205457 C.3        1 MOL1        -0.1858
      11    H5      19.879403   16.327819   23.669334 H          1 MOL1         0.0752
      12    H6      21.358308   16.682349   24.541003 H          1 MOL1         0.0752
      13    C5      20.722019   18.267466   23.206936 C.3        1 MOL1        -0.1858
      14    H7      21.331135   19.033688   23.700927 H          1 MOL1         0.0752
      15    H8      21.344137   17.860103   22.398748 H          1 MOL1         0.0752
      16    C6      19.454045   18.905436   22.588545 C.3        1 MOL1        -0.1858
      17    H9      18.867742   19.408253   23.368960 H          1 MOL1         0.0752
      18    H10     18.815544   18.110793   22.179788 H          1 MOL1         0.0752
      19    C7      19.766440   19.918557   21.462882 C.3        1 MOL1        -0.1834
      20    H11     20.346059   19.427261   20.669330 H          1 MOL1         0.0752
      21    H12     18.820698   20.238989   21.004729 H          1 MOL1         0.0752
      22    C8      20.524063   21.166851   21.965201 C.3        1 MOL1        -0.2849
      23    H13     21.527691   20.907866   22.325136 H          1 MOL1         0.0764
      24    H14     20.637882   21.900746   21.157116 H          1 MOL1         0.0764
      25    H15     19.981418   21.649028   22.789399 H          1 MOL1         0.0764
@<TRIPOS>BOND
    1     1     2    1
    2     1     3    2
    3     1     4    1
    4     4     5    1
    5     4     6    1
    6     4     7    1
    7     7     8    1
    8     7     9    1
    9     7    10    1
   10    10    11    1
   11    10    12    1
   12    10    13    1
   13    13    14    1
   14    13    15    1
   15    13    16    1
   16    16    17    1
   17    16    18    1
   18    16    19    1
   19    19    20    1
   20    19    21    1
   21    19    22    1
   22    22    23    1
   23    22    24    1
   24    22    25    1
@<TRIPOS>SUBSTRUCTURE
       1 MOL1            1 RESIDUE      1      MOL     
@<SCITEGIC>MOL_PROPERTY
VM2 Rank
SciTegic.value.IntegerValue
193

@<SCITEGIC>MOL_PROPERTY
Conf_Id
SciTegic.value.IntegerValue
89

@<SCITEGIC>MOL_PROPERTY
Probability
SciTegic.value.DoubleValue
0.00

@<SCITEGIC>MOL_PROPERTY
Sum Probability
SciTegic.value.DoubleValue
100.00

@<SCITEGIC>MOL_PROPERTY
Delta G
SciTegic.value.DoubleValue
7.908

@<SCITEGIC>MOL_PROPERTY
G
SciTegic.value.DoubleValue
-0.054

@<SCITEGIC>MOL_PROPERTY
E
SciTegic.value.DoubleValue
-25.945

@<SCITEGIC>MOL_PROPERTY
-TS
SciTegic.value.DoubleValue
25.891

@<SCITEGIC>MOL_PROPERTY
U+W
SciTegic.value.DoubleValue
-46.513

@<SCITEGIC>MOL_PROPERTY
U
SciTegic.value.DoubleValue
14.293

@<SCITEGIC>MOL_PROPERTY
W
SciTegic.value.DoubleValue
-60.805

@<SCITEGIC>MOL_PROPERTY
W(PB)
SciTegic.value.DoubleValue
-63.092

@<SCITEGIC>MOL_PROPERTY
W(SA)
SciTegic.value.DoubleValue
2.287

@<SCITEGIC>MOL_PROPERTY
Valence
SciTegic.value.DoubleValue
10.557

@<SCITEGIC>MOL_PROPERTY
Coulomb
SciTegic.value.DoubleValue
3.764

@<SCITEGIC>MOL_PROPERTY
VdW
SciTegic.value.DoubleValue
-0.028

@<SCITEGIC>MOL_PROPERTY
VdW6
SciTegic.value.DoubleValue
-12.699

@<SCITEGIC>MOL_PROPERTY
VdW12
SciTegic.value.DoubleValue
12.671

@<SCITEGIC>MOL_PROPERTY
Bond
SciTegic.value.DoubleValue
0.274

@<SCITEGIC>MOL_PROPERTY
Angle
SciTegic.value.DoubleValue
3.852

@<SCITEGIC>MOL_PROPERTY
Pdih
SciTegic.value.DoubleValue
6.410

@<SCITEGIC>MOL_PROPERTY
Idih
SciTegic.value.DoubleValue
0.021

@<SCITEGIC>MOL_PROPERTY
Tether
SciTegic.value.DoubleValue
0.000

@<TRIPOS>MOLECULE
guest-8_vm2.mol2 : vm2 ligand conformer 194
          25          24           1
SMALL
USER_CHARGES
 
@<TRIPOS>ATOM
       1    C1      20.600337   19.323673   26.615556 C.2        1 MOL1         0.6168
       2    O1      21.660439   19.874961   26.392783 O.co2      1 MOL1        -0.6703
       3    O2      20.508171   18.214354   27.103625 O.co2      1 MOL1        -0.6703
       4    C2      19.315301   20.087499   26.310852 C.3        1 MOL1        -0.1963
       5    H1      19.415148   21.074712   26.776941 H          1 MOL1         0.0750
       6    H2      18.481310   19.586352   26.816749 H          1 MOL1         0.0750
       7    C3      18.997166   20.267946   24.800262 C.3        1 MOL1        -0.1860
       8    H3      18.179779   20.996586   24.715886 H          1 MOL1         0.0752
       9    H4      19.859414   20.718122   24.292566 H          1 MOL1         0.0752
      10    C4      18.551659   18.964641   24.086276 C.3        1 MOL1        -0.1858
      11    H5      17.909805   19.219978   23.232126 H          1 MOL1         0.0752
      12    H6      17.913701   18.388521   24.770293 H          1 MOL1         0.0752
      13    C5      19.712628   18.061203   23.592659 C.3        1 MOL1        -0.1858
      14    H7      20.599540   18.180232   24.226716 H          1 MOL1         0.0752
      15    H8      19.403076   17.013825   23.709380 H          1 MOL1         0.0752
      16    C6      20.102214   18.272884   22.108035 C.3        1 MOL1        -0.1858
      17    H9      19.231943   18.071299   21.468712 H          1 MOL1         0.0752
      18    H10     20.861070   17.525048   21.840384 H          1 MOL1         0.0752
      19    C7      20.655390   19.680667   21.796435 C.3        1 MOL1        -0.1834
      20    H11     19.874374   20.434015   21.963575 H          1 MOL1         0.0752
      21    H12     21.482435   19.913495   22.481524 H          1 MOL1         0.0752
      22    C8      21.149696   19.786171   20.339517 C.3        1 MOL1        -0.2849
      23    H13     20.334489   19.582670   19.632884 H          1 MOL1         0.0764
      24    H14     21.533371   20.793821   20.133551 H          1 MOL1         0.0764
      25    H15     21.958619   19.069634   20.145869 H          1 MOL1         0.0764
@<TRIPOS>BOND
    1     1     2    1
    2     1     3    2
    3     1     4    1
    4     4     5    1
    5     4     6    1
    6     4     7    1
    7     7     8    1
    8     7     9    1
    9     7    10    1
   10    10    11    1
   11    10    12    1
   12    10    13    1
   13    13    14    1
   14    13    15    1
   15    13    16    1
   16    16    17    1
   17    16    18    1
   18    16    19    1
   19    19    20    1
   20    19    21    1
   21    19    22    1
   22    22    23    1
   23    22    24    1
   24    22    25    1
@<TRIPOS>SUBSTRUCTURE
       1 MOL1            1 RESIDUE      1      MOL     
@<SCITEGIC>MOL_PROPERTY
VM2 Rank
SciTegic.value.IntegerValue
194

@<SCITEGIC>MOL_PROPERTY
Conf_Id
SciTegic.value.IntegerValue
371

@<SCITEGIC>MOL_PROPERTY
Probability
SciTegic.value.DoubleValue
0.00

@<SCITEGIC>MOL_PROPERTY
Sum Probability
SciTegic.value.DoubleValue
100.00

@<SCITEGIC>MOL_PROPERTY
Delta G
SciTegic.value.DoubleValue
7.920

@<SCITEGIC>MOL_PROPERTY
G
SciTegic.value.DoubleValue
-0.043

@<SCITEGIC>MOL_PROPERTY
E
SciTegic.value.DoubleValue
-25.284

@<SCITEGIC>MOL_PROPERTY
-TS
SciTegic.value.DoubleValue
25.242

@<SCITEGIC>MOL_PROPERTY
U+W
SciTegic.value.DoubleValue
-45.852

@<SCITEGIC>MOL_PROPERTY
U
SciTegic.value.DoubleValue
14.998

@<SCITEGIC>MOL_PROPERTY
W
SciTegic.value.DoubleValue
-60.850

@<SCITEGIC>MOL_PROPERTY
W(PB)
SciTegic.value.DoubleValue
-63.216

@<SCITEGIC>MOL_PROPERTY
W(SA)
SciTegic.value.DoubleValue
2.366

@<SCITEGIC>MOL_PROPERTY
Valence
SciTegic.value.DoubleValue
12.645

@<SCITEGIC>MOL_PROPERTY
Coulomb
SciTegic.value.DoubleValue
1.771

@<SCITEGIC>MOL_PROPERTY
VdW
SciTegic.value.DoubleValue
0.582

@<SCITEGIC>MOL_PROPERTY
VdW6
SciTegic.value.DoubleValue
-11.471

@<SCITEGIC>MOL_PROPERTY
VdW12
SciTegic.value.DoubleValue
12.053

@<SCITEGIC>MOL_PROPERTY
Bond
SciTegic.value.DoubleValue
0.285

@<SCITEGIC>MOL_PROPERTY
Angle
SciTegic.value.DoubleValue
3.669

@<SCITEGIC>MOL_PROPERTY
Pdih
SciTegic.value.DoubleValue
8.687

@<SCITEGIC>MOL_PROPERTY
Idih
SciTegic.value.DoubleValue
0.004

@<SCITEGIC>MOL_PROPERTY
Tether
SciTegic.value.DoubleValue
0.000

@<TRIPOS>MOLECULE
guest-8_vm2.mol2 : vm2 ligand conformer 195
          25          24           1
SMALL
USER_CHARGES
 
@<TRIPOS>ATOM
       1    C1      20.308915   19.740687   26.606554 C.2        1 MOL1         0.6168
       2    O1      21.195492   20.540273   26.378504 O.co2      1 MOL1        -0.6703
       3    O2      19.226257   20.048876   27.064995 O.co2      1 MOL1        -0.6703
       4    C2      20.590091   18.263391   26.349404 C.3        1 MOL1        -0.1963
       5    H1      19.822701   17.666919   26.857295 H          1 MOL1         0.0750
       6    H2      21.541913   18.031478   26.841389 H          1 MOL1         0.0750
       7    C3      20.680225   17.859734   24.851206 C.3        1 MOL1        -0.1860
       8    H3      21.409423   18.500268   24.339474 H          1 MOL1         0.0752
       9    H4      21.084962   16.839876   24.803944 H          1 MOL1         0.0752
      10    C4      19.317711   17.868385   24.109354 C.3        1 MOL1        -0.1858
      11    H5      18.543913   17.486470   24.789178 H          1 MOL1         0.0752
      12    H6      19.353876   17.153945   23.275678 H          1 MOL1         0.0752
      13    C5      18.878328   19.254345   23.567352 C.3        1 MOL1        -0.1858
      14    H7      17.786248   19.326315   23.660251 H          1 MOL1         0.0752
      15    H8      19.282184   20.064195   24.186907 H          1 MOL1         0.0752
      16    C6      19.240618   19.505457   22.081961 C.3        1 MOL1        -0.1858
      17    H9      18.804620   20.466909   21.778191 H          1 MOL1         0.0752
      18    H10     18.765055   18.739422   21.454449 H          1 MOL1         0.0752
      19    C7      20.758684   19.533063   21.799725 C.3        1 MOL1        -0.1834
      20    H11     21.247834   20.249051   22.474747 H          1 MOL1         0.0752
      21    H12     21.194241   18.546052   22.003571 H          1 MOL1         0.0752
      22    C8      21.056679   19.919788   20.336946 C.3        1 MOL1        -0.2849
      23    H13     20.665750   20.919598   20.107085 H          1 MOL1         0.0764
      24    H14     22.138706   19.928555   20.152215 H          1 MOL1         0.0764
      25    H15     20.599596   19.204210   19.641009 H          1 MOL1         0.0764
@<TRIPOS>BOND
    1     1     2    1
    2     1     3    2
    3     1     4    1
    4     4     5    1
    5     4     6    1
    6     4     7    1
    7     7     8    1
    8     7     9    1
    9     7    10    1
   10    10    11    1
   11    10    12    1
   12    10    13    1
   13    13    14    1
   14    13    15    1
   15    13    16    1
   16    16    17    1
   17    16    18    1
   18    16    19    1
   19    19    20    1
   20    19    21    1
   21    19    22    1
   22    22    23    1
   23    22    24    1
   24    22    25    1
@<TRIPOS>SUBSTRUCTURE
       1 MOL1            1 RESIDUE      1      MOL     
@<SCITEGIC>MOL_PROPERTY
VM2 Rank
SciTegic.value.IntegerValue
195

@<SCITEGIC>MOL_PROPERTY
Conf_Id
SciTegic.value.IntegerValue
132

@<SCITEGIC>MOL_PROPERTY
Probability
SciTegic.value.DoubleValue
0.00

@<SCITEGIC>MOL_PROPERTY
Sum Probability
SciTegic.value.DoubleValue
100.00

@<SCITEGIC>MOL_PROPERTY
Delta G
SciTegic.value.DoubleValue
7.973

@<SCITEGIC>MOL_PROPERTY
G
SciTegic.value.DoubleValue
0.010

@<SCITEGIC>MOL_PROPERTY
E
SciTegic.value.DoubleValue
-25.230

@<SCITEGIC>MOL_PROPERTY
-TS
SciTegic.value.DoubleValue
25.241

@<SCITEGIC>MOL_PROPERTY
U+W
SciTegic.value.DoubleValue
-45.798

@<SCITEGIC>MOL_PROPERTY
U
SciTegic.value.DoubleValue
14.997

@<SCITEGIC>MOL_PROPERTY
W
SciTegic.value.DoubleValue
-60.795

@<SCITEGIC>MOL_PROPERTY
W(PB)
SciTegic.value.DoubleValue
-63.174

@<SCITEGIC>MOL_PROPERTY
W(SA)
SciTegic.value.DoubleValue
2.379

@<SCITEGIC>MOL_PROPERTY
Valence
SciTegic.value.DoubleValue
12.645

@<SCITEGIC>MOL_PROPERTY
Coulomb
SciTegic.value.DoubleValue
1.770

@<SCITEGIC>MOL_PROPERTY
VdW
SciTegic.value.DoubleValue
0.582

@<SCITEGIC>MOL_PROPERTY
VdW6
SciTegic.value.DoubleValue
-11.471

@<SCITEGIC>MOL_PROPERTY
VdW12
SciTegic.value.DoubleValue
12.053

@<SCITEGIC>MOL_PROPERTY
Bond
SciTegic.value.DoubleValue
0.285

@<SCITEGIC>MOL_PROPERTY
Angle
SciTegic.value.DoubleValue
3.670

@<SCITEGIC>MOL_PROPERTY
Pdih
SciTegic.value.DoubleValue
8.687

@<SCITEGIC>MOL_PROPERTY
Idih
SciTegic.value.DoubleValue
0.003

@<SCITEGIC>MOL_PROPERTY
Tether
SciTegic.value.DoubleValue
0.000

@<TRIPOS>MOLECULE
guest-8_vm2.mol2 : vm2 ligand conformer 196
          25          24           1
SMALL
USER_CHARGES
 
@<TRIPOS>ATOM
       1    C1      20.248969   19.754088   26.985630 C.2        1 MOL1         0.6168
       2    O1      21.108237   20.612085   26.938645 O.co2      1 MOL1        -0.6703
       3    O2      19.378290   19.719188   27.832737 O.co2      1 MOL1        -0.6703
       4    C2      20.252362   18.671387   25.912345 C.3        1 MOL1        -0.1963
       5    H1      19.883199   17.743837   26.365730 H          1 MOL1         0.0750
       6    H2      21.292899   18.495777   25.618523 H          1 MOL1         0.0750
       7    C3      19.386697   19.046320   24.680887 C.3        1 MOL1        -0.1860
       8    H3      18.366411   19.262975   25.025986 H          1 MOL1         0.0752
       9    H4      19.766051   19.975891   24.239852 H          1 MOL1         0.0752
      10    C4      19.320114   17.924212   23.613979 C.3        1 MOL1        -0.1858
      11    H5      18.498048   18.124256   22.914144 H          1 MOL1         0.0752
      12    H6      19.052547   16.986147   24.119141 H          1 MOL1         0.0752
      13    C5      20.633420   17.706658   22.817906 C.3        1 MOL1        -0.1858
      14    H7      21.508507   17.962706   23.427675 H          1 MOL1         0.0752
      15    H8      20.723783   16.631195   22.613311 H          1 MOL1         0.0752
      16    C6      20.714282   18.440461   21.452969 C.3        1 MOL1        -0.1858
      17    H9      19.878931   18.133382   20.809042 H          1 MOL1         0.0752
      18    H10     21.622200   18.084711   20.947038 H          1 MOL1         0.0752
      19    C7      20.792694   19.985065   21.528984 C.3        1 MOL1        -0.1834
      20    H11     21.284115   20.296834   22.460441 H          1 MOL1         0.0752
      21    H12     21.436773   20.342233   20.713649 H          1 MOL1         0.0752
      22    C8      19.417934   20.674536   21.381918 C.3        1 MOL1        -0.2849
      23    H13     19.528029   21.765341   21.433585 H          1 MOL1         0.0764
      24    H14     18.959650   20.428448   20.415321 H          1 MOL1         0.0764
      25    H15     18.722485   20.370674   22.171968 H          1 MOL1         0.0764
@<TRIPOS>BOND
    1     1     2    1
    2     1     3    2
    3     1     4    1
    4     4     5    1
    5     4     6    1
    6     4     7    1
    7     7     8    1
    8     7     9    1
    9     7    10    1
   10    10    11    1
   11    10    12    1
   12    10    13    1
   13    13    14    1
   14    13    15    1
   15    13    16    1
   16    16    17    1
   17    16    18    1
   18    16    19    1
   19    19    20    1
   20    19    21    1
   21    19    22    1
   22    22    23    1
   23    22    24    1
   24    22    25    1
@<TRIPOS>SUBSTRUCTURE
       1 MOL1            1 RESIDUE      1      MOL     
@<SCITEGIC>MOL_PROPERTY
VM2 Rank
SciTegic.value.IntegerValue
196

@<SCITEGIC>MOL_PROPERTY
Conf_Id
SciTegic.value.IntegerValue
849

@<SCITEGIC>MOL_PROPERTY
Probability
SciTegic.value.DoubleValue
0.00

@<SCITEGIC>MOL_PROPERTY
Sum Probability
SciTegic.value.DoubleValue
100.00

@<SCITEGIC>MOL_PROPERTY
Delta G
SciTegic.value.DoubleValue
8.271

@<SCITEGIC>MOL_PROPERTY
G
SciTegic.value.DoubleValue
0.308

@<SCITEGIC>MOL_PROPERTY
E
SciTegic.value.DoubleValue
-24.991

@<SCITEGIC>MOL_PROPERTY
-TS
SciTegic.value.DoubleValue
25.300

@<SCITEGIC>MOL_PROPERTY
U+W
SciTegic.value.DoubleValue
-45.559

@<SCITEGIC>MOL_PROPERTY
U
SciTegic.value.DoubleValue
14.522

@<SCITEGIC>MOL_PROPERTY
W
SciTegic.value.DoubleValue
-60.081

@<SCITEGIC>MOL_PROPERTY
W(PB)
SciTegic.value.DoubleValue
-62.462

@<SCITEGIC>MOL_PROPERTY
W(SA)
SciTegic.value.DoubleValue
2.382

@<SCITEGIC>MOL_PROPERTY
Valence
SciTegic.value.DoubleValue
13.852

@<SCITEGIC>MOL_PROPERTY
Coulomb
SciTegic.value.DoubleValue
-0.211

@<SCITEGIC>MOL_PROPERTY
VdW
SciTegic.value.DoubleValue
0.881

@<SCITEGIC>MOL_PROPERTY
VdW6
SciTegic.value.DoubleValue
-11.047

@<SCITEGIC>MOL_PROPERTY
VdW12
SciTegic.value.DoubleValue
11.928

@<SCITEGIC>MOL_PROPERTY
Bond
SciTegic.value.DoubleValue
0.293

@<SCITEGIC>MOL_PROPERTY
Angle
SciTegic.value.DoubleValue
3.944

@<SCITEGIC>MOL_PROPERTY
Pdih
SciTegic.value.DoubleValue
9.615

@<SCITEGIC>MOL_PROPERTY
Idih
SciTegic.value.DoubleValue
0.000

@<SCITEGIC>MOL_PROPERTY
Tether
SciTegic.value.DoubleValue
0.000

@<TRIPOS>MOLECULE
guest-8_vm2.mol2 : vm2 ligand conformer 197
          25          24           1
SMALL
USER_CHARGES
 
@<TRIPOS>ATOM
       1    C1      19.883818   19.895163   26.688116 C.2        1 MOL1         0.6168
       2    O1      20.048242   19.508087   27.828355 O.co2      1 MOL1        -0.6703
       3    O2      19.015038   20.679568   26.361819 O.co2      1 MOL1        -0.6703
       4    C2      20.806416   19.350401   25.603966 C.3        1 MOL1        -0.1963
       5    H1      21.790787   19.174078   26.053462 H          1 MOL1         0.0750
       6    H2      20.936806   20.133309   24.851050 H          1 MOL1         0.0750
       7    C3      20.272462   18.041629   24.964276 C.3        1 MOL1        -0.1860
       8    H3      20.199121   17.286010   25.758612 H          1 MOL1         0.0752
       9    H4      19.250031   18.186065   24.589977 H          1 MOL1         0.0752
      10    C4      21.182516   17.489108   23.839258 C.3        1 MOL1        -0.1858
      11    H5      21.140330   16.392226   23.883807 H          1 MOL1         0.0752
      12    H6      22.231218   17.751880   24.034047 H          1 MOL1         0.0752
      13    C5      20.786878   17.904624   22.397444 C.3        1 MOL1        -0.1858
      14    H7      21.427142   17.336035   21.709414 H          1 MOL1         0.0752
      15    H8      19.763038   17.573726   22.183970 H          1 MOL1         0.0752
      16    C6      20.961022   19.409605   22.064195 C.3        1 MOL1        -0.1858
      17    H9      21.294522   19.503489   21.021757 H          1 MOL1         0.0752
      18    H10     21.776337   19.826432   22.669808 H          1 MOL1         0.0752
      19    C7      19.682745   20.267640   22.239091 C.3        1 MOL1        -0.1834
      20    H11     19.246181   20.115856   23.233838 H          1 MOL1         0.0752
      21    H12     19.963078   21.328463   22.185876 H          1 MOL1         0.0752
      22    C8      18.613864   19.988176   21.159479 C.3        1 MOL1        -0.2849
      23    H13     18.236295   18.960368   21.221859 H          1 MOL1         0.0764
      24    H14     17.758395   20.664622   21.283626 H          1 MOL1         0.0764
      25    H15     19.022484   20.143104   20.152514 H          1 MOL1         0.0764
@<TRIPOS>BOND
    1     1     2    1
    2     1     3    2
    3     1     4    1
    4     4     5    1
    5     4     6    1
    6     4     7    1
    7     7     8    1
    8     7     9    1
    9     7    10    1
   10    10    11    1
   11    10    12    1
   12    10    13    1
   13    13    14    1
   14    13    15    1
   15    13    16    1
   16    16    17    1
   17    16    18    1
   18    16    19    1
   19    19    20    1
   20    19    21    1
   21    19    22    1
   22    22    23    1
   23    22    24    1
   24    22    25    1
@<TRIPOS>SUBSTRUCTURE
       1 MOL1            1 RESIDUE      1      MOL     
@<SCITEGIC>MOL_PROPERTY
VM2 Rank
SciTegic.value.IntegerValue
197

@<SCITEGIC>MOL_PROPERTY
Conf_Id
SciTegic.value.IntegerValue
1077

@<SCITEGIC>MOL_PROPERTY
Probability
SciTegic.value.DoubleValue
0.00

@<SCITEGIC>MOL_PROPERTY
Sum Probability
SciTegic.value.DoubleValue
100.00

@<SCITEGIC>MOL_PROPERTY
Delta G
SciTegic.value.DoubleValue
8.274

@<SCITEGIC>MOL_PROPERTY
G
SciTegic.value.DoubleValue
0.311

@<SCITEGIC>MOL_PROPERTY
E
SciTegic.value.DoubleValue
-25.088

@<SCITEGIC>MOL_PROPERTY
-TS
SciTegic.value.DoubleValue
25.399

@<SCITEGIC>MOL_PROPERTY
U+W
SciTegic.value.DoubleValue
-45.655

@<SCITEGIC>MOL_PROPERTY
U
SciTegic.value.DoubleValue
14.722

@<SCITEGIC>MOL_PROPERTY
W
SciTegic.value.DoubleValue
-60.377

@<SCITEGIC>MOL_PROPERTY
W(PB)
SciTegic.value.DoubleValue
-62.725

@<SCITEGIC>MOL_PROPERTY
W(SA)
SciTegic.value.DoubleValue
2.349

@<SCITEGIC>MOL_PROPERTY
Valence
SciTegic.value.DoubleValue
13.814

@<SCITEGIC>MOL_PROPERTY
Coulomb
SciTegic.value.DoubleValue
0.251

@<SCITEGIC>MOL_PROPERTY
VdW
SciTegic.value.DoubleValue
0.657

@<SCITEGIC>MOL_PROPERTY
VdW6
SciTegic.value.DoubleValue
-11.451

@<SCITEGIC>MOL_PROPERTY
VdW12
SciTegic.value.DoubleValue
12.108

@<SCITEGIC>MOL_PROPERTY
Bond
SciTegic.value.DoubleValue
0.297

@<SCITEGIC>MOL_PROPERTY
Angle
SciTegic.value.DoubleValue
3.965

@<SCITEGIC>MOL_PROPERTY
Pdih
SciTegic.value.DoubleValue
9.552

@<SCITEGIC>MOL_PROPERTY
Idih
SciTegic.value.DoubleValue
0.001

@<SCITEGIC>MOL_PROPERTY
Tether
SciTegic.value.DoubleValue
0.000

@<TRIPOS>MOLECULE
guest-8_vm2.mol2 : vm2 ligand conformer 198
          25          24           1
SMALL
USER_CHARGES
 
@<TRIPOS>ATOM
       1    C1      20.492597   18.822449   26.583715 C.2        1 MOL1         0.6168
       2    O1      21.676691   19.062722   26.452183 O.co2      1 MOL1        -0.6703
       3    O2      19.919361   18.835664   27.655511 O.co2      1 MOL1        -0.6703
       4    C2      19.684021   18.460554   25.340931 C.3        1 MOL1        -0.1963
       5    H1      19.104890   17.561603   25.581697 H          1 MOL1         0.0750
       6    H2      20.382590   18.179041   24.547299 H          1 MOL1         0.0750
       7    C3      18.718274   19.582508   24.867481 C.3        1 MOL1        -0.1860
       8    H3      18.029960   19.192444   24.106423 H          1 MOL1         0.0752
       9    H4      18.088345   19.866160   25.722025 H          1 MOL1         0.0752
      10    C4      19.427625   20.853044   24.332274 C.3        1 MOL1        -0.1858
      11    H5      20.380082   21.011047   24.856221 H          1 MOL1         0.0752
      12    H6      18.802683   21.717988   24.593176 H          1 MOL1         0.0752
      13    C5      19.654004   20.898320   22.797800 C.3        1 MOL1        -0.1858
      14    H7      18.693239   20.814142   22.271887 H          1 MOL1         0.0752
      15    H8      20.035308   21.899716   22.555653 H          1 MOL1         0.0752
      16    C6      20.663264   19.863200   22.242173 C.3        1 MOL1        -0.1858
      17    H9      21.404781   19.608830   23.011413 H          1 MOL1         0.0752
      18    H10     21.226779   20.331777   21.423828 H          1 MOL1         0.0752
      19    C7      19.987582   18.588242   21.686573 C.3        1 MOL1        -0.1834
      20    H11     19.360228   18.118659   22.453320 H          1 MOL1         0.0752
      21    H12     19.318513   18.859188   20.858332 H          1 MOL1         0.0752
      22    C8      21.029580   17.567297   21.187359 C.3        1 MOL1        -0.2849
      23    H13     21.692401   17.253002   22.004223 H          1 MOL1         0.0764
      24    H14     20.534361   16.672235   20.789174 H          1 MOL1         0.0764
      25    H15     21.648834   17.996185   20.388726 H          1 MOL1         0.0764
@<TRIPOS>BOND
    1     1     2    1
    2     1     3    2
    3     1     4    1
    4     4     5    1
    5     4     6    1
    6     4     7    1
    7     7     8    1
    8     7     9    1
    9     7    10    1
   10    10    11    1
   11    10    12    1
   12    10    13    1
   13    13    14    1
   14    13    15    1
   15    13    16    1
   16    16    17    1
   17    16    18    1
   18    16    19    1
   19    19    20    1
   20    19    21    1
   21    19    22    1
   22    22    23    1
   23    22    24    1
   24    22    25    1
@<TRIPOS>SUBSTRUCTURE
       1 MOL1            1 RESIDUE      1      MOL     
@<SCITEGIC>MOL_PROPERTY
VM2 Rank
SciTegic.value.IntegerValue
198

@<SCITEGIC>MOL_PROPERTY
Conf_Id
SciTegic.value.IntegerValue
226

@<SCITEGIC>MOL_PROPERTY
Probability
SciTegic.value.DoubleValue
0.00

@<SCITEGIC>MOL_PROPERTY
Sum Probability
SciTegic.value.DoubleValue
100.00

@<SCITEGIC>MOL_PROPERTY
Delta G
SciTegic.value.DoubleValue
8.584

@<SCITEGIC>MOL_PROPERTY
G
SciTegic.value.DoubleValue
0.621

@<SCITEGIC>MOL_PROPERTY
E
SciTegic.value.DoubleValue
-25.043

@<SCITEGIC>MOL_PROPERTY
-TS
SciTegic.value.DoubleValue
25.665

@<SCITEGIC>MOL_PROPERTY
U+W
SciTegic.value.DoubleValue
-45.611

@<SCITEGIC>MOL_PROPERTY
U
SciTegic.value.DoubleValue
15.109

@<SCITEGIC>MOL_PROPERTY
W
SciTegic.value.DoubleValue
-60.720

@<SCITEGIC>MOL_PROPERTY
W(PB)
SciTegic.value.DoubleValue
-63.083

@<SCITEGIC>MOL_PROPERTY
W(SA)
SciTegic.value.DoubleValue
2.363

@<SCITEGIC>MOL_PROPERTY
Valence
SciTegic.value.DoubleValue
13.453

@<SCITEGIC>MOL_PROPERTY
Coulomb
SciTegic.value.DoubleValue
1.186

@<SCITEGIC>MOL_PROPERTY
VdW
SciTegic.value.DoubleValue
0.471

@<SCITEGIC>MOL_PROPERTY
VdW6
SciTegic.value.DoubleValue
-11.723

@<SCITEGIC>MOL_PROPERTY
VdW12
SciTegic.value.DoubleValue
12.194

@<SCITEGIC>MOL_PROPERTY
Bond
SciTegic.value.DoubleValue
0.286

@<SCITEGIC>MOL_PROPERTY
Angle
SciTegic.value.DoubleValue
3.937

@<SCITEGIC>MOL_PROPERTY
Pdih
SciTegic.value.DoubleValue
9.229

@<SCITEGIC>MOL_PROPERTY
Idih
SciTegic.value.DoubleValue
0.001

@<SCITEGIC>MOL_PROPERTY
Tether
SciTegic.value.DoubleValue
0.000

@<TRIPOS>MOLECULE
guest-8_vm2.mol2 : vm2 ligand conformer 199
          25          24           1
SMALL
USER_CHARGES
 
@<TRIPOS>ATOM
       1    C1      20.550073   19.903864   26.025758 C.2        1 MOL1         0.6168
       2    O1      21.558220   20.416668   25.581343 O.co2      1 MOL1        -0.6703
       3    O2      19.602275   20.543772   26.439024 O.co2      1 MOL1        -0.6703
       4    C2      20.534738   18.382685   26.185403 C.3        1 MOL1        -0.1963
       5    H1      20.745872   18.187845   27.243022 H          1 MOL1         0.0750
       6    H2      21.369527   17.955947   25.616738 H          1 MOL1         0.0750
       7    C3      19.204422   17.674617   25.800191 C.3        1 MOL1        -0.1860
       8    H3      19.164109   16.717410   26.337306 H          1 MOL1         0.0752
       9    H4      18.348825   18.257812   26.167863 H          1 MOL1         0.0752
      10    C4      19.025627   17.369837   24.290624 C.3        1 MOL1        -0.1858
      11    H5      18.095778   16.795621   24.178371 H          1 MOL1         0.0752
      12    H6      19.827797   16.703875   23.944222 H          1 MOL1         0.0752
      13    C5      18.930114   18.618113   23.378907 C.3        1 MOL1        -0.1858
      14    H7      18.146642   18.446218   22.628320 H          1 MOL1         0.0752
      15    H8      18.605835   19.490690   23.962396 H          1 MOL1         0.0752
      16    C6      20.251195   18.924301   22.636639 C.3        1 MOL1        -0.1858
      17    H9      20.513995   18.073689   21.993235 H          1 MOL1         0.0752
      18    H10     21.070493   19.039213   23.356811 H          1 MOL1         0.0752
      19    C7      20.141300   20.202724   21.779810 C.3        1 MOL1        -0.1834
      20    H11     19.321268   20.096227   21.056345 H          1 MOL1         0.0752
      21    H12     19.891287   21.056465   22.425241 H          1 MOL1         0.0752
      22    C8      21.455036   20.497417   21.028300 C.3        1 MOL1        -0.2849
      23    H13     21.716017   19.671394   20.353912 H          1 MOL1         0.0764
      24    H14     21.360273   21.410437   20.426357 H          1 MOL1         0.0764
      25    H15     22.284697   20.640434   21.733265 H          1 MOL1         0.0764
@<TRIPOS>BOND
    1     1     2    1
    2     1     3    2
    3     1     4    1
    4     4     5    1
    5     4     6    1
    6     4     7    1
    7     7     8    1
    8     7     9    1
    9     7    10    1
   10    10    11    1
   11    10    12    1
   12    10    13    1
   13    13    14    1
   14    13    15    1
   15    13    16    1
   16    16    17    1
   17    16    18    1
   18    16    19    1
   19    19    20    1
   20    19    21    1
   21    19    22    1
   22    22    23    1
   23    22    24    1
   24    22    25    1
@<TRIPOS>SUBSTRUCTURE
       1 MOL1            1 RESIDUE      1      MOL     
@<SCITEGIC>MOL_PROPERTY
VM2 Rank
SciTegic.value.IntegerValue
199

@<SCITEGIC>MOL_PROPERTY
Conf_Id
SciTegic.value.IntegerValue
130

@<SCITEGIC>MOL_PROPERTY
Probability
SciTegic.value.DoubleValue
0.00

@<SCITEGIC>MOL_PROPERTY
Sum Probability
SciTegic.value.DoubleValue
100.00

@<SCITEGIC>MOL_PROPERTY
Delta G
SciTegic.value.DoubleValue
8.692

@<SCITEGIC>MOL_PROPERTY
G
SciTegic.value.DoubleValue
0.730

@<SCITEGIC>MOL_PROPERTY
E
SciTegic.value.DoubleValue
-24.801

@<SCITEGIC>MOL_PROPERTY
-TS
SciTegic.value.DoubleValue
25.531

@<SCITEGIC>MOL_PROPERTY
U+W
SciTegic.value.DoubleValue
-45.369

@<SCITEGIC>MOL_PROPERTY
U
SciTegic.value.DoubleValue
15.897

@<SCITEGIC>MOL_PROPERTY
W
SciTegic.value.DoubleValue
-61.266

@<SCITEGIC>MOL_PROPERTY
W(PB)
SciTegic.value.DoubleValue
-63.633

@<SCITEGIC>MOL_PROPERTY
W(SA)
SciTegic.value.DoubleValue
2.368

@<SCITEGIC>MOL_PROPERTY
Valence
SciTegic.value.DoubleValue
12.566

@<SCITEGIC>MOL_PROPERTY
Coulomb
SciTegic.value.DoubleValue
3.123

@<SCITEGIC>MOL_PROPERTY
VdW
SciTegic.value.DoubleValue
0.208

@<SCITEGIC>MOL_PROPERTY
VdW6
SciTegic.value.DoubleValue
-11.861

@<SCITEGIC>MOL_PROPERTY
VdW12
SciTegic.value.DoubleValue
12.069

@<SCITEGIC>MOL_PROPERTY
Bond
SciTegic.value.DoubleValue
0.250

@<SCITEGIC>MOL_PROPERTY
Angle
SciTegic.value.DoubleValue
3.828

@<SCITEGIC>MOL_PROPERTY
Pdih
SciTegic.value.DoubleValue
8.466

@<SCITEGIC>MOL_PROPERTY
Idih
SciTegic.value.DoubleValue
0.021

@<SCITEGIC>MOL_PROPERTY
Tether
SciTegic.value.DoubleValue
0.000

@<TRIPOS>MOLECULE
guest-8_vm2.mol2 : vm2 ligand conformer 200
          25          24           1
SMALL
USER_CHARGES
 
@<TRIPOS>ATOM
       1    C1      19.406985   18.983753   26.030162 C.2        1 MOL1         0.6168
       2    O1      18.688622   18.106762   25.592359 O.co2      1 MOL1        -0.6703
       3    O2      18.986263   20.048095   26.440967 O.co2      1 MOL1        -0.6703
       4    C2      20.897049   18.674365   26.184125 C.3        1 MOL1        -0.1963
       5    H1      21.132980   17.765524   25.617820 H          1 MOL1         0.0750
       6    H2      21.047148   18.430495   27.241997 H          1 MOL1         0.0750
       7    C3      21.871199   19.821206   25.790069 C.3        1 MOL1        -0.1860
       8    H3      21.485943   20.783052   26.155822 H          1 MOL1         0.0752
       9    H4      22.817360   19.658136   26.323501 H          1 MOL1         0.0752
      10    C4      22.200250   19.924960   24.278575 C.3        1 MOL1        -0.1858
      11    H5      22.677737   18.997647   23.933506 H          1 MOL1         0.0752
      12    H6      22.959454   20.710111   24.159865 H          1 MOL1         0.0752
      13    C5      20.997091   20.281685   23.370997 C.3        1 MOL1        -0.1858
      14    H7      20.216706   20.787250   23.956155 H          1 MOL1         0.0752
      15    H8      21.329073   21.007424   22.616114 H          1 MOL1         0.0752
      16    C6      20.412125   19.053811   22.636073 C.3        1 MOL1        -0.1858
      17    H9      20.127979   18.280798   23.360510 H          1 MOL1         0.0752
      18    H10     21.183922   18.612736   21.990816 H          1 MOL1         0.0752
      19    C7      19.182864   19.431281   21.783410 C.3        1 MOL1        -0.1834
      20    H11     18.405326   19.860619   22.430762 H          1 MOL1         0.0752
      21    H12     19.458956   20.206746   21.055658 H          1 MOL1         0.0752
      22    C8      18.610553   18.208082   21.039262 C.3        1 MOL1        -0.2849
      23    H13     18.296655   17.430948   21.748695 H          1 MOL1         0.0764
      24    H14     17.736159   18.493611   20.440238 H          1 MOL1         0.0764
      25    H15     19.358525   17.773850   20.363093 H          1 MOL1         0.0764
@<TRIPOS>BOND
    1     1     2    1
    2     1     3    2
    3     1     4    1
    4     4     5    1
    5     4     6    1
    6     4     7    1
    7     7     8    1
    8     7     9    1
    9     7    10    1
   10    10    11    1
   11    10    12    1
   12    10    13    1
   13    13    14    1
   14    13    15    1
   15    13    16    1
   16    16    17    1
   17    16    18    1
   18    16    19    1
   19    19    20    1
   20    19    21    1
   21    19    22    1
   22    22    23    1
   23    22    24    1
   24    22    25    1
@<TRIPOS>SUBSTRUCTURE
       1 MOL1            1 RESIDUE      1      MOL     
@<SCITEGIC>MOL_PROPERTY
VM2 Rank
SciTegic.value.IntegerValue
200

@<SCITEGIC>MOL_PROPERTY
Conf_Id
SciTegic.value.IntegerValue
376

@<SCITEGIC>MOL_PROPERTY
Probability
SciTegic.value.DoubleValue
0.00

@<SCITEGIC>MOL_PROPERTY
Sum Probability
SciTegic.value.DoubleValue
100.00

@<SCITEGIC>MOL_PROPERTY
Delta G
SciTegic.value.DoubleValue
8.758

@<SCITEGIC>MOL_PROPERTY
G
SciTegic.value.DoubleValue
0.796

@<SCITEGIC>MOL_PROPERTY
E
SciTegic.value.DoubleValue
-24.735

@<SCITEGIC>MOL_PROPERTY
-TS
SciTegic.value.DoubleValue
25.531

@<SCITEGIC>MOL_PROPERTY
U+W
SciTegic.value.DoubleValue
-45.302

@<SCITEGIC>MOL_PROPERTY
U
SciTegic.value.DoubleValue
15.898

@<SCITEGIC>MOL_PROPERTY
W
SciTegic.value.DoubleValue
-61.201

@<SCITEGIC>MOL_PROPERTY
W(PB)
SciTegic.value.DoubleValue
-63.554

@<SCITEGIC>MOL_PROPERTY
W(SA)
SciTegic.value.DoubleValue
2.353

@<SCITEGIC>MOL_PROPERTY
Valence
SciTegic.value.DoubleValue
12.566

@<SCITEGIC>MOL_PROPERTY
Coulomb
SciTegic.value.DoubleValue
3.124

@<SCITEGIC>MOL_PROPERTY
VdW
SciTegic.value.DoubleValue
0.208

@<SCITEGIC>MOL_PROPERTY
VdW6
SciTegic.value.DoubleValue
-11.861

@<SCITEGIC>MOL_PROPERTY
VdW12
SciTegic.value.DoubleValue
12.069

@<SCITEGIC>MOL_PROPERTY
Bond
SciTegic.value.DoubleValue
0.250

@<SCITEGIC>MOL_PROPERTY
Angle
SciTegic.value.DoubleValue
3.828

@<SCITEGIC>MOL_PROPERTY
Pdih
SciTegic.value.DoubleValue
8.466

@<SCITEGIC>MOL_PROPERTY
Idih
SciTegic.value.DoubleValue
0.022

@<SCITEGIC>MOL_PROPERTY
Tether
SciTegic.value.DoubleValue
0.000

@<TRIPOS>MOLECULE
guest-8_vm2.mol2 : vm2 ligand conformer 201
          25          24           1
SMALL
USER_CHARGES
 
@<TRIPOS>ATOM
       1    C1      19.636867   19.648974   26.322487 C.2        1 MOL1         0.6168
       2    O1      20.441302   20.289189   26.971652 O.co2      1 MOL1        -0.6703
       3    O2      18.559058   20.089482   25.974397 O.co2      1 MOL1        -0.6703
       4    C2      19.941879   18.180973   26.022291 C.3        1 MOL1        -0.1963
       5    H1      19.181525   17.791920   25.334522 H          1 MOL1         0.0750
       6    H2      19.811129   17.644257   26.968847 H          1 MOL1         0.0750
       7    C3      21.366280   17.888100   25.470390 C.3        1 MOL1        -0.1860
       8    H3      22.110830   18.483200   26.017092 H          1 MOL1         0.0752
       9    H4      21.604194   16.838600   25.690145 H          1 MOL1         0.0752
      10    C4      21.538953   18.096377   23.943966 C.3        1 MOL1        -0.1858
      11    H5      20.851881   17.433584   23.402917 H          1 MOL1         0.0752
      12    H6      22.549060   17.758356   23.675380 H          1 MOL1         0.0752
      13    C5      21.381799   19.563491   23.466560 C.3        1 MOL1        -0.1858
      14    H7      21.549417   20.246559   24.310292 H          1 MOL1         0.0752
      15    H8      22.174563   19.792908   22.741643 H          1 MOL1         0.0752
      16    C6      20.012662   19.872935   22.812811 C.3        1 MOL1        -0.1858
      17    H9      19.895463   20.963030   22.746344 H          1 MOL1         0.0752
      18    H10     19.198973   19.513841   23.455312 H          1 MOL1         0.0752
      19    C7      19.865453   19.268125   21.397573 C.3        1 MOL1        -0.1834
      20    H11     20.678062   19.631922   20.753846 H          1 MOL1         0.0752
      21    H12     19.958163   18.175153   21.438422 H          1 MOL1         0.0752
      22    C8      18.508746   19.636353   20.763874 C.3        1 MOL1        -0.2849
      23    H13     18.400505   20.724996   20.672046 H          1 MOL1         0.0764
      24    H14     18.419259   19.200766   19.760263 H          1 MOL1         0.0764
      25    H15     17.676611   19.259419   21.372890 H          1 MOL1         0.0764
@<TRIPOS>BOND
    1     1     2    1
    2     1     3    2
    3     1     4    1
    4     4     5    1
    5     4     6    1
    6     4     7    1
    7     7     8    1
    8     7     9    1
    9     7    10    1
   10    10    11    1
   11    10    12    1
   12    10    13    1
   13    13    14    1
   14    13    15    1
   15    13    16    1
   16    16    17    1
   17    16    18    1
   18    16    19    1
   19    19    20    1
   20    19    21    1
   21    19    22    1
   22    22    23    1
   23    22    24    1
   24    22    25    1
@<TRIPOS>SUBSTRUCTURE
       1 MOL1            1 RESIDUE      1      MOL     
@<SCITEGIC>MOL_PROPERTY
VM2 Rank
SciTegic.value.IntegerValue
201

@<SCITEGIC>MOL_PROPERTY
Conf_Id
SciTegic.value.IntegerValue
861

@<SCITEGIC>MOL_PROPERTY
Probability
SciTegic.value.DoubleValue
0.00

@<SCITEGIC>MOL_PROPERTY
Sum Probability
SciTegic.value.DoubleValue
100.00

@<SCITEGIC>MOL_PROPERTY
Delta G
SciTegic.value.DoubleValue
8.839

@<SCITEGIC>MOL_PROPERTY
G
SciTegic.value.DoubleValue
0.877

@<SCITEGIC>MOL_PROPERTY
E
SciTegic.value.DoubleValue
-24.711

@<SCITEGIC>MOL_PROPERTY
-TS
SciTegic.value.DoubleValue
25.588

@<SCITEGIC>MOL_PROPERTY
U+W
SciTegic.value.DoubleValue
-45.279

@<SCITEGIC>MOL_PROPERTY
U
SciTegic.value.DoubleValue
15.873

@<SCITEGIC>MOL_PROPERTY
W
SciTegic.value.DoubleValue
-61.152

@<SCITEGIC>MOL_PROPERTY
W(PB)
SciTegic.value.DoubleValue
-63.500

@<SCITEGIC>MOL_PROPERTY
W(SA)
SciTegic.value.DoubleValue
2.348

@<SCITEGIC>MOL_PROPERTY
Valence
SciTegic.value.DoubleValue
13.260

@<SCITEGIC>MOL_PROPERTY
Coulomb
SciTegic.value.DoubleValue
2.065

@<SCITEGIC>MOL_PROPERTY
VdW
SciTegic.value.DoubleValue
0.549

@<SCITEGIC>MOL_PROPERTY
VdW6
SciTegic.value.DoubleValue
-12.089

@<SCITEGIC>MOL_PROPERTY
VdW12
SciTegic.value.DoubleValue
12.639

@<SCITEGIC>MOL_PROPERTY
Bond
SciTegic.value.DoubleValue
0.288

@<SCITEGIC>MOL_PROPERTY
Angle
SciTegic.value.DoubleValue
3.906

@<SCITEGIC>MOL_PROPERTY
Pdih
SciTegic.value.DoubleValue
9.049

@<SCITEGIC>MOL_PROPERTY
Idih
SciTegic.value.DoubleValue
0.017

@<SCITEGIC>MOL_PROPERTY
Tether
SciTegic.value.DoubleValue
0.000

@<TRIPOS>MOLECULE
guest-8_vm2.mol2 : vm2 ligand conformer 202
          25          24           1
SMALL
USER_CHARGES
 
@<TRIPOS>ATOM
       1    C1      20.453424   18.997669   26.750608 C.2        1 MOL1         0.6168
       2    O1      21.559780   19.500462   26.732648 O.co2      1 MOL1        -0.6703
       3    O2      19.754854   18.946109   27.744006 O.co2      1 MOL1        -0.6703
       4    C2      19.920182   18.373876   25.463808 C.3        1 MOL1        -0.1963
       5    H1      19.534472   17.380594   25.720932 H          1 MOL1         0.0750
       6    H2      20.762807   18.215816   24.784193 H          1 MOL1         0.0750
       7    C3      18.795686   19.200535   24.780298 C.3        1 MOL1        -0.1860
       8    H3      18.324615   18.610315   23.983379 H          1 MOL1         0.0752
       9    H4      18.008249   19.377783   25.525965 H          1 MOL1         0.0752
      10    C4      19.259795   20.567981   24.215848 C.3        1 MOL1        -0.1858
      11    H5      20.072035   20.982223   24.828449 H          1 MOL1         0.0752
      12    H6      18.423865   21.272715   24.322157 H          1 MOL1         0.0752
      13    C5      19.670591   20.567932   22.719569 C.3        1 MOL1        -0.1858
      14    H7      18.831571   20.220573   22.104093 H          1 MOL1         0.0752
      15    H8      19.833845   21.614361   22.428168 H          1 MOL1         0.0752
      16    C6      20.964329   19.780569   22.385415 C.3        1 MOL1        -0.1858
      17    H9      21.625422   19.774649   23.262367 H          1 MOL1         0.0752
      18    H10     21.517541   20.322864   21.606608 H          1 MOL1         0.0752
      19    C7      20.729954   18.331400   21.890873 C.3        1 MOL1        -0.1834
      20    H11     21.690412   17.798208   21.898846 H          1 MOL1         0.0752
      21    H12     20.070887   17.790503   22.580430 H          1 MOL1         0.0752
      22    C8      20.144405   18.267466   20.462928 C.3        1 MOL1        -0.2849
      23    H13     20.792676   18.791696   19.748843 H          1 MOL1         0.0764
      24    H14     20.053307   17.224775   20.132306 H          1 MOL1         0.0764
      25    H15     19.146416   18.719897   20.415303 H          1 MOL1         0.0764
@<TRIPOS>BOND
    1     1     2    1
    2     1     3    2
    3     1     4    1
    4     4     5    1
    5     4     6    1
    6     4     7    1
    7     7     8    1
    8     7     9    1
    9     7    10    1
   10    10    11    1
   11    10    12    1
   12    10    13    1
   13    13    14    1
   14    13    15    1
   15    13    16    1
   16    16    17    1
   17    16    18    1
   18    16    19    1
   19    19    20    1
   20    19    21    1
   21    19    22    1
   22    22    23    1
   23    22    24    1
   24    22    25    1
@<TRIPOS>SUBSTRUCTURE
       1 MOL1            1 RESIDUE      1      MOL     
@<SCITEGIC>MOL_PROPERTY
VM2 Rank
SciTegic.value.IntegerValue
202

@<SCITEGIC>MOL_PROPERTY
Conf_Id
SciTegic.value.IntegerValue
736

@<SCITEGIC>MOL_PROPERTY
Probability
SciTegic.value.DoubleValue
0.00

@<SCITEGIC>MOL_PROPERTY
Sum Probability
SciTegic.value.DoubleValue
100.00

@<SCITEGIC>MOL_PROPERTY
Delta G
SciTegic.value.DoubleValue
9.671

@<SCITEGIC>MOL_PROPERTY
G
SciTegic.value.DoubleValue
1.708

@<SCITEGIC>MOL_PROPERTY
E
SciTegic.value.DoubleValue
-23.979

@<SCITEGIC>MOL_PROPERTY
-TS
SciTegic.value.DoubleValue
25.687

@<SCITEGIC>MOL_PROPERTY
U+W
SciTegic.value.DoubleValue
-44.546

@<SCITEGIC>MOL_PROPERTY
U
SciTegic.value.DoubleValue
15.772

@<SCITEGIC>MOL_PROPERTY
W
SciTegic.value.DoubleValue
-60.318

@<SCITEGIC>MOL_PROPERTY
W(PB)
SciTegic.value.DoubleValue
-62.673

@<SCITEGIC>MOL_PROPERTY
W(SA)
SciTegic.value.DoubleValue
2.355

@<SCITEGIC>MOL_PROPERTY
Valence
SciTegic.value.DoubleValue
14.167

@<SCITEGIC>MOL_PROPERTY
Coulomb
SciTegic.value.DoubleValue
0.909

@<SCITEGIC>MOL_PROPERTY
VdW
SciTegic.value.DoubleValue
0.696

@<SCITEGIC>MOL_PROPERTY
VdW6
SciTegic.value.DoubleValue
-12.061

@<SCITEGIC>MOL_PROPERTY
VdW12
SciTegic.value.DoubleValue
12.758

@<SCITEGIC>MOL_PROPERTY
Bond
SciTegic.value.DoubleValue
0.324

@<SCITEGIC>MOL_PROPERTY
Angle
SciTegic.value.DoubleValue
4.148

@<SCITEGIC>MOL_PROPERTY
Pdih
SciTegic.value.DoubleValue
9.693

@<SCITEGIC>MOL_PROPERTY
Idih
SciTegic.value.DoubleValue
0.001

@<SCITEGIC>MOL_PROPERTY
Tether
SciTegic.value.DoubleValue
0.000

@<TRIPOS>MOLECULE
guest-8_vm2.mol2 : vm2 ligand conformer 203
          25          24           1
SMALL
USER_CHARGES
 
@<TRIPOS>ATOM
       1    C1      20.669568   19.153018   26.368290 C.2        1 MOL1         0.6168
       2    O1      21.819389   19.446701   26.105899 O.co2      1 MOL1        -0.6703
       3    O2      20.336255   18.074418   26.818955 O.co2      1 MOL1        -0.6703
       4    C2      19.595680   20.221111   26.184254 C.3        1 MOL1        -0.1963
       5    H1      19.969767   21.131940   26.666185 H          1 MOL1         0.0750
       6    H2      18.701078   19.918319   26.741505 H          1 MOL1         0.0750
       7    C3      19.226914   20.542495   24.708869 C.3        1 MOL1        -0.1860
       8    H3      18.624327   21.460617   24.709245 H          1 MOL1         0.0752
       9    H4      20.135461   20.778041   24.141730 H          1 MOL1         0.0752
      10    C4      18.403238   19.433827   24.002928 C.3        1 MOL1        -0.1858
      11    H5      17.808449   19.884506   23.196925 H          1 MOL1         0.0752
      12    H6      17.671232   19.032642   24.717009 H          1 MOL1         0.0752
      13    C5      19.236394   18.261109   23.419870 C.3        1 MOL1        -0.1858
      14    H7      20.156835   18.103628   23.993365 H          1 MOL1         0.0752
      15    H8      18.653268   17.339295   23.548280 H          1 MOL1         0.0752
      16    C6      19.560618   18.396238   21.908603 C.3        1 MOL1        -0.1858
      17    H9      18.618862   18.493139   21.351594 H          1 MOL1         0.0752
      18    H10     20.018661   17.460027   21.561785 H          1 MOL1         0.0752
      19    C7      20.489419   19.573063   21.526116 C.3        1 MOL1        -0.1834
      20    H11     20.558372   19.622143   20.430819 H          1 MOL1         0.0752
      21    H12     20.045130   20.524945   21.844000 H          1 MOL1         0.0752
      22    C8      21.915525   19.432019   22.102216 C.3        1 MOL1        -0.2849
      23    H13     22.378935   18.492354   21.775198 H          1 MOL1         0.0764
      24    H14     22.551461   20.259277   21.762104 H          1 MOL1         0.0764
      25    H15     21.910237   19.445136   23.199612 H          1 MOL1         0.0764
@<TRIPOS>BOND
    1     1     2    1
    2     1     3    2
    3     1     4    1
    4     4     5    1
    5     4     6    1
    6     4     7    1
    7     7     8    1
    8     7     9    1
    9     7    10    1
   10    10    11    1
   11    10    12    1
   12    10    13    1
   13    13    14    1
   14    13    15    1
   15    13    16    1
   16    16    17    1
   17    16    18    1
   18    16    19    1
   19    19    20    1
   20    19    21    1
   21    19    22    1
   22    22    23    1
   23    22    24    1
   24    22    25    1
@<TRIPOS>SUBSTRUCTURE
       1 MOL1            1 RESIDUE      1      MOL     
@<SCITEGIC>MOL_PROPERTY
VM2 Rank
SciTegic.value.IntegerValue
203

@<SCITEGIC>MOL_PROPERTY
Conf_Id
SciTegic.value.IntegerValue
550

@<SCITEGIC>MOL_PROPERTY
Probability
SciTegic.value.DoubleValue
0.00

@<SCITEGIC>MOL_PROPERTY
Sum Probability
SciTegic.value.DoubleValue
100.00

@<SCITEGIC>MOL_PROPERTY
Delta G
SciTegic.value.DoubleValue
9.759

@<SCITEGIC>MOL_PROPERTY
G
SciTegic.value.DoubleValue
1.796

@<SCITEGIC>MOL_PROPERTY
E
SciTegic.value.DoubleValue
-24.232

@<SCITEGIC>MOL_PROPERTY
-TS
SciTegic.value.DoubleValue
26.028

@<SCITEGIC>MOL_PROPERTY
U+W
SciTegic.value.DoubleValue
-44.799

@<SCITEGIC>MOL_PROPERTY
U
SciTegic.value.DoubleValue
16.613

@<SCITEGIC>MOL_PROPERTY
W
SciTegic.value.DoubleValue
-61.412

@<SCITEGIC>MOL_PROPERTY
W(PB)
SciTegic.value.DoubleValue
-63.710

@<SCITEGIC>MOL_PROPERTY
W(SA)
SciTegic.value.DoubleValue
2.297

@<SCITEGIC>MOL_PROPERTY
Valence
SciTegic.value.DoubleValue
13.358

@<SCITEGIC>MOL_PROPERTY
Coulomb
SciTegic.value.DoubleValue
3.088

@<SCITEGIC>MOL_PROPERTY
VdW
SciTegic.value.DoubleValue
0.167

@<SCITEGIC>MOL_PROPERTY
VdW6
SciTegic.value.DoubleValue
-12.848

@<SCITEGIC>MOL_PROPERTY
VdW12
SciTegic.value.DoubleValue
13.015

@<SCITEGIC>MOL_PROPERTY
Bond
SciTegic.value.DoubleValue
0.326

@<SCITEGIC>MOL_PROPERTY
Angle
SciTegic.value.DoubleValue
4.201

@<SCITEGIC>MOL_PROPERTY
Pdih
SciTegic.value.DoubleValue
8.823

@<SCITEGIC>MOL_PROPERTY
Idih
SciTegic.value.DoubleValue
0.006

@<SCITEGIC>MOL_PROPERTY
Tether
SciTegic.value.DoubleValue
0.000

